@<TRIPOS>MOLECULE
ZINC53166256
   43    46     0     0     0
SMALL
USER_CHARGES

@<TRIPOS>ATOM
      1 C1         -0.0645    1.4412   -0.3732 C.3       1 <0>         0.0245
      2 N1         -0.0216   -0.0161   -0.1927 N.3       1 <0>        -0.5427
      3 C2          0.3881   -0.6883   -1.4329 C.3       1 <0>         0.0399
      4 C3          0.2462   -2.2042   -1.2592 C.3       1 <0>         0.1270
      5 N2          0.9912   -2.6085   -0.0572 N.pl3     1 <0>        -0.5934
      6 C4          0.7333   -1.8856    1.1973 C.3       1 <0>         0.1156
      7 C5          0.8560   -0.3822    0.9269 C.3       1 <0>         0.0395
      8 C6          1.9059   -3.6360   -0.1053 C.2       1 <0>         0.5356
      9 N3          2.1874   -4.1476   -1.2567 N.2       1 <0>        -0.6206
     10 C7          2.9530   -5.2310   -1.5577 C.ar      1 <0>         0.1701
     11 C8          2.4830   -6.1190   -2.5335 C.ar      1 <0>        -0.1161
     12 C9          3.2327   -7.2189   -2.8990 C.ar      1 <0>        -0.1046
     13 C10         4.4585   -7.4578   -2.3086 C.ar      1 <0>        -0.1308
     14 C11         4.9338   -6.5952   -1.3330 C.ar      1 <0>        -0.1099
     15 C12         4.1849   -5.4996   -0.9492 C.ar      1 <0>         0.0928
     16 N4          4.6603   -4.6750    0.0974 N.pl3     1 <0>        -0.6675
     17 C13         3.8314   -4.5378    1.1992 C.2       1 <0>         0.0941
     18 C14         2.5165   -4.0886    1.1665 C.2       1 <0>        -0.2204
     19 C15         1.8382   -4.1107    2.4492 C.2       1 <0>        -0.0854
     20 C16         2.5687   -4.5058    3.5084 C.2       1 <0>        -0.1956
     21 S1          4.1544   -4.8614    2.8004 S.3       1 <0>         0.1912
     22 C17         2.1405   -4.6249    4.9484 C.3       1 <0>         0.1641
     23 O1          1.6299   -5.9381    5.1865 O.3       1 <0>        -0.5666
     24 H1          0.9395    1.8113   -0.5807 H         1 <0>         0.0253
     25 H2         -0.7212    1.6847   -1.2084 H         1 <0>         0.0709
     26 H3         -0.4436    1.9089    0.5355 H         1 <0>         0.0707
     27 H4         -0.2467   -0.3553   -2.2540 H         1 <0>         0.0875
     28 H5          1.4271   -0.4432   -1.6533 H         1 <0>         0.0376
     29 H6         -0.8063   -2.4623   -1.1417 H         1 <0>         0.0713
     30 H7          0.6556   -2.7127   -2.1321 H         1 <0>         0.1047
     31 H8         -0.2724   -2.1131    1.5509 H         1 <0>         0.0773
     32 H9          1.4647   -2.1834    1.9486 H         1 <0>         0.0976
     33 H10         1.8885   -0.1414    0.6736 H         1 <0>         0.0377
     34 H11         0.5606    0.1728    1.8173 H         1 <0>         0.0886
     35 H12         1.5267   -5.9420   -3.0033 H         1 <0>         0.1272
     36 H13         2.8583   -7.8974   -3.6513 H         1 <0>         0.1261
     37 H14         5.0449   -8.3146   -2.6060 H         1 <0>         0.1266
     38 H15         5.8924   -6.7804   -0.8713 H         1 <0>         0.1236
     39 H16         5.5203   -4.2292    0.0463 H         1 <0>         0.4183
     40 H17         0.8015   -3.8247    2.5488 H         1 <0>         0.1460
     41 H18         2.9969   -4.4447    5.5982 H         1 <0>         0.0639
     42 H19         1.3639   -3.8895    5.1585 H         1 <0>         0.0718
     43 H20         1.3347   -6.0866    6.0953 H         1 <0>         0.3866
@<TRIPOS>BOND
     1    1    2 1
     2    1   24 1
     3    1   25 1
     4    1   26 1
     5    2    7 1
     6    2    3 1
     7    3    4 1
     8    3   27 1
     9    3   28 1
    10    4    5 1
    11    4   29 1
    12    4   30 1
    13    5    6 1
    14    5    8 1
    15    6    7 1
    16    6   31 1
    17    6   32 1
    18    7   33 1
    19    7   34 1
    20    8   18 1
    21    8    9 2
    22    9   10 1
    23   10   15 ar
    24   10   11 ar
    25   11   12 ar
    26   11   35 1
    27   12   13 ar
    28   12   36 1
    29   13   14 ar
    30   13   37 1
    31   14   15 ar
    32   14   38 1
    33   15   16 1
    34   16   17 1
    35   16   39 1
    36   17   21 1
    37   17   18 2
    38   18   19 1
    39   19   20 2
    40   19   40 1
    41   20   21 1
    42   20   22 1
    43   22   23 1
    44   22   41 1
    45   22   42 1
    46   23   43 1
@<TRIPOS>MOLECULE
ZINC53166256
   44    47     0     0     0
SMALL
USER_CHARGES

@<TRIPOS>ATOM
      1 C1         -0.0503    1.4404   -0.3738 C.3       1 <0>        -0.0468
      2 N1         -0.0137   -0.0159   -0.1846 N.4       1 <0>        -0.3851
      3 C2          0.4926   -0.6538   -1.4064 C.3       1 <0>        -0.0215
      4 C3          0.4236   -2.1768   -1.2526 C.3       1 <0>         0.1009
      5 N2          1.1441   -2.5548   -0.0269 N.pl3     1 <0>        -0.6150
      6 C4          0.8123   -1.8460    1.2187 C.3       1 <0>         0.0891
      7 C5          0.8630   -0.3387    0.9482 C.3       1 <0>        -0.0221
      8 C6          2.1011   -3.5439   -0.0451 C.2       1 <0>         0.5271
      9 N3          2.4417   -4.0411   -1.1867 N.2       1 <0>        -0.5934
     10 C7          3.2607   -5.0916   -1.4627 C.ar      1 <0>         0.1438
     11 C8          2.8603   -5.9960   -2.4544 C.ar      1 <0>        -0.1034
     12 C9          3.6662   -7.0636   -2.7954 C.ar      1 <0>        -0.1053
     13 C10         4.8803   -7.2535   -2.1643 C.ar      1 <0>        -0.1121
     14 C11         5.2869   -6.3742   -1.1727 C.ar      1 <0>        -0.1118
     15 C12         4.4814   -5.3110   -0.8134 C.ar      1 <0>         0.1053
     16 N4          4.8874   -4.4699    0.2491 N.pl3     1 <0>        -0.6685
     17 C13         4.0171   -4.3690    1.3226 C.2       1 <0>         0.0970
     18 C14         2.6868   -3.9739    1.2462 C.2       1 <0>        -0.2330
     19 C15         1.9674   -4.0264    2.5054 C.2       1 <0>        -0.1010
     20 C16         2.6776   -4.3936    3.5882 C.2       1 <0>        -0.1858
     21 S1          4.2994   -4.6826    2.9336 S.3       1 <0>         0.2189
     22 C17         2.2067   -4.5331    5.0129 C.3       1 <0>         0.1600
     23 O1          1.7425   -5.8666    5.2328 O.3       1 <0>        -0.5661
     24 H1          0.9563    1.8058   -0.5769 H         1 <0>         0.1210
     25 H2         -0.7009    1.6813   -1.2145 H         1 <0>         0.1255
     26 H3         -0.4336    1.9146    0.5297 H         1 <0>         0.1251
     27 H4         -0.1168   -0.3464   -2.2563 H         1 <0>         0.1423
     28 H5          1.5267   -0.3518   -1.5724 H         1 <0>         0.1313
     29 H6         -0.6176   -2.4904   -1.1769 H         1 <0>         0.0891
     30 H7          0.8911   -2.6535   -2.1141 H         1 <0>         0.1420
     31 H8         -0.1896   -2.1263    1.5440 H         1 <0>         0.0942
     32 H9          1.5369   -2.1040    1.9911 H         1 <0>         0.1380
     33 H10         1.8859   -0.0462    0.7110 H         1 <0>         0.1319
     34 H11         0.5265    0.2010    1.8334 H         1 <0>         0.1434
     35 H12         1.9139   -5.8573   -2.9558 H         1 <0>         0.1292
     36 H13         3.3452   -7.7553   -3.5603 H         1 <0>         0.1323
     37 H14         5.5108   -8.0849   -2.4425 H         1 <0>         0.1334
     38 H15         6.2363   -6.5211   -0.6793 H         1 <0>         0.1295
     39 H16         5.7296   -3.9892    0.2272 H         1 <0>         0.4219
     40 H17         0.9172   -3.7832    2.5704 H         1 <0>         0.1434
     41 H18         3.0327   -4.3194    5.6912 H         1 <0>         0.0672
     42 H19         1.3940   -3.8304    5.1974 H         1 <0>         0.0714
     43 H20         1.4234   -6.0289    6.1311 H         1 <0>         0.3916
     44 H21        -0.9456   -0.3526    0.0063 H         1 <0>         0.4248
@<TRIPOS>BOND
     1    1    2 1
     2    1   24 1
     3    1   25 1
     4    1   26 1
     5    2    7 1
     6    2    3 1
     7    2   44 1
     8    3    4 1
     9    3   27 1
    10    3   28 1
    11    4    5 1
    12    4   29 1
    13    4   30 1
    14    5    6 1
    15    5    8 1
    16    6    7 1
    17    6   31 1
    18    6   32 1
    19    7   33 1
    20    7   34 1
    21    8   18 1
    22    8    9 2
    23    9   10 1
    24   10   15 ar
    25   10   11 ar
    26   11   12 ar
    27   11   35 1
    28   12   13 ar
    29   12   36 1
    30   13   14 ar
    31   13   37 1
    32   14   15 ar
    33   14   38 1
    34   15   16 1
    35   16   17 1
    36   16   39 1
    37   17   21 1
    38   17   18 2
    39   18   19 1
    40   19   20 2
    41   19   40 1
    42   20   21 1
    43   20   22 1
    44   22   23 1
    45   22   41 1
    46   22   42 1
    47   23   43 1
@<TRIPOS>MOLECULE
ZINC13757083
   34    36     0     0     0
SMALL
USER_CHARGES
(2R)-1-(8-bromo-2,3,6,7-tetrahydrofuro[2,3-f]benzofuran-4-yl)propan-2-amine
@<TRIPOS>ATOM
      1 C1          6.1686    2.5690   -0.1669 C.3       1 <0>        -0.1807
      2 C2          5.2106    1.3769   -0.1209 C.3       1 <0>         0.0370
      3 H1          4.5427    1.4141   -0.9816 H         1 <0>         0.1392
      4 C3          4.3865    1.4342    1.1669 C.3       1 <0>        -0.0985
      5 C4          3.3592    0.3317    1.1554 C.ar      1 <0>        -0.0767
      6 C5          2.1127    0.5620    0.6190 C.ar      1 <0>        -0.1294
      7 C6          1.1515   -0.4393    0.5890 C.ar      1 <0>         0.1298
      8 C7          1.4637   -1.6850    1.1307 C.ar      1 <0>        -0.0636
      9 C8          2.7084   -1.9132    1.6721 C.ar      1 <0>        -0.0957
     10 C9          3.6749   -0.9157    1.6876 C.ar      1 <0>         0.0558
     11 O1          4.8332   -1.3585    2.2507 O.3       1 <0>        -0.3166
     12 C10         4.5593   -2.5317    3.0353 C.3       1 <0>         0.0582
     13 C11         3.3223   -3.1351    2.3290 C.3       1 <0>        -0.1182
     14 Br1         0.1723   -3.0663    1.1222 Br        1 <0>        -0.0086
     15 O2          0.0021   -0.0041    0.0020 O.3       1 <0>        -0.2811
     16 C12        -0.0174    1.4336    0.0099 C.3       1 <0>         0.0478
     17 C13         1.4864    1.7961   -0.0025 C.3       1 <0>        -0.1102
     18 H2          6.8364    2.5318    0.6938 H         1 <0>         0.0842
     19 H3          6.7556    2.5281   -1.0844 H         1 <0>         0.0851
     20 H4          5.5961    3.4962   -0.1428 H         1 <0>         0.1078
     21 H5          3.8835    2.3989    1.2337 H         1 <0>         0.1229
     22 H6          5.0455    1.3079    2.0259 H         1 <0>         0.1055
     23 H7          4.3228   -2.2615    4.0645 H         1 <0>         0.0894
     24 H8          5.4001   -3.2246    3.0004 H         1 <0>         0.1207
     25 H9          2.6360   -3.5741    3.0531 H         1 <0>         0.1091
     26 H10         3.6207   -3.8704    1.5818 H         1 <0>         0.1073
     27 H11        -0.5147    1.8180   -0.8806 H         1 <0>         0.1209
     28 H12        -0.4976    1.8083    0.9139 H         1 <0>         0.0893
     29 H13         1.8432    1.9426   -1.0220 H         1 <0>         0.1008
     30 H14         1.6790    2.6793    0.6066 H         1 <0>         0.1039
     31 H15         6.4850    0.0352   -1.0232 H         1 <0>         0.4368
     32 H16         6.6092    0.0688    0.6349 H         1 <0>         0.4371
     33 N1          5.9631    0.1104   -0.1516 N.4       1 <0>        -0.6452
     34 H17         5.3050   -0.6750   -0.0864 H         1 <0>         0.4360
@<TRIPOS>BOND
     1    1    2 1
     2    1   18 1
     3    1   19 1
     4    1   20 1
     5    2    3 1
     6    2    4 1
     7    2   33 1
     8    4    5 1
     9    4   21 1
    10    4   22 1
    11    5   10 ar
    12    5    6 ar
    13    6   17 1
    14    6    7 ar
    15    7    8 ar
    16    7   15 1
    17    8    9 ar
    18    8   14 1
    19    9   13 1
    20    9   10 ar
    21   10   11 1
    22   11   12 1
    23   12   13 1
    24   12   23 1
    25   12   24 1
    26   13   25 1
    27   13   26 1
    28   15   16 1
    29   16   17 1
    30   16   27 1
    31   16   28 1
    32   17   29 1
    33   17   30 1
    34   31   33 1
    35   32   33 1
    36   33   34 1
@<TRIPOS>MOLECULE
ZINC13757085
   34    36     0     0     0
SMALL
USER_CHARGES
(2S)-1-(8-bromo-2,3,6,7-tetrahydrofuro[2,3-f]benzofuran-4-yl)propan-2-amine
@<TRIPOS>ATOM
      1 C1          5.4869    3.1157   -1.4447 C.3       1 <0>        -0.1809
      2 C2          4.1111    2.4464   -1.4423 C.3       1 <0>         0.0372
      3 H1          4.1661    1.5007   -1.9815 H         1 <0>         0.1390
      4 C3          3.6731    2.1861    0.0004 C.3       1 <0>        -0.0981
      5 C4          2.3767    1.4177    0.0010 C.ar      1 <0>        -0.0766
      6 C5          2.3958    0.0414    0.0008 C.ar      1 <0>        -0.1299
      7 C6          1.2156   -0.6896   -0.0040 C.ar      1 <0>         0.1299
      8 C7          0.0021   -0.0041    0.0020 C.ar      1 <0>        -0.0638
      9 C8         -0.0166    1.3722    0.0096 C.ar      1 <0>        -0.0957
     10 C9          1.1646    2.1030    0.0022 C.ar      1 <0>         0.0567
     11 O1          0.9168    3.4421   -0.0128 O.3       1 <0>        -0.3167
     12 C10        -0.4290    3.6781    0.4350 C.3       1 <0>         0.0582
     13 C11        -1.1566    2.3728    0.0355 C.3       1 <0>        -0.1181
     14 Br1        -1.6246   -0.9683   -0.0008 Br        1 <0>        -0.0088
     15 O2          1.4632   -2.0289   -0.0218 O.3       1 <0>        -0.2812
     16 C12         2.8138   -2.2661    0.4104 C.3       1 <0>         0.0479
     17 C13         3.5365   -0.9588    0.0081 C.3       1 <0>        -0.1101
     18 H2          5.7989    3.3011   -2.4725 H         1 <0>         0.0850
     19 H3          5.4319    4.0614   -0.9055 H         1 <0>         0.0841
     20 H4          6.2101    2.4614   -0.9579 H         1 <0>         0.1078
     21 H5          3.5322    3.1368    0.5145 H         1 <0>         0.1054
     22 H6          4.4398    1.6056    0.5137 H         1 <0>         0.1228
     23 H7         -0.4570    3.8208    1.5153 H         1 <0>         0.0892
     24 H8         -0.8627    4.5352   -0.0802 H         1 <0>         0.1206
     25 H9         -1.6138    2.4677   -0.9494 H         1 <0>         0.1072
     26 H10        -1.8999    2.0968    0.7834 H         1 <0>         0.1089
     27 H11         2.8536   -2.4130    1.4897 H         1 <0>         0.0893
     28 H12         3.2422   -3.1209   -0.1129 H         1 <0>         0.1208
     29 H13         4.2887   -0.6861    0.7483 H         1 <0>         0.1038
     30 H14         3.9823   -1.0492   -0.9824 H         1 <0>         0.1008
     31 H15         3.0194    4.1864   -1.5807 H         1 <0>         0.4373
     32 H16         3.4034    3.5153   -3.0532 H         1 <0>         0.4367
     33 N1          3.1158    3.3135   -2.0970 N.4       1 <0>        -0.6450
     34 H17         2.2087    2.8327   -2.1144 H         1 <0>         0.4363
@<TRIPOS>BOND
     1    1    2 1
     2    1   18 1
     3    1   19 1
     4    1   20 1
     5    2    3 1
     6    2    4 1
     7    2   33 1
     8    4    5 1
     9    4   21 1
    10    4   22 1
    11    5   10 ar
    12    5    6 ar
    13    6   17 1
    14    6    7 ar
    15    7    8 ar
    16    7   15 1
    17    8    9 ar
    18    8   14 1
    19    9   13 1
    20    9   10 ar
    21   10   11 1
    22   11   12 1
    23   12   13 1
    24   12   23 1
    25   12   24 1
    26   13   25 1
    27   13   26 1
    28   15   16 1
    29   16   17 1
    30   16   27 1
    31   16   28 1
    32   17   29 1
    33   17   30 1
    34   31   33 1
    35   32   33 1
    36   33   34 1
@<TRIPOS>MOLECULE
ZINC49111167
   59    61     0     0     0
SMALL
USER_CHARGES

@<TRIPOS>ATOM
      1 C1          0.0096    1.5262    0.2536 C.3       1 <0>        -0.1440
      2 C2          0.0295   -0.0037    0.2485 C.3       1 <0>        -0.0684
      3 C3          0.5120   -0.5029   -1.1149 C.3       1 <0>        -0.1059
      4 C4          0.5319   -2.0327   -1.1201 C.3       1 <0>        -0.1186
      5 C5          1.4798   -2.5341   -0.0287 C.3       1 <0>         0.0854
      6 C6          0.9972   -2.0349    1.3347 C.3       1 <0>        -0.1473
      7 C7          0.9774   -0.5051    1.3398 C.3       1 <0>        -0.1053
      8 O1          1.4983   -3.9630   -0.0335 O.3       1 <0>        -0.2926
      9 C8          2.6095   -4.5675    0.4647 C.ar      1 <0>         0.1647
     10 C9          3.6098   -3.8070    1.0496 C.ar      1 <0>        -0.2795
     11 C10         4.7416   -4.4260    1.5573 C.ar      1 <0>         0.1811
     12 C11         4.8716   -5.8050    1.4794 C.ar      1 <0>        -0.1745
     13 C12         3.8740   -6.5627    0.8956 C.ar      1 <0>        -0.0539
     14 C13         2.7409   -5.9486    0.3932 C.ar      1 <0>         0.0331
     15 F1          1.7644   -6.6915   -0.1721 F         1 <0>        -0.1255
     16 C14         6.1022   -6.4774    2.0314 C.3       1 <0>         0.1768
     17 N1          5.9768   -6.6078    3.4852 N.am      1 <0>        -0.6903
     18 C15         6.9653   -7.1834    4.1979 C.2       1 <0>         0.5053
     19 O2          7.9586   -7.5935    3.6357 O.2       1 <0>        -0.5271
     20 C16         6.8364   -7.3175    5.6933 C.3       1 <0>         0.0013
     21 H1          5.9521   -7.9060    5.9378 H         1 <0>         0.1674
     22 C17         6.7315   -5.9196    6.3387 C.3       1 <0>        -0.1343
     23 C18         7.5618   -6.0724    7.6403 C.3       1 <0>        -0.1412
     24 C19         8.6949   -7.0225    7.1789 C.3       1 <0>        -0.0070
     25 N2          8.0397   -7.9675    6.2443 N.4       1 <0>        -0.5032
     26 O3          5.7240   -3.6818    2.1310 O.3       1 <0>        -0.3082
     27 C20         5.5238   -2.2676    2.1766 C.3       1 <0>         0.0213
     28 C21        -1.3810   -0.5330    0.5154 C.3       1 <0>        -0.1492
     29 H2          1.0145    1.9032    0.0634 H         1 <0>         0.0552
     30 H3         -0.6657    1.8834   -0.5239 H         1 <0>         0.0592
     31 H4         -0.3342    1.8818    1.2249 H         1 <0>         0.0574
     32 H5         -0.1633   -0.1457   -1.8924 H         1 <0>         0.0773
     33 H6          1.5169   -0.1258   -1.3051 H         1 <0>         0.0657
     34 H7         -0.4730   -2.4098   -0.9299 H         1 <0>         0.0822
     35 H8          0.8756   -2.3884   -2.0914 H         1 <0>         0.0753
     36 H9          2.4846   -2.1571   -0.2189 H         1 <0>         0.0744
     37 H10        -0.0076   -2.4120    1.5248 H         1 <0>         0.0831
     38 H11         1.6725   -2.3921    2.1122 H         1 <0>         0.0650
     39 H12         1.9822   -0.1280    1.1497 H         1 <0>         0.0629
     40 H13         0.6336   -0.1494    2.3111 H         1 <0>         0.0722
     41 H14         3.5077   -2.7335    1.1095 H         1 <0>         0.1513
     42 H15         3.9773   -7.6361    0.8355 H         1 <0>         0.1534
     43 H16         6.2066   -7.4666    1.5856 H         1 <0>         0.0900
     44 H17         6.9810   -5.8776    1.7948 H         1 <0>         0.0934
     45 H18         5.1824   -6.2798    3.9348 H         1 <0>         0.4108
     46 H19         7.1691   -5.1615    5.6892 H         1 <0>         0.1058
     47 H20         5.6939   -5.6786    6.5695 H         1 <0>         0.1230
     48 H21         7.9644   -5.1118    7.9616 H         1 <0>         0.1221
     49 H22         6.9672   -6.5291    8.4314 H         1 <0>         0.1042
     50 H23         9.4762   -6.4608    6.6668 H         1 <0>         0.1358
     51 H24         9.1098   -7.5604    8.0313 H         1 <0>         0.1429
     52 H25         7.7763   -8.8078    6.7368 H         1 <0>         0.4355
     53 H26         5.4192   -1.8825    1.1623 H         1 <0>         0.0614
     54 H27         4.6198   -2.0467    2.7442 H         1 <0>         0.0603
     55 H28         6.3798   -1.7948    2.6582 H         1 <0>         0.1074
     56 H29        -2.0563   -0.1758   -0.2621 H         1 <0>         0.0585
     57 H30        -1.3669   -1.6229    0.5117 H         1 <0>         0.0606
     58 H31        -1.7248   -0.1773    1.4867 H         1 <0>         0.0563
     59 H32         8.6738   -8.1994    5.4945 H         1 <0>         0.4371
@<TRIPOS>BOND
     1    1    2 1
     2    1   29 1
     3    1   30 1
     4    1   31 1
     5    2    7 1
     6    2    3 1
     7    2   28 1
     8    3    4 1
     9    3   32 1
    10    3   33 1
    11    4    5 1
    12    4   34 1
    13    4   35 1
    14    5    6 1
    15    5    8 1
    16    5   36 1
    17    6    7 1
    18    6   37 1
    19    6   38 1
    20    7   39 1
    21    7   40 1
    22    8    9 1
    23    9   14 ar
    24    9   10 ar
    25   10   11 ar
    26   10   41 1
    27   11   12 ar
    28   11   26 1
    29   12   13 ar
    30   12   16 1
    31   13   14 ar
    32   13   42 1
    33   14   15 1
    34   16   17 1
    35   16   43 1
    36   16   44 1
    37   17   18 am
    38   17   45 1
    39   18   19 2
    40   18   20 1
    41   20   21 1
    42   20   25 1
    43   20   22 1
    44   22   23 1
    45   22   46 1
    46   22   47 1
    47   23   24 1
    48   23   48 1
    49   23   49 1
    50   24   25 1
    51   24   50 1
    52   24   51 1
    53   25   52 1
    54   25   59 1
    55   26   27 1
    56   27   53 1
    57   27   54 1
    58   27   55 1
    59   28   56 1
    60   28   57 1
    61   28   58 1
@<TRIPOS>MOLECULE
ZINC49070846
   48    50     0     0     0
SMALL
USER_CHARGES

@<TRIPOS>ATOM
      1 C1         -0.0167    1.3781    0.0096 C.ar      1 <0>        -0.0936
      2 C2          1.1709    2.0855    0.0021 C.ar      1 <0>        -0.1180
      3 C3          2.3773    1.4107   -0.0130 C.ar      1 <0>        -0.0511
      4 C4          2.3960    0.0285   -0.0201 C.ar      1 <0>        -0.1145
      5 C5          1.2085   -0.6789   -0.0117 C.ar      1 <0>        -0.0940
      6 C6          0.0021   -0.0041    0.0020 C.ar      1 <0>        -0.1343
      7 C7         -1.2926   -0.7753    0.0107 C.3       1 <0>         0.1613
      8 N1         -1.7258   -1.0177   -1.3676 N.am      1 <0>        -0.6940
      9 C8         -2.8667   -1.6945   -1.6063 C.2       1 <0>         0.5043
     10 O1         -3.5346   -2.1028   -0.6800 O.2       1 <0>        -0.5264
     11 C9         -3.3123   -1.9439   -3.0241 C.3       1 <0>         0.0017
     12 H1         -2.5487   -2.5091   -3.5586 H         1 <0>         0.1678
     13 C10        -3.5671   -0.6000   -3.7385 C.3       1 <0>        -0.1347
     14 C11        -4.8197   -0.8965   -4.6044 C.3       1 <0>        -0.1412
     15 C12        -5.6151   -1.8571   -3.6856 C.3       1 <0>        -0.0072
     16 N2         -4.5831   -2.6915   -3.0263 N.4       1 <0>        -0.5034
     17 C13         3.6720    2.1819   -0.0222 C.3       1 <0>        -0.0542
     18 C14         4.4668    1.8291   -1.2811 C.3       1 <0>        -0.1085
     19 C15         5.7813    2.6120   -1.2904 C.3       1 <0>        -0.1216
     20 C16         6.6008    2.2476   -0.0509 C.3       1 <0>        -0.1225
     21 C17         5.8060    2.6004    1.2079 C.3       1 <0>        -0.1217
     22 C18         4.4916    1.8174    1.2173 C.3       1 <0>        -0.1105
     23 H2         -0.9591    1.9053    0.0259 H         1 <0>         0.1236
     24 H3          1.1563    3.1654    0.0076 H         1 <0>         0.1273
     25 H4          3.3385   -0.4987   -0.0326 H         1 <0>         0.1272
     26 H5          1.2231   -1.7588   -0.0179 H         1 <0>         0.1236
     27 H6         -1.1443   -1.7285    0.5180 H         1 <0>         0.0879
     28 H7         -2.0551   -0.1993    0.5352 H         1 <0>         0.0876
     29 H8         -1.1916   -0.6912   -2.1085 H         1 <0>         0.4122
     30 H9         -3.7766    0.1876   -3.0146 H         1 <0>         0.1048
     31 H10        -2.7186   -0.3310   -4.3675 H         1 <0>         0.1242
     32 H11        -5.3847    0.0152   -4.7987 H         1 <0>         0.1228
     33 H12        -4.5423   -1.3883   -5.5368 H         1 <0>         0.1047
     34 H13        -6.1791   -1.2921   -2.9434 H         1 <0>         0.1359
     35 H14        -6.2844   -2.4812   -4.2777 H         1 <0>         0.1434
     36 H15        -4.4676   -3.5561   -3.5334 H         1 <0>         0.4357
     37 H16         3.4583    3.2507   -0.0151 H         1 <0>         0.0811
     38 H17         4.6805    0.7603   -1.2882 H         1 <0>         0.0638
     39 H18         3.8829    2.0888   -2.1641 H         1 <0>         0.0618
     40 H19         6.3475    2.3607   -2.1872 H         1 <0>         0.0648
     41 H20         5.5676    3.6809   -1.2833 H         1 <0>         0.0635
     42 H21         6.8145    1.1787   -0.0580 H         1 <0>         0.0619
     43 H22         7.5373    2.8053   -0.0576 H         1 <0>         0.0644
     44 H23         6.3899    2.3407    2.0909 H         1 <0>         0.0656
     45 H24         5.5923    3.6692    1.2150 H         1 <0>         0.0636
     46 H25         3.9253    2.0688    2.1141 H         1 <0>         0.0637
     47 H26         4.7052    0.7486    1.2102 H         1 <0>         0.0643
     48 H27        -4.8617   -2.8905   -2.0771 H         1 <0>         0.4370
@<TRIPOS>BOND
     1    1    6 ar
     2    1    2 ar
     3    1   23 1
     4    2    3 ar
     5    2   24 1
     6    3    4 ar
     7    3   17 1
     8    4    5 ar
     9    4   25 1
    10    5    6 ar
    11    5   26 1
    12    6    7 1
    13    7    8 1
    14    7   27 1
    15    7   28 1
    16    8    9 am
    17    8   29 1
    18    9   10 2
    19    9   11 1
    20   11   12 1
    21   11   16 1
    22   11   13 1
    23   13   14 1
    24   13   30 1
    25   13   31 1
    26   14   15 1
    27   14   32 1
    28   14   33 1
    29   15   16 1
    30   15   34 1
    31   15   35 1
    32   16   36 1
    33   16   48 1
    34   17   22 1
    35   17   18 1
    36   17   37 1
    37   18   19 1
    38   18   38 1
    39   18   39 1
    40   19   20 1
    41   19   40 1
    42   19   41 1
    43   20   21 1
    44   20   42 1
    45   20   43 1
    46   21   22 1
    47   21   44 1
    48   21   45 1
    49   22   46 1
    50   22   47 1
@<TRIPOS>MOLECULE
ZINC20477318
   50    52     0     0     0
SMALL
USER_CHARGES
1-benzyl-N-cinnamyl-piperidin-4-amine
@<TRIPOS>ATOM
      1 C1          5.3425    4.9379    0.5431 C.ar      1 <0>        -0.0850
      2 C2          4.9391    4.5967   -0.7343 C.ar      1 <0>        -0.1130
      3 C3          3.6562    4.1307   -0.9527 C.ar      1 <0>        -0.0944
      4 C4          2.7764    4.0063    0.1063 C.ar      1 <0>        -0.1582
      5 C5          3.1779    4.3528    1.3828 C.ar      1 <0>        -0.0976
      6 C6          4.4627    4.8135    1.6021 C.ar      1 <0>        -0.1144
      7 C7          1.3776    3.4986   -0.1318 C.3       1 <0>         0.0464
      8 N1          1.3585    2.0357    0.0000 N.4       1 <0>        -0.3960
      9 C8         -0.0187    1.5261    0.0104 C.3       1 <0>         0.0005
     10 C9          0.0021   -0.0041    0.0020 C.3       1 <0>        -0.1473
     11 C10         0.7612   -0.5061    1.2334 C.3       1 <0>         0.0646
     12 C11         2.1767    0.0777    1.2237 C.3       1 <0>        -0.1340
     13 C12         2.0929    1.6055    1.1967 C.3       1 <0>        -0.0080
     14 N2          0.8349   -1.9729    1.2003 N.3       1 <0>        -0.6651
     15 C13         0.9947   -2.5226    2.5532 C.3       1 <0>         0.0809
     16 C14         1.0664   -4.0261    2.4793 C.2       1 <0>        -0.1598
     17 C15         2.0976   -4.6674    3.0109 C.2       1 <0>        -0.0929
     18 C16         2.1679   -6.1421    2.9384 C.ar      1 <0>        -0.0671
     19 C17         1.1477   -6.8624    2.3161 C.ar      1 <0>        -0.1124
     20 C18         1.2222   -8.2384    2.2467 C.ar      1 <0>        -0.1187
     21 C19         2.2995   -8.9047    2.8030 C.ar      1 <0>        -0.1140
     22 C20         3.3117   -8.1968    3.4260 C.ar      1 <0>        -0.1182
     23 C21         3.2520   -6.8201    3.4970 C.ar      1 <0>        -0.1068
     24 H1          6.3451    5.3013    0.7138 H         1 <0>         0.1356
     25 H2          5.6265    4.6939   -1.5617 H         1 <0>         0.1360
     26 H3          3.3410    3.8641   -1.9507 H         1 <0>         0.1314
     27 H4          2.4892    4.2598    2.2095 H         1 <0>         0.1289
     28 H5          4.7779    5.0797    2.6001 H         1 <0>         0.1355
     29 H6          0.6955    3.9424    0.6084 H         1 <0>         0.1318
     30 H7          1.0529    3.7798   -1.1445 H         1 <0>         0.1380
     31 H8         -0.5339    1.8804    0.9154 H         1 <0>         0.1254
     32 H9         -0.5511    1.8900   -0.8808 H         1 <0>         0.1345
     33 H10        -1.0296   -0.3849    0.0246 H         1 <0>         0.1118
     34 H11         0.5040   -0.3590   -0.9102 H         1 <0>         0.1000
     35 H12         0.2319   -0.2299    2.1572 H         1 <0>         0.0606
     36 H13         2.7130   -0.2460    2.1279 H         1 <0>         0.1070
     37 H14         2.7138   -0.2776    0.3319 H         1 <0>         0.0966
     38 H15         3.1085    2.0276    1.1751 H         1 <0>         0.1358
     39 H16         1.5678    1.9594    2.0962 H         1 <0>         0.1223
     40 H17        -0.0899   -2.3767    0.7625 H         1 <0>         0.3519
     41 H18         1.9211   -2.1329    3.0002 H         1 <0>         0.0780
     42 H19         0.1356   -2.2265    3.1731 H         1 <0>         0.0467
     43 H20         0.2630   -4.5914    1.9842 H         1 <0>         0.1194
     44 H21         2.9010   -4.1021    3.5060 H         1 <0>         0.1196
     45 H22         0.3037   -6.3438    1.8861 H         1 <0>         0.1225
     46 H23         0.4354   -8.7969    1.7615 H         1 <0>         0.1251
     47 H24         2.3507   -9.9822    2.7503 H         1 <0>         0.1252
     48 H25         4.1502   -8.7228    3.8579 H         1 <0>         0.1260
     49 H26         4.0428   -6.2686    3.9837 H         1 <0>         0.1238
     50 H27         1.8672    1.6090   -0.8770 H         1 <0>         0.4410
@<TRIPOS>BOND
     1    1    6 ar
     2    1    2 ar
     3    1   24 1
     4    2    3 ar
     5    2   25 1
     6    3    4 ar
     7    3   26 1
     8    4    5 ar
     9    4    7 1
    10    5    6 ar
    11    5   27 1
    12    6   28 1
    13    7    8 1
    14    7   29 1
    15    7   30 1
    16    8   13 1
    17    8    9 1
    18    8   50 1
    19    9   10 1
    20    9   31 1
    21    9   32 1
    22   10   11 1
    23   10   33 1
    24   10   34 1
    25   11   12 1
    26   11   14 1
    27   11   35 1
    28   12   13 1
    29   12   36 1
    30   12   37 1
    31   13   38 1
    32   13   39 1
    33   14   15 1
    34   14   40 1
    35   15   16 1
    36   15   41 1
    37   15   42 1
    38   16   17 2
    39   16   43 1
    40   17   18 1
    41   17   44 1
    42   18   23 ar
    43   18   19 ar
    44   19   20 ar
    45   19   45 1
    46   20   21 ar
    47   20   46 1
    48   21   22 ar
    49   21   47 1
    50   22   23 ar
    51   22   48 1
    52   23   49 1
@<TRIPOS>MOLECULE
ZINC22055590
   40    43     0     0     0
SMALL
USER_CHARGES
2-methyl-4-piperazin-1-yl-10H-thieno[2,3-b][1,5]benzodiazepine
@<TRIPOS>ATOM
      1 C1          2.9000    6.4909    5.1733 C.3       1 <0>        -0.0794
      2 C2          2.5815    5.9866    3.7894 C.2       1 <0>        -0.1487
      3 C3          1.6183    6.4056    2.9486 C.2       1 <0>        -0.1359
      4 C4          1.5178    5.7559    1.6564 C.2       1 <0>        -0.2219
      5 C5          2.4395    4.7328    1.4394 C.2       1 <0>         0.1326
      6 S1          3.3891    4.6898    2.8707 S.3       1 <0>         0.1175
      7 N1          2.5084    3.9288    0.3158 N.pl3     1 <0>        -0.6794
      8 C6          1.3322    3.2144   -0.0160 C.ar      1 <0>         0.1140
      9 C7          1.3818    1.8365   -0.0931 C.ar      1 <0>        -0.1132
     10 C8          0.2296    1.1109   -0.3542 C.ar      1 <0>        -0.1125
     11 C9         -0.9694    1.7704   -0.5428 C.ar      1 <0>        -0.1069
     12 C10        -1.0287    3.1477   -0.4744 C.ar      1 <0>        -0.1040
     13 C11         0.1275    3.8975   -0.2233 C.ar      1 <0>         0.1419
     14 N2          0.0194    5.2532   -0.2098 N.2       1 <0>        -0.5947
     15 C12         0.5397    6.1123    0.6013 C.2       1 <0>         0.5251
     16 N3          0.1661    7.4315    0.4793 N.pl3     1 <0>        -0.6143
     17 C13        -0.9003    7.8310   -0.4516 C.3       1 <0>         0.0945
     18 C14        -0.3858    8.9721   -1.3278 C.3       1 <0>        -0.0147
     19 N4          0.1296   10.0500   -0.4732 N.4       1 <0>        -0.5347
     20 C15         1.2772    9.5959    0.3235 C.3       1 <0>        -0.0188
     21 C16         0.8267    8.4796    1.2719 C.3       1 <0>         0.0827
     22 H1          2.2045    7.3011    5.4374 H         1 <0>         0.0840
     23 H2          3.9319    6.8713    5.1964 H         1 <0>         0.0821
     24 H3          2.7962    5.6683    5.8962 H         1 <0>         0.0829
     25 H4          0.9422    7.2004    3.2271 H         1 <0>         0.1391
     26 H5          3.4417    3.8721   -0.2636 H         1 <0>         0.4455
     27 H6          2.3208    1.3226    0.0501 H         1 <0>         0.1291
     28 H7          0.2702    0.0334   -0.4145 H         1 <0>         0.1328
     29 H8         -1.8675    1.2043   -0.7411 H         1 <0>         0.1317
     30 H9         -1.9729    3.6514   -0.6202 H         1 <0>         0.1285
     31 H10        -1.1776    6.9729   -1.0815 H         1 <0>         0.1410
     32 H11        -1.7789    8.1660    0.1193 H         1 <0>         0.0882
     33 H12         0.4208    8.6008   -1.9770 H         1 <0>         0.1293
     34 H13        -1.2082    9.3572   -1.9486 H         1 <0>         0.1436
     35 H14         0.4513   10.8938   -1.1013 H         1 <0>         0.4556
     36 H15         2.0613    9.2147   -0.3472 H         1 <0>         0.1293
     37 H16         1.6735   10.4385    0.9091 H         1 <0>         0.1449
     38 H17         0.1191    8.8797    2.0130 H         1 <0>         0.0936
     39 H18         1.6982    8.0530    1.7901 H         1 <0>         0.1398
     40 H19        -0.6625   10.3846    0.2128 H         1 <0>         0.4497
@<TRIPOS>BOND
     1    1    2 1
     2    1   22 1
     3    1   23 1
     4    1   24 1
     5    2    6 1
     6    2    3 2
     7    3    4 1
     8    3   25 1
     9    4   15 1
    10    4    5 2
    11    5    6 1
    12    5    7 1
    13    7    8 1
    14    7   26 1
    15    8   13 ar
    16    8    9 ar
    17    9   10 ar
    18    9   27 1
    19   10   11 ar
    20   10   28 1
    21   11   12 ar
    22   11   29 1
    23   12   13 ar
    24   12   30 1
    25   13   14 1
    26   14   15 2
    27   15   16 1
    28   16   21 1
    29   16   17 1
    30   17   18 1
    31   17   31 1
    32   17   32 1
    33   18   19 1
    34   18   33 1
    35   18   34 1
    36   19   20 1
    37   19   35 1
    38   19   40 1
    39   20   21 1
    40   20   36 1
    41   20   37 1
    42   21   38 1
    43   21   39 1
@<TRIPOS>MOLECULE
ZINC22055590
   39    42     0     0     0
SMALL
USER_CHARGES
2-methyl-4-piperazin-1-yl-10H-thieno[2,3-b][1,5]benzodiazepine
@<TRIPOS>ATOM
      1 C1          2.9000    6.4909    5.1733 C.3       1 <0>        -0.0731
      2 C2          2.5815    5.9866    3.7894 C.2       1 <0>        -0.1595
      3 C3          1.6183    6.4056    2.9486 C.2       1 <0>        -0.1197
      4 C4          1.5178    5.7559    1.6564 C.2       1 <0>        -0.2090
      5 C5          2.4395    4.7328    1.4394 C.2       1 <0>         0.1289
      6 S1          3.3891    4.6898    2.8707 S.3       1 <0>         0.0909
      7 N1          2.5084    3.9288    0.3158 N.pl3     1 <0>        -0.6777
      8 C6          1.3322    3.2144   -0.0160 C.ar      1 <0>         0.1017
      9 C7          1.3818    1.8365   -0.0931 C.ar      1 <0>        -0.1111
     10 C8          0.2296    1.1109   -0.3542 C.ar      1 <0>        -0.1312
     11 C9         -0.9694    1.7704   -0.5428 C.ar      1 <0>        -0.1060
     12 C10        -1.0287    3.1477   -0.4744 C.ar      1 <0>        -0.1167
     13 C11         0.1275    3.8975   -0.2233 C.ar      1 <0>         0.1681
     14 N2          0.0194    5.2532   -0.2098 N.2       1 <0>        -0.6216
     15 C12         0.5397    6.1123    0.6013 C.2       1 <0>         0.5340
     16 N3          0.1661    7.4315    0.4793 N.pl3     1 <0>        -0.5933
     17 C13        -0.9003    7.8310   -0.4516 C.3       1 <0>         0.1226
     18 C14        -0.3858    8.9721   -1.3278 C.3       1 <0>         0.0334
     19 N4          0.1296   10.0500   -0.4732 N.3       1 <0>        -0.6705
     20 C15         1.2772    9.5959    0.3235 C.3       1 <0>         0.0314
     21 C16         0.8267    8.4796    1.2719 C.3       1 <0>         0.1111
     22 H1          2.2045    7.3011    5.4374 H         1 <0>         0.0832
     23 H2          3.9319    6.8713    5.1964 H         1 <0>         0.0780
     24 H3          2.7962    5.6683    5.8962 H         1 <0>         0.0776
     25 H4          0.9422    7.2004    3.2271 H         1 <0>         0.1418
     26 H5          3.4417    3.8721   -0.2636 H         1 <0>         0.4407
     27 H6          2.3208    1.3226    0.0501 H         1 <0>         0.1233
     28 H7          0.2702    0.0334   -0.4145 H         1 <0>         0.1260
     29 H8         -1.8675    1.2043   -0.7411 H         1 <0>         0.1256
     30 H9         -1.9729    3.6514   -0.6202 H         1 <0>         0.1265
     31 H10        -1.1776    6.9729   -1.0815 H         1 <0>         0.1044
     32 H11        -1.7789    8.1660    0.1193 H         1 <0>         0.0695
     33 H12         0.4208    8.6008   -1.9770 H         1 <0>         0.0349
     34 H13        -1.2082    9.3572   -1.9486 H         1 <0>         0.0894
     35 H14         2.0613    9.2147   -0.3472 H         1 <0>         0.0352
     36 H15         1.6735   10.4385    0.9091 H         1 <0>         0.0904
     37 H16         0.1191    8.8797    2.0130 H         1 <0>         0.0755
     38 H17         1.6982    8.0530    1.7901 H         1 <0>         0.0999
     39 H18         0.4513   10.8938   -1.1013 H         1 <0>         0.3455
@<TRIPOS>BOND
     1    1    2 1
     2    1   22 1
     3    1   23 1
     4    1   24 1
     5    2    6 1
     6    2    3 2
     7    3    4 1
     8    3   25 1
     9    4   15 1
    10    4    5 2
    11    5    6 1
    12    5    7 1
    13    7    8 1
    14    7   26 1
    15    8   13 ar
    16    8    9 ar
    17    9   10 ar
    18    9   27 1
    19   10   11 ar
    20   10   28 1
    21   11   12 ar
    22   11   29 1
    23   12   13 ar
    24   12   30 1
    25   13   14 1
    26   14   15 2
    27   15   16 1
    28   16   21 1
    29   16   17 1
    30   17   18 1
    31   17   31 1
    32   17   32 1
    33   18   19 1
    34   18   33 1
    35   18   34 1
    36   19   20 1
    37   19   39 1
    38   20   21 1
    39   20   35 1
    40   20   36 1
    41   21   37 1
    42   21   38 1
@<TRIPOS>MOLECULE
ZINC20477323
   48    50     0     0     0
SMALL
USER_CHARGES
1-benzyl-N-(3-phenylprop-2-ynyl)piperidin-4-amine
@<TRIPOS>ATOM
      1 C1         -2.5673   -9.6573    5.3445 C.ar      1 <0>        -0.0847
      2 C2         -2.6865   -9.6291    3.9676 C.ar      1 <0>        -0.1138
      3 C3         -1.6068   -9.2588    3.1878 C.ar      1 <0>        -0.0982
      4 C4         -0.4078   -8.9172    3.7850 C.ar      1 <0>        -0.1599
      5 C5         -0.2869   -8.9509    5.1616 C.ar      1 <0>        -0.0944
      6 C6         -1.3683   -9.3157    5.9417 C.ar      1 <0>        -0.1128
      7 C7          0.7694   -8.5140    2.9349 C.3       1 <0>         0.0467
      8 N1          0.7441   -7.0608    2.7211 N.4       1 <0>        -0.3967
      9 C8          1.9930   -6.5981    2.1025 C.3       1 <0>        -0.0032
     10 C9          1.9914   -5.0695    2.0285 C.3       1 <0>        -0.1332
     11 C10         0.7883   -4.6046    1.2033 C.3       1 <0>         0.0667
     12 C11        -0.4963   -5.1403    1.8417 C.3       1 <0>        -0.1775
     13 C12        -0.4225   -6.6668    1.9211 C.3       1 <0>        -0.0040
     14 N2          0.7484   -3.1364    1.1776 N.3       1 <0>        -0.6619
     15 C13         0.0380   -2.6498   -0.0125 C.3       1 <0>         0.1691
     16 C14         0.0180   -1.1779   -0.0044 C.1       1 <0>        -0.1835
     17 C15         0.0021   -0.0041    0.0020 C.1       1 <0>        -0.0980
     18 C16        -0.0173    1.4278    0.0099 C.ar      1 <0>        -0.0025
     19 C17        -1.2334    2.1120    0.0193 C.ar      1 <0>        -0.0910
     20 C18        -1.2452    3.4916    0.0322 C.ar      1 <0>        -0.1186
     21 C19        -0.0549    4.1966    0.0246 C.ar      1 <0>        -0.1029
     22 C20         1.1541    3.5243    0.0095 C.ar      1 <0>        -0.1191
     23 C21         1.1797    2.1448    0.0023 C.ar      1 <0>        -0.0932
     24 H1         -3.4111   -9.9459    5.9538 H         1 <0>         0.1357
     25 H2         -3.6233   -9.8960    3.5011 H         1 <0>         0.1355
     26 H3         -1.6999   -9.2368    2.1121 H         1 <0>         0.1296
     27 H4          0.6511   -8.6883    5.6280 H         1 <0>         0.1317
     28 H5         -1.2753   -9.3374    7.0174 H         1 <0>         0.1362
     29 H6          1.7030   -8.7934    3.4452 H         1 <0>         0.1381
     30 H7          0.7140   -9.0285    1.9642 H         1 <0>         0.1326
     31 H8          2.8482   -6.9346    2.7070 H         1 <0>         0.1344
     32 H9          2.0754   -7.0138    1.0874 H         1 <0>         0.1272
     33 H10         1.9242   -4.6533    3.0445 H         1 <0>         0.0910
     34 H11         2.9207   -4.7245    1.5516 H         1 <0>         0.1197
     35 H12         0.8763   -4.9437    0.1606 H         1 <0>         0.0971
     36 H13        -0.6041   -4.7235    2.8540 H         1 <0>         0.0931
     37 H14        -1.3610   -4.8446    1.2294 H         1 <0>         0.1099
     38 H15        -0.3287   -7.0821    0.9068 H         1 <0>         0.1264
     39 H16        -1.3380   -7.0536    2.3925 H         1 <0>         0.1317
     40 H17         0.2282   -2.7680    2.0741 H         1 <0>         0.3522
     41 H18         0.5530   -3.0045   -0.9175 H         1 <0>         0.1004
     42 H19        -0.9940   -3.0306   -0.0048 H         1 <0>         0.0606
     43 H20        -2.1634    1.5628    0.0207 H         1 <0>         0.1268
     44 H21        -2.1857    4.0223    0.0440 H         1 <0>         0.1311
     45 H22        -0.0696    5.2765    0.0302 H         1 <0>         0.1296
     46 H23         2.0799    4.0804    0.0036 H         1 <0>         0.1307
     47 H24         2.1241    1.6211   -0.0095 H         1 <0>         0.1254
     48 H25         0.6563   -6.5743    3.7038 H         1 <0>         0.4397
@<TRIPOS>BOND
     1    1    6 ar
     2    1    2 ar
     3    1   24 1
     4    2    3 ar
     5    2   25 1
     6    3    4 ar
     7    3   26 1
     8    4    5 ar
     9    4    7 1
    10    5    6 ar
    11    5   27 1
    12    6   28 1
    13    7    8 1
    14    7   29 1
    15    7   30 1
    16    8   13 1
    17    8    9 1
    18    8   48 1
    19    9   10 1
    20    9   31 1
    21    9   32 1
    22   10   11 1
    23   10   33 1
    24   10   34 1
    25   11   12 1
    26   11   14 1
    27   11   35 1
    28   12   13 1
    29   12   36 1
    30   12   37 1
    31   13   38 1
    32   13   39 1
    33   14   15 1
    34   14   40 1
    35   15   16 1
    36   15   41 1
    37   15   42 1
    38   16   17 3
    39   17   18 1
    40   18   23 ar
    41   18   19 ar
    42   19   20 ar
    43   19   43 1
    44   20   21 ar
    45   20   44 1
    46   21   22 ar
    47   21   45 1
    48   22   23 ar
    49   22   46 1
    50   23   47 1
@<TRIPOS>MOLECULE
ZINC10450796
   49    51     0     0     0
SMALL
USER_CHARGES
N-(1-benzyl-4-piperidyl)-3-phenyl-prop-2-enamide
@<TRIPOS>ATOM
      1 C1         -4.6524   -4.8307    5.0881 C.ar      1 <0>        -0.0837
      2 C2         -5.2476   -3.7292    4.5021 C.ar      1 <0>        -0.1134
      3 C3         -5.0134   -3.4439    3.1700 C.ar      1 <0>        -0.0967
      4 C4         -4.1844   -4.2603    2.4236 C.ar      1 <0>        -0.1638
      5 C5         -3.5937   -5.3651    3.0081 C.ar      1 <0>        -0.0944
      6 C6         -3.8234   -5.6471    4.3417 C.ar      1 <0>        -0.1135
      7 C7         -3.9295   -3.9496    0.9712 C.3       1 <0>         0.0490
      8 C8         -2.3354   -2.9364   -0.5430 C.3       1 <0>         0.0035
      9 C9         -1.0327   -2.1360   -0.6095 C.3       1 <0>        -0.1568
     10 C10        -1.2565   -0.7538    0.0100 C.3       1 <0>         0.1369
     11 C11        -1.7427   -0.9221    1.4522 C.3       1 <0>        -0.1599
     12 C12        -3.0248   -1.7577    1.4589 C.3       1 <0>        -0.0026
     13 N1          0.0021   -0.0041    0.0020 N.am      1 <0>        -0.7288
     14 C13        -0.0162    1.3436    0.0094 C.2       1 <0>         0.5579
     15 O1         -1.0783    1.9376    0.0177 O.2       1 <0>        -0.5377
     16 C14         1.2418    2.0929    0.0014 C.2       1 <0>        -0.2407
     17 C15         1.2235    3.4408    0.0089 C.2       1 <0>         0.0116
     18 C16         2.4882    4.1941    0.0008 C.ar      1 <0>        -0.0939
     19 C17         3.7106    3.5151   -0.0087 C.ar      1 <0>        -0.0968
     20 C18         4.8910    4.2278   -0.0220 C.ar      1 <0>        -0.1237
     21 C19         4.8680    5.6116   -0.0139 C.ar      1 <0>        -0.0983
     22 C20         3.6623    6.2909    0.0008 C.ar      1 <0>        -0.1218
     23 C21         2.4734    5.5924    0.0085 C.ar      1 <0>        -0.0884
     24 H1         -4.8347   -5.0531    6.1291 H         1 <0>         0.1359
     25 H2         -5.8953   -3.0913    5.0852 H         1 <0>         0.1363
     26 H3         -5.4784   -2.5833    2.7122 H         1 <0>         0.1314
     27 H4         -2.9495   -6.0054    2.4238 H         1 <0>         0.1310
     28 H5         -3.3581   -6.5075    4.7996 H         1 <0>         0.1361
     29 H6         -4.8012   -3.4505    0.5480 H         1 <0>         0.1375
     30 H7         -3.7424   -4.8763    0.4288 H         1 <0>         0.1360
     31 H8         -3.1097   -2.4177   -1.1082 H         1 <0>         0.1349
     32 H9         -2.1756   -3.9264   -0.9704 H         1 <0>         0.1350
     33 H10        -0.7275   -2.0235   -1.6498 H         1 <0>         0.1200
     34 H11        -0.2543   -2.6612   -0.0560 H         1 <0>         0.0941
     35 H12        -2.0064   -0.2129   -0.5674 H         1 <0>         0.1054
     36 H13        -0.9755   -1.4282    2.0381 H         1 <0>         0.0893
     37 H14        -1.9447    0.0577    1.8848 H         1 <0>         0.1163
     38 H15        -3.7958   -1.2444    0.8843 H         1 <0>         0.1333
     39 H16        -3.3657   -1.8915    2.4855 H         1 <0>         0.1321
     40 H17         0.8486   -0.4776   -0.0086 H         1 <0>         0.4072
     41 H18         2.1843    1.5657   -0.0104 H         1 <0>         0.1318
     42 H19         0.2810    3.9680    0.0207 H         1 <0>         0.1371
     43 H20         3.7301    2.4353   -0.0098 H         1 <0>         0.1260
     44 H21         5.8358    3.7049   -0.0339 H         1 <0>         0.1286
     45 H22         5.7959    6.1643   -0.0195 H         1 <0>         0.1286
     46 H23         3.6525    7.3708    0.0067 H         1 <0>         0.1304
     47 H24         1.5333    6.1238    0.0200 H         1 <0>         0.1299
     48 N2         -2.7364   -3.0837    0.8724 N.4       1 <0>        -0.3940
     49 H25        -1.9655   -3.5177    1.3935 H         1 <0>         0.4259
@<TRIPOS>BOND
     1    1    6 ar
     2    1    2 ar
     3    1   24 1
     4    2    3 ar
     5    2   25 1
     6    3    4 ar
     7    3   26 1
     8    4    5 ar
     9    4    7 1
    10    5    6 ar
    11    5   27 1
    12    6   28 1
    13    7   29 1
    14    7   30 1
    15    7   48 1
    16    8    9 1
    17    8   31 1
    18    8   32 1
    19    8   48 1
    20    9   10 1
    21    9   33 1
    22    9   34 1
    23   10   11 1
    24   10   13 1
    25   10   35 1
    26   11   12 1
    27   11   36 1
    28   11   37 1
    29   12   38 1
    30   12   39 1
    31   12   48 1
    32   13   14 am
    33   13   40 1
    34   14   15 2
    35   14   16 1
    36   16   17 2
    37   16   41 1
    38   17   18 1
    39   17   42 1
    40   18   23 ar
    41   18   19 ar
    42   19   20 ar
    43   19   43 1
    44   20   21 ar
    45   20   44 1
    46   21   22 ar
    47   21   45 1
    48   22   23 ar
    49   22   46 1
    50   23   47 1
    51   48   49 1
@<TRIPOS>MOLECULE
ZINC39949130
   51    54     0     0     0
SMALL
USER_CHARGES

@<TRIPOS>ATOM
      1 C1         -0.0187    1.5258    0.0104 C.3       1 <0>        -0.1560
      2 C2          0.0021   -0.0041    0.0020 C.3       1 <0>        -0.1304
      3 C3          0.7421   -0.5109    1.2415 C.3       1 <0>         0.1443
      4 H1          0.2852   -0.0874    2.1360 H         1 <0>         0.1076
      5 C4          0.6554   -2.0374    1.2986 C.3       1 <0>         0.0641
      6 O1          1.1482   -2.5885    0.0757 O.3       1 <0>        -0.5674
      7 N1          2.1476   -0.1038    1.1716 N.am      1 <0>        -0.6906
      8 C5          2.8685    0.0265    2.3029 C.2       1 <0>         0.5195
      9 O2          2.3536   -0.1931    3.3788 O.2       1 <0>        -0.5507
     10 C6          4.3144    0.4453    2.2310 C.3       1 <0>        -0.1069
     11 H2          4.3889    1.4250    1.7591 H         1 <0>         0.1544
     12 C7          4.9006    0.5082    3.6386 C.3       1 <0>         0.0074
     13 N2          5.0505   -0.8080    4.2477 N.4       1 <0>        -0.3696
     14 C8          4.5926   -1.9025    3.3886 C.3       1 <0>         0.0542
     15 H3          3.5120   -1.8181    3.2725 H         1 <0>         0.1590
     16 C9          4.9030   -3.2401    4.0694 C.3       1 <0>        -0.1074
     17 C10         4.7132   -4.3878    3.0801 C.3       1 <0>        -0.0885
     18 H4          3.6899   -4.4234    2.7062 H         1 <0>         0.1338
     19 C11         5.1694   -5.7408    3.5607 C.2       1 <0>         0.1486
     20 N3          6.1114   -6.1586    2.7637 N.2       1 <0>        -0.4515
     21 C12         6.4670   -5.2686    1.8099 C.ar      1 <0>         0.0653
     22 C13         5.6976   -4.1013    1.9780 C.ar      1 <0>        -0.1460
     23 C14         5.9309   -2.8659    1.3876 C.ar      1 <0>        -0.0368
     24 C15         6.8477   -2.8627    0.3477 C.ar      1 <0>        -0.0774
     25 C16         7.5179   -4.0343    0.0224 C.ar      1 <0>        -0.1110
     26 C17         7.3894   -5.2654    0.7532 C.ar      1 <0>        -0.0438
     27 C18         5.2323   -1.7615    2.0235 C.2       1 <0>        -0.0808
     28 C19         5.1011   -0.5724    1.4217 C.2       1 <0>        -0.1167
     29 C20         4.2814   -0.8381    5.4989 C.3       1 <0>        -0.0597
     30 H5          1.0039    1.9031    0.0027 H         1 <0>         0.0515
     31 H6         -0.5459    1.8868   -0.8726 H         1 <0>         0.0646
     32 H7         -0.5289    1.8773    0.9072 H         1 <0>         0.0569
     33 H8         -1.0205   -0.3814    0.0098 H         1 <0>         0.0846
     34 H9          0.5123   -0.3556   -0.8948 H         1 <0>         0.0810
     35 H10         1.2561   -2.4045    2.1308 H         1 <0>         0.0427
     36 H11        -0.3829   -2.3373    1.4399 H         1 <0>         0.0633
     37 H12         1.1231   -3.5546    0.0414 H         1 <0>         0.3844
     38 H13         2.5595    0.0718    0.3111 H         1 <0>         0.4112
     39 H14         5.8787    0.9869    3.5910 H         1 <0>         0.1416
     40 H15         4.2456    1.1132    4.2655 H         1 <0>         0.1469
     41 H16         5.9338   -3.2349    4.4237 H         1 <0>         0.0916
     42 H17         4.2319   -3.3787    4.9170 H         1 <0>         0.1070
     43 H18         4.7828   -6.2721    4.4178 H         1 <0>         0.2007
     44 H19         7.0390   -1.9553   -0.2057 H         1 <0>         0.1367
     45 H20         8.1946   -4.0160   -0.8191 H         1 <0>         0.1385
     46 H21         7.9442   -6.1538    0.4896 H         1 <0>         0.1507
     47 H22         5.5185   -0.3529    0.4501 H         1 <0>         0.1651
     48 H23         3.2300   -0.6472    5.2838 H         1 <0>         0.1431
     49 H24         4.3847   -1.8178    5.9654 H         1 <0>         0.1219
     50 H25         4.6587   -0.0717    6.1759 H         1 <0>         0.1266
     51 H26         6.0246   -0.9542    4.4662 H         1 <0>         0.4225
@<TRIPOS>BOND
     1    1    2 1
     2    1   30 1
     3    1   31 1
     4    1   32 1
     5    2    3 1
     6    2   33 1
     7    2   34 1
     8    3    4 1
     9    3    5 1
    10    3    7 1
    11    5    6 1
    12    5   35 1
    13    5   36 1
    14    6   37 1
    15    7    8 am
    16    7   38 1
    17    8    9 2
    18    8   10 1
    19   10   11 1
    20   10   28 1
    21   10   12 1
    22   12   13 1
    23   12   39 1
    24   12   40 1
    25   13   14 1
    26   13   29 1
    27   13   51 1
    28   14   15 1
    29   14   27 1
    30   14   16 1
    31   16   17 1
    32   16   41 1
    33   16   42 1
    34   17   18 1
    35   17   22 1
    36   17   19 1
    37   19   20 2
    38   19   43 1
    39   20   21 1
    40   21   26 ar
    41   21   22 ar
    42   22   23 ar
    43   23   24 ar
    44   23   27 1
    45   24   25 ar
    46   24   44 1
    47   25   26 ar
    48   25   45 1
    49   26   46 1
    50   27   28 2
    51   28   47 1
    52   29   48 1
    53   29   49 1
    54   29   50 1
@<TRIPOS>MOLECULE
ZINC39949130
   50    53     0     0     0
SMALL
USER_CHARGES

@<TRIPOS>ATOM
      1 C1         -0.0187    1.5258    0.0104 C.3       1 <0>        -0.1540
      2 C2          0.0021   -0.0041    0.0020 C.3       1 <0>        -0.1269
      3 C3          0.7182   -0.4975   -1.2568 C.3       1 <0>         0.1478
      4 H1          1.7103   -0.0491   -1.3098 H         1 <0>         0.1001
      5 C4          0.8493   -2.0210   -1.2049 C.3       1 <0>         0.0639
      6 O1         -0.4420   -2.6041   -1.0184 O.3       1 <0>        -0.5666
      7 N1         -0.0549   -0.1139   -2.4405 N.am      1 <0>        -0.7096
      8 C5          0.5610    0.0279   -3.6309 C.2       1 <0>         0.5250
      9 O2          1.7554   -0.1622   -3.7221 O.2       1 <0>        -0.5389
     10 C6         -0.2343    0.4225   -4.8486 C.3       1 <0>        -0.1008
     11 H2         -0.7046    1.3914   -4.6804 H         1 <0>         0.1135
     12 C7          0.6907    0.5050   -6.0606 C.3       1 <0>         0.0813
     13 N2          1.1691   -0.8076   -6.4843 N.3       1 <0>        -0.5382
     14 C8          0.6760   -1.9224   -5.6701 C.3       1 <0>         0.1200
     15 H3          1.1190   -1.8448   -4.6773 H         1 <0>         0.0726
     16 C9          1.1267   -3.2448   -6.2998 C.3       1 <0>        -0.0810
     17 C10         0.3919   -4.4119   -5.6441 C.3       1 <0>        -0.0974
     18 H4          0.5919   -4.4544   -4.5734 H         1 <0>         0.1217
     19 C11         0.5956   -5.7555   -6.2939 C.2       1 <0>         0.1484
     20 N3         -0.5633   -6.1897   -6.7008 N.2       1 <0>        -0.4654
     21 C12        -1.5800   -5.3184   -6.5122 C.ar      1 <0>         0.0614
     22 C13        -1.0627   -4.1470   -5.9268 C.ar      1 <0>        -0.1380
     23 C14        -1.7106   -2.9235   -5.8177 C.ar      1 <0>        -0.0160
     24 C15        -3.0728   -2.9417   -6.0754 C.ar      1 <0>        -0.0901
     25 C16        -3.6744   -4.1207   -6.4944 C.ar      1 <0>        -0.1180
     26 C17        -2.9594   -5.3370   -6.7661 C.ar      1 <0>        -0.0671
     27 C18        -0.8274   -1.8036   -5.5342 C.2       1 <0>        -0.0516
     28 C19        -1.3024   -0.6225   -5.1210 C.2       1 <0>        -0.1442
     29 C20         2.6352   -0.8298   -6.5745 C.3       1 <0>         0.0231
     30 H5          1.0039    1.9031    0.0027 H         1 <0>         0.0547
     31 H6         -0.5459    1.8868   -0.8726 H         1 <0>         0.0541
     32 H7         -0.5289    1.8773    0.9072 H         1 <0>         0.0588
     33 H8          0.5293   -0.3651    0.8851 H         1 <0>         0.0772
     34 H9         -1.0205   -0.3814    0.0098 H         1 <0>         0.0778
     35 H10         1.2788   -2.3807   -2.1399 H         1 <0>         0.0472
     36 H11         1.4980   -2.3018   -0.3753 H         1 <0>         0.0545
     37 H12        -0.4349   -3.5701   -0.9761 H         1 <0>         0.3792
     38 H13        -1.0102    0.0381   -2.3676 H         1 <0>         0.4041
     39 H14         0.1503    0.9675   -6.8865 H         1 <0>         0.0821
     40 H15         1.5482    1.1290   -5.8086 H         1 <0>         0.0674
     41 H16         0.9052   -3.2315   -7.3669 H         1 <0>         0.0795
     42 H17         2.2003   -3.3666   -6.1561 H         1 <0>         0.0779
     43 H18         1.5390   -6.2697   -6.4037 H         1 <0>         0.1936
     44 H19        -3.6617   -2.0450   -5.9514 H         1 <0>         0.1305
     45 H20        -4.7436   -4.1196   -6.6468 H         1 <0>         0.1288
     46 H21        -3.4539   -6.2312   -7.1156 H         1 <0>         0.1411
     47 H22        -2.3566   -0.4257   -4.9939 H         1 <0>         0.1371
     48 H23         3.0625   -0.6698   -5.5846 H         1 <0>         0.0466
     49 H24         2.9610   -1.7962   -6.9591 H         1 <0>         0.0662
     50 H25         2.9698   -0.0397   -7.2467 H         1 <0>         0.0666
@<TRIPOS>BOND
     1    1    2 1
     2    1   30 1
     3    1   31 1
     4    1   32 1
     5    2    3 1
     6    2   33 1
     7    2   34 1
     8    3    4 1
     9    3    5 1
    10    3    7 1
    11    5    6 1
    12    5   35 1
    13    5   36 1
    14    6   37 1
    15    7    8 am
    16    7   38 1
    17    8    9 2
    18    8   10 1
    19   10   11 1
    20   10   28 1
    21   10   12 1
    22   12   13 1
    23   12   39 1
    24   12   40 1
    25   13   14 1
    26   13   29 1
    27   14   15 1
    28   14   27 1
    29   14   16 1
    30   16   17 1
    31   16   41 1
    32   16   42 1
    33   17   18 1
    34   17   22 1
    35   17   19 1
    36   19   20 2
    37   19   43 1
    38   20   21 1
    39   21   26 ar
    40   21   22 ar
    41   22   23 ar
    42   23   24 ar
    43   23   27 1
    44   24   25 ar
    45   24   44 1
    46   25   26 ar
    47   25   45 1
    48   26   46 1
    49   27   28 2
    50   28   47 1
    51   29   48 1
    52   29   49 1
    53   29   50 1
@<TRIPOS>MOLECULE
ZINC00897457
   31    32     0     0     0
SMALL
USER_CHARGES
2-(1H-indol-3-yl)-N,N-dimethyl-ethanamine
@<TRIPOS>ATOM
      1 C1          0.0585    1.3230   -2.4006 C.3       1 <0>        -0.0423
      2 C2         -2.0591    0.9694   -1.2810 C.3       1 <0>        -0.0467
      3 C3         -0.0127    1.0858    0.0080 C.3       1 <0>        -0.0039
      4 C4         -0.7288    1.5792    1.2668 C.3       1 <0>        -0.0596
      5 C5          0.0000    1.0800    2.4877 C.2       1 <0>        -0.2054
      6 C6         -0.2888   -0.0242    3.1942 C.2       1 <0>         0.0841
      7 N1          0.5910   -0.1564    4.2338 N.pl3     1 <0>        -0.5882
      8 H1          0.5835   -0.8781    4.8819 H         1 <0>         0.4232
      9 C7          1.4851    0.8907    4.2264 C.ar      1 <0>         0.0942
     10 C8          1.1542    1.7112    3.1323 C.ar      1 <0>        -0.1011
     11 C9          1.9006    2.8621    2.8738 C.ar      1 <0>        -0.0845
     12 C10         2.9506    3.1863    3.6862 C.ar      1 <0>        -0.1324
     13 C11         3.2809    2.3806    4.7669 C.ar      1 <0>        -0.0932
     14 C12         2.5576    1.2400    5.0401 C.ar      1 <0>        -0.1218
     15 H2          0.2299    0.2520   -2.5094 H         1 <0>         0.1219
     16 H3         -0.4905    1.6929   -3.2665 H         1 <0>         0.1220
     17 H4          1.0161    1.8388   -2.3299 H         1 <0>         0.1210
     18 H5         -2.6409    1.2283   -0.3963 H         1 <0>         0.1223
     19 H6         -2.5631    1.3469   -2.1707 H         1 <0>         0.1217
     20 H7         -1.9644   -0.1143   -1.3492 H         1 <0>         0.1224
     21 H8          0.0021   -0.0041    0.0020 H         1 <0>         0.1298
     22 H9          1.0099    1.4631    0.0003 H         1 <0>         0.1289
     23 H10        -0.7436    2.6691    1.2728 H         1 <0>         0.0906
     24 H11        -1.7514    1.2020    1.2746 H         1 <0>         0.0903
     25 H12        -1.0951   -0.7081    2.9736 H         1 <0>         0.1726
     26 H13         1.6493    3.4939    2.0348 H         1 <0>         0.1179
     27 H14         3.5282    4.0766    3.4855 H         1 <0>         0.1273
     28 H15         4.1133    2.6501    5.4000 H         1 <0>         0.1318
     29 H16         2.8229    0.6192    5.8831 H         1 <0>         0.1257
     30 N2         -0.7265    1.6008   -1.1794 N.4       1 <0>        -0.3993
     31 H17        -0.8450    2.6161   -1.0829 H         1 <0>         0.4307
@<TRIPOS>BOND
     1    1   15 1
     2    1   16 1
     3    1   17 1
     4    1   30 1
     5    2   18 1
     6    2   19 1
     7    2   20 1
     8    2   30 1
     9    3    4 1
    10    3   21 1
    11    3   22 1
    12    3   30 1
    13    4    5 1
    14    4   23 1
    15    4   24 1
    16    5   10 1
    17    5    6 2
    18    6    7 1
    19    6   25 1
    20    7    8 1
    21    7    9 1
    22    9   14 ar
    23    9   10 ar
    24   10   11 ar
    25   11   12 ar
    26   11   26 1
    27   12   13 ar
    28   12   27 1
    29   13   14 ar
    30   13   28 1
    31   14   29 1
    32   30   31 1
@<TRIPOS>MOLECULE
ZINC02022527
   54    55     0     0     0
SMALL
USER_CHARGES

@<TRIPOS>ATOM
      1 C1         -3.0730    2.2881   -4.2693 C.3       1 <0>        -0.1569
      2 C2         -2.3049    1.5870   -3.1471 C.3       1 <0>        -0.1270
      3 C3         -2.8110    2.0874   -1.7927 C.3       1 <0>        -0.1231
      4 C4         -2.0429    1.3862   -0.6705 C.3       1 <0>        -0.1174
      5 C5         -2.5490    1.8867    0.6839 C.3       1 <0>        -0.1006
      6 C6         -2.2117    3.3722    0.8391 C.3       1 <0>        -0.1451
      7 C7         -2.6658    3.8518    2.2196 C.3       1 <0>        -0.0114
      8 C8         -2.3347    1.6429    3.1595 C.3       1 <0>        -0.0001
      9 C9         -1.8707    1.0973    1.8070 C.3       1 <0>        -0.1442
     10 C10        -2.2939    3.5901    4.5974 C.3       1 <0>        -0.0052
     11 C11        -2.1583    5.1140    4.5919 C.3       1 <0>        -0.1459
     12 C12        -2.4764    5.6593    5.9856 C.3       1 <0>        -0.1543
     13 C13        -2.3428    7.1604    5.9803 C.2       1 <0>         0.3987
     14 O1         -2.0245    7.7371    4.9623 O.2       1 <0>        -0.4456
     15 C14        -2.5986    7.9263    7.2106 C.ar      1 <0>        -0.1885
     16 C15        -3.0878    7.2813    8.3513 C.ar      1 <0>        -0.0705
     17 C16        -3.3195    8.0047    9.5018 C.ar      1 <0>        -0.1389
     18 C17        -3.0801    9.3679    9.5265 C.ar      1 <0>        -0.0729
     19 C18        -2.6016   10.0143    8.4004 C.ar      1 <0>        -0.1345
     20 C19        -2.3594    9.3036    7.2436 C.ar      1 <0>        -0.0178
     21 C20        -1.8387   10.0095    6.0182 C.3       1 <0>        -0.1264
     22 H1         -4.1363    2.0676   -4.1746 H         1 <0>         0.0549
     23 H2         -2.9175    3.3647   -4.1985 H         1 <0>         0.0540
     24 H3         -2.7125    1.9316   -5.2342 H         1 <0>         0.0581
     25 H4         -1.2417    1.8075   -3.2417 H         1 <0>         0.0621
     26 H5         -2.4605    0.5104   -3.2179 H         1 <0>         0.0631
     27 H6         -3.8743    1.8669   -1.6981 H         1 <0>         0.0644
     28 H7         -2.6555    3.1639   -1.7219 H         1 <0>         0.0632
     29 H8         -2.1984    0.3097   -0.7413 H         1 <0>         0.0733
     30 H9         -0.9796    1.6067   -0.7651 H         1 <0>         0.0688
     31 H10        -3.6287    1.7492    0.7427 H         1 <0>         0.0884
     32 H11        -1.1354    3.5132    0.7407 H         1 <0>         0.0881
     33 H12        -2.7264    3.9447    0.0675 H         1 <0>         0.1133
     34 H13        -3.7442    3.7233    2.3122 H         1 <0>         0.1295
     35 H14        -2.4142    4.9057    2.3388 H         1 <0>         0.1342
     36 H15        -3.4146    1.5248    3.2476 H         1 <0>         0.1293
     37 H16        -1.8426    1.0924    3.9613 H         1 <0>         0.1282
     38 H17        -2.1418    0.0446    1.7270 H         1 <0>         0.1118
     39 H18        -0.7890    1.2025    1.7239 H         1 <0>         0.0880
     40 H19        -3.3133    3.3170    4.8704 H         1 <0>         0.1315
     41 H20        -1.5979    3.1659    5.3211 H         1 <0>         0.1302
     42 H21        -1.1389    5.3871    4.3190 H         1 <0>         0.0944
     43 H22        -2.8542    5.5382    3.8682 H         1 <0>         0.0968
     44 H23        -3.4115    5.4088    6.2361 H         1 <0>         0.0981
     45 H24        -1.7805    5.2352    6.7093 H         1 <0>         0.1100
     46 H25        -3.2793    6.2186    8.3321 H         1 <0>         0.1290
     47 H26        -3.6933    7.5074   10.3846 H         1 <0>         0.1322
     48 H27        -3.2682    9.9300   10.4293 H         1 <0>         0.1326
     49 H28        -2.4176   11.0782    8.4274 H         1 <0>         0.1332
     50 H29        -2.6709   10.2515    5.3572 H         1 <0>         0.0784
     51 H30        -1.3321   10.9277    6.3156 H         1 <0>         0.0652
     52 H31        -1.1365    9.3600    5.4956 H         1 <0>         0.0893
     53 N1         -1.9588    3.0696    3.2558 N.4       1 <0>        -0.3931
     54 H32        -0.9467    3.1581    3.1071 H         1 <0>         0.4272
@<TRIPOS>BOND
     1    1    2 1
     2    1   22 1
     3    1   23 1
     4    1   24 1
     5    2    3 1
     6    2   25 1
     7    2   26 1
     8    3    4 1
     9    3   27 1
    10    3   28 1
    11    4    5 1
    12    4   29 1
    13    4   30 1
    14    5    9 1
    15    5    6 1
    16    5   31 1
    17    6    7 1
    18    6   32 1
    19    6   33 1
    20    7   34 1
    21    7   35 1
    22    7   53 1
    23    8    9 1
    24    8   36 1
    25    8   37 1
    26    8   53 1
    27    9   38 1
    28    9   39 1
    29   10   11 1
    30   10   40 1
    31   10   41 1
    32   10   53 1
    33   11   12 1
    34   11   42 1
    35   11   43 1
    36   12   13 1
    37   12   44 1
    38   12   45 1
    39   13   14 2
    40   13   15 1
    41   15   20 ar
    42   15   16 ar
    43   16   17 ar
    44   16   46 1
    45   17   18 ar
    46   17   47 1
    47   18   19 ar
    48   18   48 1
    49   19   20 ar
    50   19   49 1
    51   20   21 1
    52   21   50 1
    53   21   51 1
    54   21   52 1
    55   53   54 1
@<TRIPOS>MOLECULE
ZINC20269183
   26    27     0     0     0
SMALL
USER_CHARGES
(5-methoxy-1H-indol-3-yl)methanamine
@<TRIPOS>ATOM
      1 C1         -0.0623   -2.7062   -0.0110 C.3       1 <0>         0.0203
      2 O1          1.2106   -2.0569   -0.0196 O.3       1 <0>        -0.3158
      3 C2          1.2100   -0.6970   -0.0128 C.ar      1 <0>         0.1280
      4 C3          0.0021   -0.0041    0.0020 C.ar      1 <0>        -0.1752
      5 C4         -0.0166    1.3726    0.0096 C.ar      1 <0>        -0.0723
      6 C5          1.1785    2.0843    0.0020 C.ar      1 <0>         0.0505
      7 C6          2.3999    1.3876   -0.0130 C.ar      1 <0>        -0.0578
      8 C7          2.4068   -0.0091   -0.0201 C.ar      1 <0>        -0.1419
      9 C8          3.4496    2.4094   -0.0168 C.2       1 <0>        -0.2813
     10 C9          2.8359    3.6033   -0.0050 C.2       1 <0>         0.1410
     11 N1          1.4789    3.4302    0.0061 N.pl3     1 <0>        -0.5901
     12 H1          0.6690    4.1745    0.0170 H         1 <0>         0.4583
     13 C10         4.9368    2.1664   -0.0308 C.3       1 <0>         0.0937
     14 N2          5.3695    1.8570   -1.4001 N.4       1 <0>        -0.6865
     15 H2          0.0823   -3.7966   -0.0178 H         1 <0>         0.1085
     16 H3         -0.6329   -2.4064   -0.9024 H         1 <0>         0.0601
     17 H4         -0.6161   -2.4154    0.8938 H         1 <0>         0.0606
     18 H5         -0.9288   -0.5517    0.0080 H         1 <0>         0.1402
     19 H6         -0.9591    1.8999    0.0169 H         1 <0>         0.1325
     20 H7          3.3429   -0.5476   -0.0316 H         1 <0>         0.1286
     21 H8          3.3389    4.5590   -0.0043 H         1 <0>         0.1791
     22 H9          5.4589    3.0673    0.3240 H         1 <0>         0.1301
     23 H10         5.1763    1.3199    0.6295 H         1 <0>         0.1298
     24 H11         6.4551    1.6796   -1.4103 H         1 <0>         0.4541
     25 H12         5.1300    2.7036   -2.0604 H         1 <0>         0.4515
     26 H13         4.8474    0.9561   -1.7549 H         1 <0>         0.4542
@<TRIPOS>BOND
     1    1    2 1
     2    1   15 1
     3    1   16 1
     4    1   17 1
     5    2    3 1
     6    3    8 ar
     7    3    4 ar
     8    4    5 ar
     9    4   18 1
    10    5    6 ar
    11    5   19 1
    12    6   11 1
    13    6    7 ar
    14    7    8 ar
    15    7    9 1
    16    8   20 1
    17    9   10 2
    18    9   13 1
    19   10   11 1
    20   10   21 1
    21   11   12 1
    22   13   14 1
    23   13   22 1
    24   13   23 1
    25   14   24 1
    26   14   25 1
    27   14   26 1
@<TRIPOS>MOLECULE
ZINC03820936
   49    53     0     0     0
SMALL
USER_CHARGES
3-(1-naphthylsulfonyl)-5-piperazin-1-yl-1H-indazole
@<TRIPOS>ATOM
      1 C1          5.9965    0.8739   -4.4161 C.ar      1 <0>        -0.1193
      2 C2          5.9834    1.3070   -3.0914 C.ar      1 <0>        -0.0775
      3 C3          5.1017    0.7890   -2.1934 C.ar      1 <0>        -0.1462
      4 C4          4.1889   -0.1974   -2.6048 C.ar      1 <0>         0.0279
      5 C5          4.2021   -0.6376   -3.9521 C.ar      1 <0>        -0.0744
      6 C6          5.1278   -0.0794   -4.8504 C.ar      1 <0>        -0.0906
      7 C7          3.2901   -1.6241   -4.3634 C.ar      1 <0>        -0.0295
      8 C8          2.4084   -2.1426   -3.4652 C.ar      1 <0>        -0.1526
      9 C9          2.3999   -1.7147   -2.1393 C.ar      1 <0>         0.0161
     10 C10         3.2644   -0.7564   -1.7065 C.ar      1 <0>        -0.6561
     11 S1          3.2291   -0.2250   -0.0269 S.o2      1 <0>         2.6121
     12 O1          4.5709   -0.2631    0.4394 O.2       1 <0>        -0.9054
     13 O2          2.1819   -0.9477    0.6058 O.2       1 <0>        -0.9223
     14 C11         2.7437    1.4688   -0.0265 C.2       1 <0>        -0.4566
     15 C12         1.3740    1.9706   -0.0686 C.ar      1 <0>        -0.0927
     16 C13         0.1165    1.3578   -0.1181 C.ar      1 <0>        -0.0593
     17 C14        -1.0196    2.1410   -0.1538 C.ar      1 <0>         0.0632
     18 C15        -0.9172    3.5326   -0.1301 C.ar      1 <0>        -0.1119
     19 C16         0.3033    4.1418   -0.0819 C.ar      1 <0>        -0.0966
     20 C17         1.4657    3.3752   -0.0504 C.ar      1 <0>         0.1150
     21 N1          2.8026    3.6824   -0.0007 N.pl3     1 <0>        -0.4783
     22 H1          3.1853    4.6060    0.0225 H         1 <0>         0.4591
     23 N2          3.5435    2.4962    0.0123 N.2       1 <0>        -0.1040
     24 N3         -2.2806    1.5366   -0.2092 N.pl3     1 <0>        -0.4821
     25 C18        -2.4696    0.6086    0.9145 C.3       1 <0>         0.0176
     26 C19        -3.8246   -0.0891    0.7741 C.3       1 <0>         0.0007
     27 C20        -4.7028    1.8487   -0.3802 C.3       1 <0>         0.0015
     28 C21        -3.3478    2.5464   -0.2398 C.3       1 <0>         0.0175
     29 H2          6.7071    1.3010   -5.1083 H         1 <0>         0.1327
     30 H3          6.6837    2.0649   -2.7726 H         1 <0>         0.1333
     31 H4          5.1031    1.1344   -1.1701 H         1 <0>         0.1392
     32 H5          5.1498   -0.4054   -5.8797 H         1 <0>         0.1358
     33 H6          3.2884   -1.9689   -5.3869 H         1 <0>         0.1407
     34 H7          1.7084   -2.9008   -3.7840 H         1 <0>         0.1397
     35 H8          1.6932   -2.1459   -1.4457 H         1 <0>         0.1478
     36 H9          0.0360    0.2809   -0.1328 H         1 <0>         0.1485
     37 H10        -1.8136    4.1344   -0.1539 H         1 <0>         0.1402
     38 H11         0.3678    5.2198   -0.0685 H         1 <0>         0.1407
     39 H12        -1.6744   -0.1368    0.9083 H         1 <0>         0.1332
     40 H13        -2.4415    1.1630    1.8526 H         1 <0>         0.0719
     41 H14        -3.9796   -0.7564    1.6218 H         1 <0>         0.1426
     42 H15        -3.8427   -0.6655   -0.1509 H         1 <0>         0.1418
     43 H16        -5.4980    2.5941   -0.3740 H         1 <0>         0.1411
     44 H17        -4.7310    1.2947   -1.3185 H         1 <0>         0.1410
     45 H18        -3.3297    3.1228    0.6851 H         1 <0>         0.0724
     46 H19        -3.1926    3.2140   -1.0874 H         1 <0>         0.1298
     47 N4         -4.8993    0.9212    0.7500 N.4       1 <0>        -0.5194
     48 H20        -4.8863    1.4509    1.6294 H         1 <0>         0.4314
     49 H21        -5.8056    0.4496    0.6479 H         1 <0>         0.4403
@<TRIPOS>BOND
     1    1    6 ar
     2    1    2 ar
     3    1   29 1
     4    2    3 ar
     5    2   30 1
     6    3    4 ar
     7    3   31 1
     8    4   10 ar
     9    4    5 ar
    10    5    6 ar
    11    5    7 ar
    12    6   32 1
    13    7    8 ar
    14    7   33 1
    15    8    9 ar
    16    8   34 1
    17    9   10 ar
    18    9   35 1
    19   10   11 1
    20   11   12 2
    21   11   13 2
    22   11   14 1
    23   14   23 2
    24   14   15 1
    25   15   20 ar
    26   15   16 ar
    27   16   17 ar
    28   16   36 1
    29   17   18 ar
    30   17   24 1
    31   18   19 ar
    32   18   37 1
    33   19   20 ar
    34   19   38 1
    35   20   21 1
    36   21   22 1
    37   21   23 1
    38   24   28 1
    39   24   25 1
    40   25   26 1
    41   25   39 1
    42   25   40 1
    43   26   41 1
    44   26   42 1
    45   26   47 1
    46   27   28 1
    47   27   43 1
    48   27   44 1
    49   27   47 1
    50   28   45 1
    51   28   46 1
    52   47   48 1
    53   47   49 1
@<TRIPOS>MOLECULE
ZINC02516053
   32    32     0     0     0
SMALL
USER_CHARGES

@<TRIPOS>ATOM
      1 C1         -0.0187    1.5258    0.0104 C.3       1 <0>        -0.1837
      2 C2          0.0021   -0.0041    0.0020 C.3       1 <0>         0.0344
      3 H1          0.5293   -0.3651    0.8851 H         1 <0>         0.1407
      4 C3          0.7182   -0.4975   -1.2568 C.3       1 <0>        -0.0944
      5 C4          0.8473   -1.9981   -1.2057 C.ar      1 <0>        -0.0941
      6 C5          2.0025   -2.5757   -0.7149 C.ar      1 <0>        -0.1590
      7 C6          2.1215   -3.9563   -0.6678 C.ar      1 <0>         0.1458
      8 C7          1.0802   -4.7580   -1.1137 C.ar      1 <0>        -0.0982
      9 C8         -0.0748   -4.1803   -1.6044 C.ar      1 <0>        -0.1178
     10 C9         -0.1957   -2.7990   -1.6460 C.ar      1 <0>         0.0662
     11 O1         -1.3349   -2.2303   -2.1234 O.3       1 <0>        -0.3399
     12 C10        -2.3683   -3.1155   -2.5599 C.3       1 <0>         0.0160
     13 I1          1.2600   -6.8441   -1.0433 I         1 <0>         0.0067
     14 O2          3.2588   -4.5247   -0.1852 O.3       1 <0>        -0.2969
     15 C11         4.2899   -3.6392    0.2560 C.3       1 <0>         0.0216
     16 N1         -1.3761   -0.5125    0.0124 N.4       1 <0>        -0.6338
     17 H2          1.0039    1.9031    0.0027 H         1 <0>         0.1075
     18 H3         -0.5459    1.8868   -0.8726 H         1 <0>         0.0843
     19 H4         -0.5289    1.8773    0.9072 H         1 <0>         0.0848
     20 H5          0.1430   -0.2121   -2.1375 H         1 <0>         0.1074
     21 H6          1.7103   -0.0491   -1.3098 H         1 <0>         0.1218
     22 H7          2.8130   -1.9517   -0.3683 H         1 <0>         0.1510
     23 H8         -0.8853   -4.8040   -1.9514 H         1 <0>         0.1495
     24 H9         -2.6820   -3.7459   -1.7280 H         1 <0>         0.0642
     25 H10        -3.2186   -2.5338   -2.9159 H         1 <0>         0.1133
     26 H11        -1.9924   -3.7419   -3.3689 H         1 <0>         0.0693
     27 H12         4.6073   -3.0087   -0.5745 H         1 <0>         0.0621
     28 H13         3.9101   -3.0129    1.0633 H         1 <0>         0.0598
     29 H14         5.1387   -4.2206    0.6159 H         1 <0>         0.1128
     30 H15        -1.8641   -0.1783   -0.8050 H         1 <0>         0.4349
     31 H16        -1.3624   -1.5214    0.0069 H         1 <0>         0.4309
     32 H17        -1.8484   -0.1871    0.8426 H         1 <0>         0.4329
@<TRIPOS>BOND
     1    1    2 1
     2    1   17 1
     3    1   18 1
     4    1   19 1
     5    2    3 1
     6    2    4 1
     7    2   16 1
     8    4    5 1
     9    4   20 1
    10    4   21 1
    11    5   10 ar
    12    5    6 ar
    13    6    7 ar
    14    6   22 1
    15    7    8 ar
    16    7   14 1
    17    8    9 ar
    18    8   13 1
    19    9   10 ar
    20    9   23 1
    21   10   11 1
    22   11   12 1
    23   12   24 1
    24   12   25 1
    25   12   26 1
    26   14   15 1
    27   15   27 1
    28   15   28 1
    29   15   29 1
    30   16   30 1
    31   16   31 1
    32   16   32 1
@<TRIPOS>MOLECULE
ZINC27558640
   28    29     0     0     0
SMALL
USER_CHARGES
(2R)-2-(1H-indol-3-yl)propan-1-amine
@<TRIPOS>ATOM
      1 C1         -4.3954    4.4790    1.3196 C.3       1 <0>        -0.1646
      2 C2         -3.7779    3.8677    0.0602 C.3       1 <0>        -0.0298
      3 H1         -3.9382    2.7795    0.0553 H         1 <0>         0.0972
      4 C3         -4.4212    4.4938   -1.1787 C.3       1 <0>         0.0022
      5 N1         -5.8439    4.1310   -1.2281 N.4       1 <0>        -0.6880
      6 C4         -2.2952    4.1365    0.0465 C.2       1 <0>        -0.2026
      7 C5         -1.7019    5.3406    0.0471 C.2       1 <0>         0.0692
      8 N2         -0.3419    5.1907    0.0328 N.pl3     1 <0>        -0.6003
      9 H2          0.3092    6.0773    0.0310 H         1 <0>         0.4503
     10 C6         -0.0185    3.8524    0.0225 C.ar      1 <0>         0.1067
     11 C7         -1.2278    3.1332    0.0306 C.ar      1 <0>        -0.1016
     12 C8         -1.2083    1.7375    0.0173 C.ar      1 <0>        -0.0823
     13 C9         -0.0126    1.0758    0.0080 C.ar      1 <0>        -0.1347
     14 C10         1.1831    1.7806    0.0003 C.ar      1 <0>        -0.0934
     15 C11         1.1868    3.1584    0.0072 C.ar      1 <0>        -0.1247
     16 H3         -3.9329    4.0288    2.2103 H         1 <0>         0.0827
     17 H4         -5.4777    4.2828    1.3296 H         1 <0>         0.0530
     18 H5         -4.2195    5.5648    1.3242 H         1 <0>         0.0700
     19 H6         -4.3234    5.5883   -1.1291 H         1 <0>         0.1264
     20 H7         -3.9162    4.1211   -2.0821 H         1 <0>         0.1301
     21 H8         -6.3064    4.5812   -2.1189 H         1 <0>         0.4585
     22 H9         -6.3489    4.5037   -0.3247 H         1 <0>         0.4521
     23 H10        -2.2212    6.2875    0.0573 H         1 <0>         0.1669
     24 H11        -2.1348    1.1825    0.0187 H         1 <0>         0.1184
     25 H12         0.0021   -0.0041    0.0020 H         1 <0>         0.1269
     26 H13         2.1200    1.2436   -0.0115 H         1 <0>         0.1310
     27 H14         2.1224    3.6978    0.0005 H         1 <0>         0.1247
     28 H15        -5.9417    3.0365   -1.2777 H         1 <0>         0.4557
@<TRIPOS>BOND
     1    1    2 1
     2    1   16 1
     3    1   17 1
     4    1   18 1
     5    2    3 1
     6    2    4 1
     7    2    6 1
     8    4    5 1
     9    4   19 1
    10    4   20 1
    11    5   21 1
    12    5   22 1
    13    5   28 1
    14    6   11 1
    15    6    7 2
    16    7    8 1
    17    7   23 1
    18    8    9 1
    19    8   10 1
    20   10   15 ar
    21   10   11 ar
    22   11   12 ar
    23   12   13 ar
    24   12   24 1
    25   13   14 ar
    26   13   25 1
    27   14   15 ar
    28   14   26 1
    29   15   27 1
@<TRIPOS>MOLECULE
ZINC27558642
   28    29     0     0     0
SMALL
USER_CHARGES
(2S)-2-(1H-indol-3-yl)propan-1-amine
@<TRIPOS>ATOM
      1 C1         -3.1279   -1.4517    1.2734 C.3       1 <0>        -0.1646
      2 C2         -2.5268   -0.8090    0.0218 C.3       1 <0>        -0.0298
      3 H1         -2.7173    0.2744    0.0294 H         1 <0>         0.0972
      4 C3         -3.1517   -1.4383   -1.2249 C.3       1 <0>         0.0022
      5 N1         -4.5838   -1.1144   -1.2714 N.4       1 <0>        -0.6879
      6 C4         -1.0371   -1.0366    0.0064 C.2       1 <0>        -0.2025
      7 C5         -0.4108   -2.2238   -0.0060 C.2       1 <0>         0.0692
      8 N2          0.9446   -2.0362   -0.0179 N.pl3     1 <0>        -0.6004
      9 H2          1.6199   -2.9044   -0.0290 H         1 <0>         0.4503
     10 C6          1.2308   -0.6894   -0.0134 C.ar      1 <0>         0.1068
     11 C7          0.0021   -0.0041    0.0020 C.ar      1 <0>        -0.1016
     12 C8         -0.0169    1.3917    0.0097 C.ar      1 <0>        -0.0822
     13 C9          1.1601    2.0862    0.0022 C.ar      1 <0>        -0.1347
     14 C10         2.3747    1.4149   -0.0130 C.ar      1 <0>        -0.0933
     15 C11         2.4165    0.0376   -0.0208 C.ar      1 <0>        -0.1247
     16 H3         -2.6786   -0.9992    2.1697 H         1 <0>         0.0827
     17 H4         -2.9220   -2.5322    1.2656 H         1 <0>         0.0700
     18 H5         -4.2152   -1.2857    1.2846 H         1 <0>         0.0530
     19 H6         -2.6566   -1.0413   -2.1234 H         1 <0>         0.1301
     20 H7         -3.0237   -2.5302   -1.1879 H         1 <0>         0.1264
     21 H8         -5.0331   -1.5668   -2.1677 H         1 <0>         0.4584
     22 H9         -4.7117   -0.0225   -1.3084 H         1 <0>         0.4558
     23 H10        -0.9037   -3.1847   -0.0067 H         1 <0>         0.1669
     24 H11        -0.9583    1.9209    0.0170 H         1 <0>         0.1184
     25 H12         1.1449    3.1661    0.0078 H         1 <0>         0.1269
     26 H13         3.2965    1.9776   -0.0192 H         1 <0>         0.1310
     27 H14         3.3667   -0.4756   -0.0330 H         1 <0>         0.1247
     28 H15        -5.0788   -1.5113   -0.3729 H         1 <0>         0.4521
@<TRIPOS>BOND
     1    1    2 1
     2    1   16 1
     3    1   17 1
     4    1   18 1
     5    2    3 1
     6    2    4 1
     7    2    6 1
     8    4    5 1
     9    4   19 1
    10    4   20 1
    11    5   21 1
    12    5   22 1
    13    5   28 1
    14    6   11 1
    15    6    7 2
    16    7    8 1
    17    7   23 1
    18    8    9 1
    19    8   10 1
    20   10   15 ar
    21   10   11 ar
    22   11   12 ar
    23   12   13 ar
    24   12   24 1
    25   13   14 ar
    26   13   25 1
    27   14   15 ar
    28   14   26 1
    29   15   27 1
@<TRIPOS>MOLECULE
ZINC13782372
   30    32     0     0     0
SMALL
USER_CHARGES
(2R)-1-(4-bromofuro[2,3-f]benzofuran-8-yl)propan-2-amine
@<TRIPOS>ATOM
      1 C1         -4.8886    4.4524   -1.3685 C.3       1 <0>        -0.1807
      2 C2         -3.3605    4.5273   -1.3817 C.3       1 <0>         0.0364
      3 H1         -2.9597    3.6747   -1.9300 H         1 <0>         0.1424
      4 C3         -2.8362    4.5016    0.0554 C.3       1 <0>        -0.0974
      5 C4         -1.3301    4.4514    0.0398 C.ar      1 <0>        -0.0651
      6 C5         -0.6713    3.2249    0.0258 C.ar      1 <0>        -0.0776
      7 C6         -1.1218    1.8267    0.0168 C.2       1 <0>        -0.2267
      8 C7         -0.0126    1.0758    0.0080 C.2       1 <0>         0.0558
      9 O1          1.0801    1.8597    0.0017 O.3       1 <0>        -0.1778
     10 C8          0.7355    3.1650    0.0121 C.ar      1 <0>         0.0740
     11 C9          1.4707    4.3380    0.0120 C.ar      1 <0>        -0.0299
     12 C10         0.8116    5.5643    0.0256 C.ar      1 <0>        -0.0761
     13 C11        -0.5957    5.6236    0.0394 C.ar      1 <0>         0.0293
     14 O2         -0.9406    6.9287    0.0504 O.3       1 <0>        -0.2084
     15 C12         0.1519    7.7130    0.0447 C.2       1 <0>         0.0277
     16 C13         1.2614    6.9627    0.0296 C.2       1 <0>        -0.1913
     17 Br1         3.3606    4.2750   -0.0057 Br        1 <0>         0.0007
     18 H2         -5.2622    4.4707   -2.3923 H         1 <0>         0.0857
     19 H3         -5.2029    3.5283   -0.8835 H         1 <0>         0.1089
     20 H4         -5.2894    5.3050   -0.8202 H         1 <0>         0.0842
     21 H5         -3.2238    3.6211    0.5679 H         1 <0>         0.1276
     22 H6         -3.1643    5.4001    0.5780 H         1 <0>         0.1052
     23 H7         -2.1428    1.4747    0.0186 H         1 <0>         0.1705
     24 H8          0.0021   -0.0041    0.0020 H         1 <0>         0.2226
     25 H9          0.1368    8.7929    0.0509 H         1 <0>         0.2244
     26 H10         2.2822    7.3153    0.0226 H         1 <0>         0.1732
     27 H11        -3.2711    5.8137   -2.9865 H         1 <0>         0.4385
     28 H12        -3.2416    6.5786   -1.5100 H         1 <0>         0.4361
     29 N1         -2.9118    5.7699   -2.0344 N.4       1 <0>        -0.6467
     30 H13        -1.8855    5.7847   -2.0626 H         1 <0>         0.4344
@<TRIPOS>BOND
     1    1    2 1
     2    1   18 1
     3    1   19 1
     4    1   20 1
     5    2    3 1
     6    2    4 1
     7    2   29 1
     8    4    5 1
     9    4   21 1
    10    4   22 1
    11    5   13 ar
    12    5    6 ar
    13    6   10 ar
    14    6    7 1
    15    7    8 2
    16    7   23 1
    17    8    9 1
    18    8   24 1
    19    9   10 1
    20   10   11 ar
    21   11   12 ar
    22   11   17 1
    23   12   16 1
    24   12   13 ar
    25   13   14 1
    26   14   15 1
    27   15   16 2
    28   15   25 1
    29   16   26 1
    30   27   29 1
    31   28   29 1
    32   29   30 1
@<TRIPOS>MOLECULE
ZINC02035314
   32    33     0     0     0
SMALL
USER_CHARGES
2-(5-methoxy-1H-indol-3-yl)propan-1-amine
@<TRIPOS>ATOM
      1 C1         -2.7832    0.4786    1.2659 C.3       1 <0>        -0.1663
      2 C2         -2.5448    1.3341    0.0200 C.3       1 <0>        -0.0301
      3 H1         -3.2268    2.1844    0.0271 H         1 <0>         0.1001
      4 C3         -2.7934    0.4914   -1.2325 C.3       1 <0>        -0.0013
      5 C4         -1.1222    1.8313    0.0168 C.2       1 <0>        -0.2037
      6 C5         -0.0126    1.0758    0.0080 C.2       1 <0>         0.0871
      7 N1          1.0969    1.8762    0.0017 N.pl3     1 <0>        -0.5858
      8 H2          2.0133    1.5585   -0.0091 H         1 <0>         0.4230
      9 C6          0.7179    3.2021    0.0124 C.ar      1 <0>         0.0616
     10 C7         -0.6883    3.2305    0.0260 C.ar      1 <0>        -0.0569
     11 C8         -1.3616    4.4537    0.0388 C.ar      1 <0>        -0.1264
     12 C9         -0.6388    5.6303    0.0375 C.ar      1 <0>         0.1169
     13 C10         0.7530    5.5988    0.0236 C.ar      1 <0>        -0.1739
     14 C11         1.4274    4.3980    0.0114 C.ar      1 <0>        -0.0804
     15 O1         -1.2891    6.8245    0.0504 O.3       1 <0>        -0.3176
     16 C12        -0.4811    8.0032    0.0487 C.3       1 <0>         0.0251
     17 H3         -3.8122    0.1190    1.2683 H         1 <0>         0.0532
     18 H4         -2.1012   -0.3716    1.2588 H         1 <0>         0.0708
     19 H5         -2.6061    1.0790    2.1582 H         1 <0>         0.0843
     20 H6         -2.5383    1.0731   -2.1183 H         1 <0>         0.1376
     21 H7         -2.1745   -0.4051   -1.1960 H         1 <0>         0.1304
     22 H8         -4.8070    0.9194   -1.2603 H         1 <0>         0.4375
     23 H9         -4.3998   -0.4512   -2.1097 H         1 <0>         0.4395
     24 H10         0.0021   -0.0041    0.0020 H         1 <0>         0.1706
     25 H11        -2.4412    4.4794    0.0499 H         1 <0>         0.1284
     26 H12         1.3090    6.5247    0.0228 H         1 <0>         0.1378
     27 H13         2.5073    4.3852    0.0014 H         1 <0>         0.1296
     28 H14         0.1569    8.0076    0.9325 H         1 <0>         0.0580
     29 H15         0.1393    8.0172   -0.8473 H         1 <0>         0.0576
     30 H16        -1.1233    8.8839    0.0598 H         1 <0>         0.1045
     31 N2         -4.2116    0.0929   -1.2693 N.4       1 <0>        -0.6481
     32 H17        -4.4225   -0.4809   -0.4445 H         1 <0>         0.4365
@<TRIPOS>BOND
     1    1    2 1
     2    1   17 1
     3    1   18 1
     4    1   19 1
     5    2    3 1
     6    2    4 1
     7    2    5 1
     8    4   20 1
     9    4   21 1
    10    4   31 1
    11    5   10 1
    12    5    6 2
    13    6    7 1
    14    6   24 1
    15    7    8 1
    16    7    9 1
    17    9   14 ar
    18    9   10 ar
    19   10   11 ar
    20   11   12 ar
    21   11   25 1
    22   12   13 ar
    23   12   15 1
    24   13   14 ar
    25   13   26 1
    26   14   27 1
    27   15   16 1
    28   16   28 1
    29   16   29 1
    30   16   30 1
    31   22   31 1
    32   23   31 1
    33   31   32 1
@<TRIPOS>MOLECULE
ZINC05735105
   32    33     0     0     0
SMALL
USER_CHARGES
2-(5-methoxy-1H-indol-3-yl)propan-1-amine
@<TRIPOS>ATOM
      1 C1          1.5442    5.5403   -1.2331 C.3       1 <0>        -0.1663
      2 C2          1.7913    4.6826    0.0095 C.3       1 <0>        -0.0300
      3 H1          2.8168    4.3133   -0.0020 H         1 <0>         0.1001
      4 C3          1.5676    5.5276    1.2652 C.3       1 <0>        -0.0014
      5 C4          0.8373    3.5160    0.0125 C.2       1 <0>        -0.2036
      6 C5         -0.5034    3.5813    0.0254 C.2       1 <0>         0.0870
      7 N1         -1.0321    2.3195    0.0188 N.pl3     1 <0>        -0.5857
      8 H2         -1.9797    2.1122    0.0215 H         1 <0>         0.4230
      9 C6         -0.0168    1.3864    0.0097 C.ar      1 <0>         0.0617
     10 C7          1.1975    2.0961    0.0019 C.ar      1 <0>        -0.0570
     11 C8          2.4103    1.4041   -0.0135 C.ar      1 <0>        -0.1264
     12 C9          2.4077    0.0233   -0.0209 C.ar      1 <0>         0.1169
     13 C10         1.2040   -0.6763   -0.0131 C.ar      1 <0>        -0.1739
     14 C11         0.0021   -0.0041    0.0020 C.ar      1 <0>        -0.0804
     15 O1          3.5857   -0.6560   -0.0354 O.3       1 <0>        -0.3176
     16 C12         3.5116   -2.0831   -0.0419 C.3       1 <0>         0.0251
     17 H3          1.7036    4.9383   -2.1277 H         1 <0>         0.0843
     18 H4          0.5187    5.9096   -1.2216 H         1 <0>         0.0708
     19 H5          2.2342    6.3841   -1.2353 H         1 <0>         0.0533
     20 H6          0.5717    5.9694    1.2332 H         1 <0>         0.1304
     21 H7          1.6564    4.8957    2.1490 H         1 <0>         0.1376
     22 H8          2.4487    7.1675    2.1443 H         1 <0>         0.4395
     23 H9          3.5086    6.2133    1.2887 H         1 <0>         0.4375
     24 H10        -1.0795    4.4947    0.0354 H         1 <0>         0.1706
     25 H11         3.3447    1.9456   -0.0191 H         1 <0>         0.1284
     26 H12         1.2129   -1.7562   -0.0193 H         1 <0>         0.1378
     27 H13        -0.9258   -0.5568    0.0083 H         1 <0>         0.1296
     28 H14         2.9880   -2.4238    0.8514 H         1 <0>         0.0576
     29 H15         2.9713   -2.4148   -0.9285 H         1 <0>         0.0580
     30 H16         4.5190   -2.4991   -0.0534 H         1 <0>         0.1045
     31 N2          2.5694    6.6076    1.3019 N.4       1 <0>        -0.6481
     32 H17         2.4471    7.2095    0.4792 H         1 <0>         0.4365
@<TRIPOS>BOND
     1    1    2 1
     2    1   17 1
     3    1   18 1
     4    1   19 1
     5    2    3 1
     6    2    4 1
     7    2    5 1
     8    4   20 1
     9    4   21 1
    10    4   31 1
    11    5   10 1
    12    5    6 2
    13    6    7 1
    14    6   24 1
    15    7    8 1
    16    7    9 1
    17    9   14 ar
    18    9   10 ar
    19   10   11 ar
    20   11   12 ar
    21   11   25 1
    22   12   13 ar
    23   12   15 1
    24   13   14 ar
    25   13   26 1
    26   14   27 1
    27   15   16 1
    28   16   28 1
    29   16   29 1
    30   16   30 1
    31   22   31 1
    32   23   31 1
    33   31   32 1
@<TRIPOS>MOLECULE
ZINC34451922
   61    65     0     0     0
SMALL
USER_CHARGES

@<TRIPOS>ATOM
      1 C1         -0.0312    1.4376    0.0625 C.3       1 <0>        -0.1149
      2 C2         -0.0229   -0.0693    0.0447 C.ar      1 <0>         0.1665
      3 C3         -0.0155   -0.7327   -1.1794 C.ar      1 <0>        -0.1630
      4 C4         -0.0074   -2.0992   -1.2143 C.ar      1 <0>        -0.0625
      5 C5         -0.0068   -2.7940    0.0070 C.ar      1 <0>        -0.1089
      6 C6         -0.0145   -2.0581    1.2176 C.ar      1 <0>         0.1381
      7 N1         -0.0173   -0.7211    1.1825 N.ar      1 <0>        -0.4673
      8 C7         -0.0139   -2.7495    2.4406 C.ar      1 <0>        -0.0799
      9 C8         -0.0055   -4.1115    2.4546 C.ar      1 <0>        -0.0967
     10 C9          0.0026   -4.8435    1.2722 C.ar      1 <0>        -0.1038
     11 C10         0.0018   -4.2041    0.0495 C.ar      1 <0>         0.1607
     12 N2          0.0100   -4.9428   -1.1301 N.pl3     1 <0>        -0.6732
     13 C11         1.2761   -5.3417   -1.7641 C.3       1 <0>         0.1189
     14 C12         1.2238   -4.9473   -3.2438 C.3       1 <0>        -0.0255
     15 N3          0.0263   -5.5297   -3.8626 N.4       1 <0>        -0.3804
     16 C13        -1.1805   -4.9526   -3.2570 C.3       1 <0>        -0.0322
     17 C14        -1.2473   -5.3521   -1.7749 C.3       1 <0>         0.1198
     18 C15         0.0336   -5.2439   -5.3035 C.3       1 <0>        -0.0072
     19 C16        -1.1461   -5.9543   -5.9703 C.3       1 <0>        -0.0971
     20 C17        -1.1386   -5.6610   -7.4485 C.ar      1 <0>        -0.0776
     21 C18        -1.8170   -4.5596   -7.9377 C.ar      1 <0>        -0.1386
     22 C19        -1.8126   -4.2871   -9.2931 C.ar      1 <0>        -0.0804
     23 C20        -1.1300   -5.1148  -10.1632 C.ar      1 <0>        -0.1434
     24 C21        -0.4479   -6.2214   -9.6753 C.ar      1 <0>         0.2020
     25 C22        -0.4497   -6.4892   -8.3125 C.ar      1 <0>        -0.1555
     26 N4          0.2445   -7.0619  -10.5542 N.am      1 <0>        -0.5742
     27 C23         1.0949   -8.1943  -10.1579 C.3       1 <0>         0.0857
     28 C24         1.6017   -8.7621  -11.4979 C.3       1 <0>         0.0889
     29 N5          0.9830   -7.8894  -12.5069 N.am      1 <0>        -0.7318
     30 C25         0.2334   -6.9663  -11.8902 C.2       1 <0>         0.6994
     31 O1         -0.3969   -6.1161  -12.4888 O.2       1 <0>        -0.5594
     32 H1          0.9944    1.8066    0.0650 H         1 <0>         0.0861
     33 H2         -0.5487    1.8085   -0.8223 H         1 <0>         0.0802
     34 H3         -0.5455    1.7876    0.9576 H         1 <0>         0.0841
     35 H4         -0.0165   -0.1684   -2.1002 H         1 <0>         0.1388
     36 H5         -0.0019   -2.6302   -2.1547 H         1 <0>         0.1232
     37 H6         -0.0198   -2.2006    3.3707 H         1 <0>         0.1418
     38 H7         -0.0048   -4.6322    3.4007 H         1 <0>         0.1381
     39 H8          0.0096   -5.9228    1.3114 H         1 <0>         0.1308
     40 H9          2.1065   -4.8299   -1.2777 H         1 <0>         0.1163
     41 H10         1.4054   -6.4205   -1.6769 H         1 <0>         0.0826
     42 H11         1.1855   -3.8614   -3.3293 H         1 <0>         0.1284
     43 H12         2.1133   -5.3208   -3.7511 H         1 <0>         0.1390
     44 H13        -1.1461   -3.8665   -3.3421 H         1 <0>         0.1294
     45 H14        -2.0627   -5.3301   -3.7741 H         1 <0>         0.1406
     46 H15        -1.3685   -6.4320   -1.6889 H         1 <0>         0.0832
     47 H16        -2.0861   -4.8472   -1.2958 H         1 <0>         0.1162
     48 H17        -0.0535   -4.1688   -5.4611 H         1 <0>         0.1311
     49 H18         0.9665   -5.6007   -5.7400 H         1 <0>         0.1329
     50 H19        -1.0590   -7.0293   -5.8127 H         1 <0>         0.0951
     51 H20        -2.0789   -5.5974   -5.5338 H         1 <0>         0.0966
     52 H21        -2.3517   -3.9111   -7.2594 H         1 <0>         0.1244
     53 H22        -2.3436   -3.4264   -9.6721 H         1 <0>         0.1341
     54 H23        -1.1272   -4.9017  -11.2220 H         1 <0>         0.1632
     55 H24         0.0839   -7.3464   -7.9293 H         1 <0>         0.1261
     56 H25         1.9301   -7.8505   -9.5478 H         1 <0>         0.0916
     57 H26         0.5107   -8.9423   -9.6219 H         1 <0>         0.0922
     58 H27         2.6885   -8.7002  -11.5531 H         1 <0>         0.0930
     59 H28         1.2691   -9.7921  -11.6273 H         1 <0>         0.0930
     60 H29         1.0964   -7.9716  -13.4667 H         1 <0>         0.4388
     61 H30         0.0277   -6.5286   -3.7203 H         1 <0>         0.4226
@<TRIPOS>BOND
     1    1    2 1
     2    1   32 1
     3    1   33 1
     4    1   34 1
     5    2    7 ar
     6    2    3 ar
     7    3    4 ar
     8    3   35 1
     9    4    5 ar
    10    4   36 1
    11    5   11 ar
    12    5    6 ar
    13    6    7 ar
    14    6    8 ar
    15    8    9 ar
    16    8   37 1
    17    9   10 ar
    18    9   38 1
    19   10   11 ar
    20   10   39 1
    21   11   12 1
    22   12   17 1
    23   12   13 1
    24   13   14 1
    25   13   40 1
    26   13   41 1
    27   14   15 1
    28   14   42 1
    29   14   43 1
    30   15   16 1
    31   15   18 1
    32   15   61 1
    33   16   17 1
    34   16   44 1
    35   16   45 1
    36   17   46 1
    37   17   47 1
    38   18   19 1
    39   18   48 1
    40   18   49 1
    41   19   20 1
    42   19   50 1
    43   19   51 1
    44   20   25 ar
    45   20   21 ar
    46   21   22 ar
    47   21   52 1
    48   22   23 ar
    49   22   53 1
    50   23   24 ar
    51   23   54 1
    52   24   25 ar
    53   24   26 1
    54   25   55 1
    55   26   30 am
    56   26   27 1
    57   27   28 1
    58   27   56 1
    59   27   57 1
    60   28   29 1
    61   28   58 1
    62   28   59 1
    63   29   30 am
    64   29   60 1
    65   30   31 2
@<TRIPOS>MOLECULE
ZINC34451922
   60    64     0     0     0
SMALL
USER_CHARGES

@<TRIPOS>ATOM
      1 C1         -0.0321    1.4340    0.0669 C.3       1 <0>        -0.1087
      2 C2         -0.0231   -0.0728    0.0484 C.ar      1 <0>         0.1614
      3 C3         -0.0155   -0.7357   -1.1761 C.ar      1 <0>        -0.1790
      4 C4         -0.0069   -2.1021   -1.2116 C.ar      1 <0>        -0.0439
      5 C5         -0.0060   -2.7975    0.0093 C.ar      1 <0>        -0.1162
      6 C6         -0.0140   -2.0623    1.2203 C.ar      1 <0>         0.1383
      7 N1         -0.0173   -0.7252    1.1858 N.ar      1 <0>        -0.4780
      8 C7         -0.0131   -2.7542    2.4430 C.ar      1 <0>        -0.1017
      9 C8         -0.0042   -4.1162    2.4563 C.ar      1 <0>        -0.0895
     10 C9          0.0042   -4.8477    1.2736 C.ar      1 <0>        -0.1280
     11 C10         0.0032   -4.2076    0.0512 C.ar      1 <0>         0.1972
     12 N2          0.0115   -4.9458   -1.1288 N.pl3     1 <0>        -0.6786
     13 C11         1.2784   -5.3431   -1.7618 C.3       1 <0>         0.1496
     14 C12         1.2359   -4.9304   -3.2369 C.3       1 <0>         0.0396
     15 N3          0.0281   -5.4851   -3.8627 N.3       1 <0>        -0.5337
     16 C13        -1.1893   -4.9364   -3.2504 C.3       1 <0>         0.0347
     17 C14        -1.2462   -5.3545   -1.7725 C.3       1 <0>         0.1493
     18 C15         0.0356   -5.2584   -5.3140 C.3       1 <0>         0.0625
     19 C16        -1.0979   -6.0570   -5.9608 C.3       1 <0>        -0.0749
     20 C17        -1.0902   -5.8244   -7.4498 C.ar      1 <0>        -0.0542
     21 C18        -1.8204   -4.7814   -7.9898 C.ar      1 <0>        -0.1431
     22 C19        -1.8159   -4.5647   -9.3553 C.ar      1 <0>        -0.0866
     23 C20        -1.0816   -5.3899  -10.1846 C.ar      1 <0>        -0.1581
     24 C21        -0.3474   -6.4379   -9.6456 C.ar      1 <0>         0.1910
     25 C22        -0.3495   -6.6495   -8.2729 C.ar      1 <0>        -0.1551
     26 N4          0.3976   -7.2758  -10.4831 N.am      1 <0>        -0.5709
     27 C23         1.3021   -8.3444  -10.0332 C.3       1 <0>         0.0845
     28 C24         1.8522   -8.9388  -11.3442 C.3       1 <0>         0.0912
     29 N5          1.1993   -8.1420  -12.3936 N.am      1 <0>        -0.7361
     30 C25         0.3956   -7.2356  -11.8220 C.2       1 <0>         0.6995
     31 O1         -0.2721   -6.4452  -12.4605 O.2       1 <0>        -0.5652
     32 H1          0.9934    1.8035    0.0696 H         1 <0>         0.0813
     33 H2         -0.5496    1.8052   -0.8177 H         1 <0>         0.0768
     34 H3         -0.5465    1.7834    0.9621 H         1 <0>         0.0795
     35 H4         -0.0168   -0.1709   -2.0966 H         1 <0>         0.1342
     36 H5         -0.0012   -2.6326   -2.1523 H         1 <0>         0.1348
     37 H6         -0.0192   -2.2057    3.3733 H         1 <0>         0.1347
     38 H7         -0.0032   -4.6373    3.4022 H         1 <0>         0.1312
     39 H8          0.0116   -5.9269    1.3122 H         1 <0>         0.1282
     40 H9          2.1089   -4.8415   -1.2650 H         1 <0>         0.0717
     41 H10         1.4019   -6.4235   -1.6872 H         1 <0>         0.0627
     42 H11         1.2167   -3.8430   -3.3100 H         1 <0>         0.0346
     43 H12         2.1191   -5.3142   -3.7476 H         1 <0>         0.0822
     44 H13        -1.1747   -3.8489   -3.3233 H         1 <0>         0.0351
     45 H14        -2.0649   -5.3244   -3.7708 H         1 <0>         0.0854
     46 H15        -1.3606   -6.4360   -1.6990 H         1 <0>         0.0631
     47 H16        -2.0854   -4.8605   -1.2829 H         1 <0>         0.0716
     48 H17        -0.1062   -4.1968   -5.5167 H         1 <0>         0.0355
     49 H18         0.9905   -5.5828   -5.7275 H         1 <0>         0.0763
     50 H19        -0.9561   -7.1185   -5.7582 H         1 <0>         0.0819
     51 H20        -2.0528   -5.7326   -5.5474 H         1 <0>         0.0744
     52 H21        -2.3957   -4.1350   -7.3435 H         1 <0>         0.1206
     53 H22        -2.3875   -3.7496   -9.7740 H         1 <0>         0.1267
     54 H23        -1.0788   -5.2204  -11.2512 H         1 <0>         0.1568
     55 H24         0.2243   -7.4609   -7.8501 H         1 <0>         0.1245
     56 H25         2.1115   -7.9321   -9.4307 H         1 <0>         0.0924
     57 H26         0.7524   -9.0998   -9.4716 H         1 <0>         0.0923
     58 H27         2.9348   -8.8217  -11.3927 H         1 <0>         0.0897
     59 H28         1.5757   -9.9893  -11.4336 H         1 <0>         0.0895
     60 H29         1.3270   -8.2573  -13.3482 H         1 <0>         0.4348
@<TRIPOS>BOND
     1    1    2 1
     2    1   32 1
     3    1   33 1
     4    1   34 1
     5    2    7 ar
     6    2    3 ar
     7    3    4 ar
     8    3   35 1
     9    4    5 ar
    10    4   36 1
    11    5   11 ar
    12    5    6 ar
    13    6    7 ar
    14    6    8 ar
    15    8    9 ar
    16    8   37 1
    17    9   10 ar
    18    9   38 1
    19   10   11 ar
    20   10   39 1
    21   11   12 1
    22   12   17 1
    23   12   13 1
    24   13   14 1
    25   13   40 1
    26   13   41 1
    27   14   15 1
    28   14   42 1
    29   14   43 1
    30   15   16 1
    31   15   18 1
    32   16   17 1
    33   16   44 1
    34   16   45 1
    35   17   46 1
    36   17   47 1
    37   18   19 1
    38   18   48 1
    39   18   49 1
    40   19   20 1
    41   19   50 1
    42   19   51 1
    43   20   25 ar
    44   20   21 ar
    45   21   22 ar
    46   21   52 1
    47   22   23 ar
    48   22   53 1
    49   23   24 ar
    50   23   54 1
    51   24   25 ar
    52   24   26 1
    53   25   55 1
    54   26   30 am
    55   26   27 1
    56   27   28 1
    57   27   56 1
    58   27   57 1
    59   28   29 1
    60   28   58 1
    61   28   59 1
    62   29   30 am
    63   29   60 1
    64   30   31 2
@<TRIPOS>MOLECULE
ZINC34451922
   62    66     0     0     0
SMALL
USER_CHARGES

@<TRIPOS>ATOM
      1 C1         -0.0312    1.4376    0.0625 C.3       1 <0>        -0.1610
      2 C2         -0.0229   -0.0693    0.0447 C.ar      1 <0>         0.2542
      3 C3         -0.0155   -0.7327   -1.1794 C.ar      1 <0>        -0.1670
      4 C4         -0.0074   -2.0992   -1.2143 C.ar      1 <0>         0.0386
      5 C5         -0.0068   -2.7940    0.0070 C.ar      1 <0>        -0.0964
      6 C6         -0.0145   -2.0581    1.2176 C.ar      1 <0>         0.1451
      7 N1         -0.0173   -0.7211    1.1825 N.ar      1 <0>        -0.4584
      8 C7         -0.0139   -2.7495    2.4406 C.ar      1 <0>        -0.1305
      9 C8         -0.0055   -4.1115    2.4546 C.ar      1 <0>        -0.0263
     10 C9          0.0026   -4.8435    1.2722 C.ar      1 <0>        -0.0895
     11 C10         0.0018   -4.2041    0.0495 C.ar      1 <0>         0.2051
     12 N2          0.0100   -4.9428   -1.1301 N.pl3     1 <0>        -0.6830
     13 C11         1.2761   -5.3417   -1.7641 C.3       1 <0>         0.1133
     14 C12         1.2238   -4.9473   -3.2438 C.3       1 <0>        -0.0251
     15 N3          0.0263   -5.5297   -3.8626 N.4       1 <0>        -0.3836
     16 C13        -1.1805   -4.9526   -3.2570 C.3       1 <0>        -0.0322
     17 C14        -1.2473   -5.3521   -1.7749 C.3       1 <0>         0.1142
     18 C15         0.0336   -5.2439   -5.3035 C.3       1 <0>        -0.0083
     19 C16        -1.1461   -5.9543   -5.9703 C.3       1 <0>        -0.0958
     20 C17        -1.1386   -5.6610   -7.4485 C.ar      1 <0>        -0.0824
     21 C18        -1.8170   -4.5596   -7.9377 C.ar      1 <0>        -0.1409
     22 C19        -1.8126   -4.2871   -9.2931 C.ar      1 <0>        -0.0796
     23 C20        -1.1300   -5.1148  -10.1632 C.ar      1 <0>        -0.1415
     24 C21        -0.4479   -6.2214   -9.6753 C.ar      1 <0>         0.2063
     25 C22        -0.4497   -6.4892   -8.3125 C.ar      1 <0>        -0.1564
     26 N4          0.2445   -7.0619  -10.5542 N.am      1 <0>        -0.5752
     27 C23         1.0949   -8.1943  -10.1579 C.3       1 <0>         0.0862
     28 C24         1.6017   -8.7621  -11.4979 C.3       1 <0>         0.0880
     29 N5          0.9830   -7.8894  -12.5069 N.am      1 <0>        -0.7302
     30 C25         0.2334   -6.9663  -11.8902 C.2       1 <0>         0.6992
     31 O1         -0.3969   -6.1161  -12.4888 O.2       1 <0>        -0.5578
     32 H1          0.9944    1.8066    0.0650 H         1 <0>         0.1292
     33 H2         -0.5487    1.8085   -0.8223 H         1 <0>         0.1262
     34 H3         -0.5455    1.7876    0.9576 H         1 <0>         0.1073
     35 H4         -0.0165   -0.1684   -2.1002 H         1 <0>         0.1869
     36 H5         -0.0019   -2.6302   -2.1547 H         1 <0>         0.1595
     37 H6         -0.0198   -2.2006    3.3707 H         1 <0>         0.1627
     38 H7         -0.0048   -4.6322    3.4007 H         1 <0>         0.1641
     39 H8          0.0096   -5.9228    1.3114 H         1 <0>         0.1565
     40 H9          2.1065   -4.8299   -1.2777 H         1 <0>         0.1196
     41 H10         1.4054   -6.4205   -1.6769 H         1 <0>         0.0952
     42 H11         1.1855   -3.8614   -3.3293 H         1 <0>         0.1261
     43 H12         2.1133   -5.3208   -3.7511 H         1 <0>         0.1471
     44 H13        -1.1461   -3.8665   -3.3421 H         1 <0>         0.1272
     45 H14        -2.0627   -5.3301   -3.7741 H         1 <0>         0.1488
     46 H15        -1.3685   -6.4320   -1.6889 H         1 <0>         0.0958
     47 H16        -2.0861   -4.8472   -1.2958 H         1 <0>         0.1195
     48 H17        -0.0535   -4.1688   -5.4611 H         1 <0>         0.1321
     49 H18         0.9665   -5.6007   -5.7400 H         1 <0>         0.1368
     50 H19        -1.0590   -7.0293   -5.8127 H         1 <0>         0.0966
     51 H20        -2.0789   -5.5974   -5.5338 H         1 <0>         0.0955
     52 H21        -2.3517   -3.9111   -7.2594 H         1 <0>         0.1224
     53 H22        -2.3436   -3.4264   -9.6721 H         1 <0>         0.1347
     54 H23        -1.1272   -4.9017  -11.2220 H         1 <0>         0.1647
     55 H24         0.0839   -7.3464   -7.9293 H         1 <0>         0.1263
     56 H25         1.9301   -7.8505   -9.5478 H         1 <0>         0.0912
     57 H26         0.5107   -8.9423   -9.6219 H         1 <0>         0.0923
     58 H27         2.6885   -8.7002  -11.5531 H         1 <0>         0.0940
     59 H28         1.2691   -9.7921  -11.6273 H         1 <0>         0.0943
     60 H29         1.0964   -7.9716  -13.4667 H         1 <0>         0.4403
     61 H30         0.0277   -6.5286   -3.7203 H         1 <0>         0.4274
     62 H31        -0.0190   -0.2237    2.0152 H         1 <0>         0.4506
@<TRIPOS>BOND
     1    1    2 1
     2    1   32 1
     3    1   33 1
     4    1   34 1
     5    2    7 ar
     6    2    3 ar
     7    3    4 ar
     8    3   35 1
     9    4    5 ar
    10    4   36 1
    11    5   11 ar
    12    5    6 ar
    13    6    7 ar
    14    6    8 ar
    15    7   62 1
    16    8    9 ar
    17    8   37 1
    18    9   10 ar
    19    9   38 1
    20   10   11 ar
    21   10   39 1
    22   11   12 1
    23   12   17 1
    24   12   13 1
    25   13   14 1
    26   13   40 1
    27   13   41 1
    28   14   15 1
    29   14   42 1
    30   14   43 1
    31   15   16 1
    32   15   18 1
    33   15   61 1
    34   16   17 1
    35   16   44 1
    36   16   45 1
    37   17   46 1
    38   17   47 1
    39   18   19 1
    40   18   48 1
    41   18   49 1
    42   19   20 1
    43   19   50 1
    44   19   51 1
    45   20   25 ar
    46   20   21 ar
    47   21   22 ar
    48   21   52 1
    49   22   23 ar
    50   22   53 1
    51   23   24 ar
    52   23   54 1
    53   24   25 ar
    54   24   26 1
    55   25   55 1
    56   26   30 am
    57   26   27 1
    58   27   28 1
    59   27   56 1
    60   27   57 1
    61   28   29 1
    62   28   58 1
    63   28   59 1
    64   29   30 am
    65   29   60 1
    66   30   31 2
@<TRIPOS>MOLECULE
ZINC66079137
   38    40     0     0     0
SMALL
USER_CHARGES

@<TRIPOS>ATOM
      1 C1         -0.0184    1.5028    0.0103 C.3       1 <0>        -0.1155
      2 C2          0.0021   -0.0041    0.0020 C.2       1 <0>         0.2327
      3 C3         -1.2039   -0.7185    0.0039 C.2       1 <0>        -0.2341
      4 C4         -1.1759   -2.0742   -0.0036 C.2       1 <0>         0.2106
      5 N1          0.0289   -2.7139   -0.0128 N.pl3     1 <0>        -0.2908
      6 C5          1.1893   -1.9817   -0.0144 C.2       1 <0>         0.3988
      7 N2          1.1491   -0.6421   -0.0124 N.2       1 <0>        -0.4751
      8 C6          2.2407   -2.8873   -0.0236 C.2       1 <0>        -0.8447
      9 C7          1.6933   -4.1683   -0.0275 C.2       1 <0>         0.4581
     10 N3          0.3787   -4.0689   -0.0211 N.2       1 <0>        -0.3585
     11 N4          2.4186   -5.3629   -0.0374 N.pl3     1 <0>        -0.7065
     12 C8          1.7144   -6.6475   -0.0405 C.3       1 <0>         0.0943
     13 S1          3.9571   -2.4892   -0.0302 S.o2      1 <0>         2.6228
     14 O1          4.6314   -3.6081   -0.5894 O.2       1 <0>        -0.9502
     15 O2          4.0687   -1.1818   -0.5757 O.2       1 <0>        -0.9239
     16 C9          4.4728   -2.3790    1.6510 C.ar      1 <0>        -0.6578
     17 C10         4.3993   -1.1709    2.3188 C.ar      1 <0>        -0.0175
     18 C11         4.8039   -1.0844    3.6377 C.ar      1 <0>        -0.1408
     19 C12         5.2816   -2.2062    4.2891 C.ar      1 <0>        -0.0659
     20 C13         5.3543   -3.4146    3.6216 C.ar      1 <0>        -0.1407
     21 C14         4.9456   -3.5020    2.3040 C.ar      1 <0>        -0.0247
     22 C15        -2.4594   -2.8640   -0.0012 C.3       1 <0>        -0.1184
     23 H1          1.0042    1.8801    0.0026 H         1 <0>         0.0923
     24 H2         -0.5455    1.8639   -0.8728 H         1 <0>         0.0954
     25 H3         -0.5286    1.8543    0.9071 H         1 <0>         0.0945
     26 H4         -2.1477   -0.1935    0.0117 H         1 <0>         0.1740
     27 H5          3.3884   -5.3414   -0.0422 H         1 <0>         0.4256
     28 H6          1.0937   -6.7237    0.8523 H         1 <0>         0.0589
     29 H7          1.0847   -6.7145   -0.9277 H         1 <0>         0.0595
     30 H8          2.4408   -7.4601   -0.0484 H         1 <0>         0.0832
     31 H9          4.0261   -0.2944    1.8099 H         1 <0>         0.1438
     32 H10         4.7472   -0.1404    4.1592 H         1 <0>         0.1336
     33 H11         5.5984   -2.1385    5.3194 H         1 <0>         0.1313
     34 H12         5.7278   -4.2909    4.1305 H         1 <0>         0.1334
     35 H13         4.9989   -4.4468    1.7836 H         1 <0>         0.1374
     36 H14        -3.3074   -2.1793    0.0069 H         1 <0>         0.0978
     37 H15        -2.5041   -3.4872   -0.8944 H         1 <0>         0.0938
     38 H16        -2.4949   -3.4969    0.8855 H         1 <0>         0.0933
@<TRIPOS>BOND
     1    1    2 1
     2    1   23 1
     3    1   24 1
     4    1   25 1
     5    2    7 2
     6    2    3 1
     7    3    4 2
     8    3   26 1
     9    4    5 1
    10    4   22 1
    11    5   10 1
    12    5    6 1
    13    6    7 1
    14    6    8 2
    15    8    9 1
    16    8   13 1
    17    9   10 2
    18    9   11 1
    19   11   12 1
    20   11   27 1
    21   12   28 1
    22   12   29 1
    23   12   30 1
    24   13   14 2
    25   13   15 2
    26   13   16 1
    27   16   21 ar
    28   16   17 ar
    29   17   18 ar
    30   17   31 1
    31   18   19 ar
    32   18   32 1
    33   19   20 ar
    34   19   33 1
    35   20   21 ar
    36   20   34 1
    37   21   35 1
    38   22   36 1
    39   22   37 1
    40   22   38 1
@<TRIPOS>MOLECULE
ZINC03775140
   62    64     0     0     0
SMALL
USER_CHARGES

@<TRIPOS>ATOM
      1 C1         -0.0173    1.4248    0.0099 C.3       1 <0>         0.0171
      2 O1          0.0021   -0.0041    0.0020 O.3       1 <0>        -0.2760
      3 C2          0.6048   -0.6061   -1.0540 C.ar      1 <0>         0.2490
      4 C3          1.1714    0.1577   -2.0595 C.ar      1 <0>        -0.2968
      5 C4          1.7875   -0.4643   -3.1379 C.ar      1 <0>         0.3045
      6 C5          1.8368   -1.8562   -3.2112 C.ar      1 <0>        -0.1599
      7 C6          1.2804   -2.6188   -2.2247 C.ar      1 <0>         0.0104
      8 C7          0.6619   -2.0064   -1.1291 C.ar      1 <0>        -0.2378
      9 C8          0.0677   -2.8282   -0.0619 C.2       1 <0>         0.5777
     10 O2         -0.4739   -2.2937    0.8871 O.2       1 <0>        -0.5075
     11 N1          0.1238   -4.1727   -0.1363 N.am      1 <0>        -0.7330
     12 C9         -0.4675   -4.9905    0.9257 C.3       1 <0>         0.1404
     13 H1         -1.3642   -4.5012    1.3060 H         1 <0>         0.1248
     14 C10         0.5437   -5.1622    2.0629 C.3       1 <0>        -0.1546
     15 C11         1.7671   -5.9184    1.5404 C.3       1 <0>        -0.0167
     16 N2          1.3566   -7.2378    1.0453 N.4       1 <0>        -0.3759
     17 C12         0.4423   -7.0806   -0.0921 C.3       1 <0>        -0.0388
     18 C13        -0.8339   -6.3685    0.3670 C.3       1 <0>         0.0659
     19 H2         -1.3203   -6.9585    1.1438 H         1 <0>         0.1015
     20 O3         -1.7219   -6.2131   -0.7418 O.3       1 <0>        -0.3502
     21 C14        -2.6322   -7.3011   -0.9143 C.3       1 <0>         0.0179
     22 C15         2.5438   -7.9895    0.6171 C.3       1 <0>        -0.0062
     23 C16         3.4343   -8.2703    1.8292 C.3       1 <0>        -0.1507
     24 C17         4.6708   -9.0533    1.3832 C.3       1 <0>         0.0614
     25 O4          5.5024   -9.3155    2.5152 O.3       1 <0>        -0.3099
     26 C18         6.6507  -10.0076    2.2904 C.ar      1 <0>         0.1104
     27 C19         6.9722  -10.4203    1.0058 C.ar      1 <0>        -0.1786
     28 C20         8.1394  -11.1237    0.7787 C.ar      1 <0>        -0.1136
     29 C21         8.9878  -11.4170    1.8328 C.ar      1 <0>         0.0730
     30 C22         8.6679  -11.0061    3.1156 C.ar      1 <0>        -0.1109
     31 C23         7.5046  -10.2969    3.3445 C.ar      1 <0>        -0.1156
     32 F1         10.1287  -12.1053    1.6094 F         1 <0>        -0.1339
     33 Cl1         2.6089   -2.6229   -4.5639 Cl        1 <0>        -0.0623
     34 N3          2.3569    0.3038   -4.1485 N.pl3     1 <0>        -0.8495
     35 H3          1.0053    1.8021    0.0021 H         1 <0>         0.0609
     36 H4         -0.5445    1.7859   -0.8732 H         1 <0>         0.0614
     37 H5         -0.5275    1.7763    0.9067 H         1 <0>         0.1085
     38 H6          1.1342    1.2357   -2.0059 H         1 <0>         0.1464
     39 H7          1.3215   -3.6961   -2.2880 H         1 <0>         0.1333
     40 H8          0.5557   -4.5989   -0.8931 H         1 <0>         0.3942
     41 H9          0.8503   -4.1821    2.4284 H         1 <0>         0.1283
     42 H10         0.0859   -5.7273    2.8748 H         1 <0>         0.1026
     43 H11         2.2242   -5.3523    0.7288 H         1 <0>         0.1317
     44 H12         2.4891   -6.0421    2.3475 H         1 <0>         0.1399
     45 H13         0.9276   -6.4898   -0.8690 H         1 <0>         0.1341
     46 H14         0.1862   -8.0624   -0.4903 H         1 <0>         0.1380
     47 H15        -2.0715   -8.2215   -1.0778 H         1 <0>         0.0481
     48 H16        -3.2481   -7.4047   -0.0210 H         1 <0>         0.0566
     49 H17        -3.2712   -7.1071   -1.7758 H         1 <0>         0.1042
     50 H18         2.2339   -8.9329    0.1676 H         1 <0>         0.1368
     51 H19         3.1003   -7.4039   -0.1147 H         1 <0>         0.1356
     52 H20         3.7442   -7.3269    2.2786 H         1 <0>         0.1012
     53 H21         2.8778   -8.8559    2.5610 H         1 <0>         0.1013
     54 H22         4.3608   -9.9967    0.9337 H         1 <0>         0.0740
     55 H23         5.2272   -8.4676    0.6514 H         1 <0>         0.0740
     56 H24         6.3103  -10.1922    0.1835 H         1 <0>         0.1353
     57 H25         8.3900  -11.4451   -0.2214 H         1 <0>         0.1422
     58 H26         9.3304  -11.2359    3.9370 H         1 <0>         0.1482
     59 H27         7.2577   -9.9722    4.3445 H         1 <0>         0.1439
     60 H28         2.3233    1.2719   -4.0992 H         1 <0>         0.4097
     61 H29         2.7876   -0.1289   -4.9023 H         1 <0>         0.4089
     62 H30         0.8896   -7.7426    1.7837 H         1 <0>         0.4252
@<TRIPOS>BOND
     1    1    2 1
     2    1   35 1
     3    1   36 1
     4    1   37 1
     5    2    3 1
     6    3    8 ar
     7    3    4 ar
     8    4    5 ar
     9    4   38 1
    10    5    6 ar
    11    5   34 1
    12    6    7 ar
    13    6   33 1
    14    7    8 ar
    15    7   39 1
    16    8    9 1
    17    9   10 2
    18    9   11 am
    19   11   12 1
    20   11   40 1
    21   12   13 1
    22   12   18 1
    23   12   14 1
    24   14   15 1
    25   14   41 1
    26   14   42 1
    27   15   16 1
    28   15   43 1
    29   15   44 1
    30   16   17 1
    31   16   22 1
    32   16   62 1
    33   17   18 1
    34   17   45 1
    35   17   46 1
    36   18   19 1
    37   18   20 1
    38   20   21 1
    39   21   47 1
    40   21   48 1
    41   21   49 1
    42   22   23 1
    43   22   50 1
    44   22   51 1
    45   23   24 1
    46   23   52 1
    47   23   53 1
    48   24   25 1
    49   24   54 1
    50   24   55 1
    51   25   26 1
    52   26   31 ar
    53   26   27 ar
    54   27   28 ar
    55   27   56 1
    56   28   29 ar
    57   28   57 1
    58   29   30 ar
    59   29   32 1
    60   30   31 ar
    61   30   58 1
    62   31   59 1
    63   34   60 1
    64   34   61 1
@<TRIPOS>MOLECULE
ZINC03830564
   62    64     0     0     0
SMALL
USER_CHARGES

@<TRIPOS>ATOM
      1 C1         -0.0173    1.4248    0.0099 C.3       1 <0>         0.0173
      2 O1          0.0021   -0.0041    0.0020 O.3       1 <0>        -0.2768
      3 C2          0.6048   -0.6061   -1.0540 C.ar      1 <0>         0.2482
      4 C3          1.1714    0.1577   -2.0595 C.ar      1 <0>        -0.2974
      5 C4          1.7875   -0.4643   -3.1379 C.ar      1 <0>         0.3044
      6 C5          1.8368   -1.8562   -3.2112 C.ar      1 <0>        -0.1594
      7 C6          1.2804   -2.6188   -2.2247 C.ar      1 <0>         0.0124
      8 C7          0.6619   -2.0064   -1.1291 C.ar      1 <0>        -0.2376
      9 C8          0.0677   -2.8282   -0.0619 C.2       1 <0>         0.5803
     10 O2         -0.4739   -2.2937    0.8871 O.2       1 <0>        -0.5144
     11 N1          0.1238   -4.1727   -0.1363 N.am      1 <0>        -0.7279
     12 C9         -0.4675   -4.9905    0.9257 C.3       1 <0>         0.1426
     13 H1         -0.3382   -4.4904    1.8855 H         1 <0>         0.1147
     14 C10        -1.9606   -5.1884    0.6484 C.3       1 <0>        -0.1574
     15 C11        -2.5547   -6.1082    1.7173 C.3       1 <0>        -0.0121
     16 N2         -1.8729   -7.4076    1.6837 N.4       1 <0>        -0.3780
     17 C12        -0.4544   -7.2346    2.0193 C.3       1 <0>        -0.0308
     18 C13         0.2219   -6.3574    0.9634 C.3       1 <0>         0.0634
     19 H2          0.1375   -6.8346   -0.0130 H         1 <0>         0.0897
     20 O3          1.6015   -6.1871    1.2946 O.3       1 <0>        -0.3498
     21 C14         2.4612   -7.1803    0.7321 C.3       1 <0>         0.0175
     22 C15        -2.4981   -8.3123    2.6576 C.3       1 <0>        -0.0056
     23 C16        -3.9400   -8.5999    2.2341 C.3       1 <0>        -0.1510
     24 C17        -4.5912   -9.5422    3.2484 C.3       1 <0>         0.0612
     25 O4         -5.9378   -9.8107    2.8528 O.3       1 <0>        -0.3101
     26 C18        -6.6627  -10.6375    3.6523 C.ar      1 <0>         0.1103
     27 C19        -6.0908  -11.1740    4.7964 C.ar      1 <0>        -0.1786
     28 C20        -6.8286  -12.0140    5.6079 C.ar      1 <0>        -0.1136
     29 C21        -8.1381  -12.3209    5.2793 C.ar      1 <0>         0.0729
     30 C22        -8.7100  -11.7865    4.1373 C.ar      1 <0>        -0.1110
     31 C23        -7.9767  -10.9409    3.3276 C.ar      1 <0>        -0.1157
     32 F1         -8.8583  -13.1429    6.0736 F         1 <0>        -0.1339
     33 Cl1         2.6089   -2.6229   -4.5639 Cl        1 <0>        -0.0612
     34 N3          2.3569    0.3038   -4.1485 N.pl3     1 <0>        -0.8498
     35 H3          1.0053    1.8021    0.0021 H         1 <0>         0.0610
     36 H4         -0.5445    1.7859   -0.8732 H         1 <0>         0.0608
     37 H5         -0.5275    1.7763    0.9067 H         1 <0>         0.1075
     38 H6          1.1342    1.2357   -2.0059 H         1 <0>         0.1460
     39 H7          1.3215   -3.6961   -2.2880 H         1 <0>         0.1366
     40 H8          0.5557   -4.5989   -0.8931 H         1 <0>         0.4011
     41 H9         -2.4669   -4.2235    0.6762 H         1 <0>         0.1280
     42 H10        -2.0914   -5.6407   -0.3346 H         1 <0>         0.0936
     43 H11        -2.4236   -5.6548    2.6998 H         1 <0>         0.1373
     44 H12        -3.6177   -6.2510    1.5230 H         1 <0>         0.1408
     45 H13        -0.3681   -6.7573    2.9954 H         1 <0>         0.1434
     46 H14         0.0331   -8.2090    2.0480 H         1 <0>         0.1370
     47 H15         2.1631   -8.1650    1.0923 H         1 <0>         0.0484
     48 H16         2.3857   -7.1529   -0.3549 H         1 <0>         0.0550
     49 H17         3.4905   -6.9808    1.0300 H         1 <0>         0.1046
     50 H18        -1.9380   -9.2465    2.6975 H         1 <0>         0.1365
     51 H19        -2.4951   -7.8445    3.6421 H         1 <0>         0.1371
     52 H20        -4.5001   -7.6657    2.1942 H         1 <0>         0.1015
     53 H21        -3.9430   -9.0676    1.2495 H         1 <0>         0.1005
     54 H22        -4.0310  -10.4764    3.2882 H         1 <0>         0.0740
     55 H23        -4.5881   -9.0744    4.2329 H         1 <0>         0.0745
     56 H24        -5.0691  -10.9353    5.0526 H         1 <0>         0.1356
     57 H25        -6.3836  -12.4318    6.4989 H         1 <0>         0.1423
     58 H26        -9.7315  -12.0270    3.8820 H         1 <0>         0.1482
     59 H27        -8.4246  -10.5203    2.4394 H         1 <0>         0.1438
     60 H28         2.3233    1.2719   -4.0992 H         1 <0>         0.4092
     61 H29         2.7876   -0.1289   -4.9023 H         1 <0>         0.4089
     62 H30        -1.9528   -7.8044    0.7595 H         1 <0>         0.4239
@<TRIPOS>BOND
     1    1    2 1
     2    1   35 1
     3    1   36 1
     4    1   37 1
     5    2    3 1
     6    3    8 ar
     7    3    4 ar
     8    4    5 ar
     9    4   38 1
    10    5    6 ar
    11    5   34 1
    12    6    7 ar
    13    6   33 1
    14    7    8 ar
    15    7   39 1
    16    8    9 1
    17    9   10 2
    18    9   11 am
    19   11   12 1
    20   11   40 1
    21   12   13 1
    22   12   18 1
    23   12   14 1
    24   14   15 1
    25   14   41 1
    26   14   42 1
    27   15   16 1
    28   15   43 1
    29   15   44 1
    30   16   17 1
    31   16   22 1
    32   16   62 1
    33   17   18 1
    34   17   45 1
    35   17   46 1
    36   18   19 1
    37   18   20 1
    38   20   21 1
    39   21   47 1
    40   21   48 1
    41   21   49 1
    42   22   23 1
    43   22   50 1
    44   22   51 1
    45   23   24 1
    46   23   52 1
    47   23   53 1
    48   24   25 1
    49   24   54 1
    50   24   55 1
    51   25   26 1
    52   26   31 ar
    53   26   27 ar
    54   27   28 ar
    55   27   56 1
    56   28   29 ar
    57   28   57 1
    58   29   30 ar
    59   29   32 1
    60   30   31 ar
    61   30   58 1
    62   31   59 1
    63   34   60 1
    64   34   61 1
@<TRIPOS>MOLECULE
ZINC03961870
   57    60     0     0     0
SMALL
USER_CHARGES

@<TRIPOS>ATOM
      1 C1         -1.2666    0.4432    0.5823 C.3       1 <0>         0.1083
      2 N1          0.0021   -0.0041    0.0020 N.pl3     1 <0>        -0.6766
      3 C2          1.2692    0.3682    0.6361 C.3       1 <0>         0.1068
      4 C3          0.0035   -0.7752   -1.1405 C.ar      1 <0>         0.6033
      5 C4          0.0431   -0.1734   -2.4234 C.ar      1 <0>        -0.1837
      6 C5          0.0828    1.2149   -2.5907 C.ar      1 <0>        -0.0158
      7 C6          0.1203    1.7396   -3.8494 C.ar      1 <0>        -0.1225
      8 C7          0.1192    0.9124   -4.9687 C.ar      1 <0>        -0.0114
      9 C8          0.0806   -0.4443   -4.8394 C.ar      1 <0>        -0.1535
     10 C9          0.0425   -1.0168   -3.5607 C.ar      1 <0>         0.1913
     11 N2          0.0047   -2.3454   -3.3797 N.ar      1 <0>        -0.5649
     12 C10        -0.0317   -2.8528   -2.1625 C.ar      1 <0>         0.6628
     13 N3         -0.0266   -2.0975   -1.0674 N.ar      1 <0>        -0.5488
     14 N4         -0.0709   -4.2279   -2.0188 N.pl3     1 <0>        -0.6587
     15 C11        -0.0714   -5.0885   -3.2044 C.3       1 <0>         0.1192
     16 C12         1.3687   -5.3246   -3.6639 C.3       1 <0>        -0.1369
     17 C13         1.3681   -6.2234   -4.9021 C.3       1 <0>        -0.1270
     18 C14         0.7161   -7.5642   -4.5586 C.3       1 <0>         0.1419
     19 C15        -0.7241   -7.3282   -4.0990 C.3       1 <0>        -0.1296
     20 C16        -0.7234   -6.4293   -2.8609 C.3       1 <0>        -0.1228
     21 N5          0.7155   -8.4249   -5.7441 N.am      1 <0>        -0.7247
     22 C17         0.6773   -9.7648   -5.6041 C.2       1 <0>         0.5675
     23 O1          0.6433  -10.2593   -4.4940 O.2       1 <0>        -0.5209
     24 C18         0.6767  -10.6327   -6.7996 C.ar      1 <0>        -0.1256
     25 C19         0.7214  -10.0673   -8.0757 C.ar      1 <0>        -0.0674
     26 C20         0.7206  -10.8807   -9.1887 C.ar      1 <0>        -0.1311
     27 C21         0.6756  -12.2585   -9.0439 C.ar      1 <0>         0.1011
     28 C22         0.6305  -12.8270   -7.7781 C.ar      1 <0>         0.0668
     29 C23         0.6371  -12.0212   -6.6571 C.ar      1 <0>        -0.0647
     30 F1          0.5858  -14.1705   -7.6431 F         1 <0>        -0.1178
     31 F2          0.6750  -13.0508  -10.1382 F         1 <0>        -0.1167
     32 H1         -1.4995    1.4441    0.2188 H         1 <0>         0.0620
     33 H2         -2.0615   -0.2433    0.2908 H         1 <0>         0.0650
     34 H3         -1.1827    0.4616    1.6689 H         1 <0>         0.0832
     35 H4          1.5461   -0.3907    1.3678 H         1 <0>         0.0586
     36 H5          2.0476    0.4419   -0.1234 H         1 <0>         0.0644
     37 H6          1.1566    1.3305    1.1355 H         1 <0>         0.0887
     38 H7          0.0833    1.8666   -1.7295 H         1 <0>         0.1585
     39 H8          0.1509    2.8113   -3.9790 H         1 <0>         0.1545
     40 H9          0.1489    1.3520   -5.9548 H         1 <0>         0.1575
     41 H10         0.0799   -1.0739   -5.7168 H         1 <0>         0.1562
     42 H11        -0.0980   -4.6224   -1.1331 H         1 <0>         0.4436
     43 H12        -0.6334   -4.6055   -4.0038 H         1 <0>         0.0923
     44 H13         1.8332   -4.3693   -3.9087 H         1 <0>         0.0712
     45 H14         1.9306   -5.8076   -2.8646 H         1 <0>         0.0923
     46 H15         0.8061   -5.7404   -5.7015 H         1 <0>         0.0763
     47 H16         2.3940   -6.3916   -5.2295 H         1 <0>         0.0894
     48 H17         1.2780   -8.0473   -3.7592 H         1 <0>         0.0988
     49 H18        -1.2860   -6.8451   -4.8984 H         1 <0>         0.0736
     50 H19        -1.1886   -8.2834   -3.8543 H         1 <0>         0.0893
     51 H20        -0.1615   -6.9124   -2.0615 H         1 <0>         0.0888
     52 H21        -1.7494   -6.2612   -2.5335 H         1 <0>         0.0871
     53 H22         0.7426   -8.0304   -6.6298 H         1 <0>         0.4025
     54 H23         0.7562   -8.9940   -8.1906 H         1 <0>         0.1425
     55 H24         0.7549  -10.4435  -10.1756 H         1 <0>         0.1568
     56 H25         0.6073  -12.4635   -5.6724 H         1 <0>         0.1616
     57 H26         0.0037   -2.9368   -4.1486 H         1 <0>         0.4377
@<TRIPOS>BOND
     1    1    2 1
     2    1   32 1
     3    1   33 1
     4    1   34 1
     5    2    3 1
     6    2    4 1
     7    3   35 1
     8    3   36 1
     9    3   37 1
    10    4   13 ar
    11    4    5 ar
    12    5   10 ar
    13    5    6 ar
    14    6    7 ar
    15    6   38 1
    16    7    8 ar
    17    7   39 1
    18    8    9 ar
    19    8   40 1
    20    9   10 ar
    21    9   41 1
    22   10   11 ar
    23   11   12 ar
    24   11   57 1
    25   12   13 ar
    26   12   14 1
    27   14   15 1
    28   14   42 1
    29   15   20 1
    30   15   16 1
    31   15   43 1
    32   16   17 1
    33   16   44 1
    34   16   45 1
    35   17   18 1
    36   17   46 1
    37   17   47 1
    38   18   19 1
    39   18   21 1
    40   18   48 1
    41   19   20 1
    42   19   49 1
    43   19   50 1
    44   20   51 1
    45   20   52 1
    46   21   22 am
    47   21   53 1
    48   22   23 2
    49   22   24 1
    50   24   29 ar
    51   24   25 ar
    52   25   26 ar
    53   25   54 1
    54   26   27 ar
    55   26   55 1
    56   27   28 ar
    57   27   31 1
    58   28   29 ar
    59   28   30 1
    60   29   56 1
@<TRIPOS>MOLECULE
ZINC00602825
   52    55     0     0     0
SMALL
USER_CHARGES
N-[(4-BLAHylaminocyclohexyl)methyl]methanesulfonamide
@<TRIPOS>ATOM
      1 C1          1.2991    1.2572    5.5492 C.3       1 <0>        -0.6739
      2 S1         -0.3896    0.7225    5.1580 S.o2      1 <0>         2.6153
      3 O1         -1.3094    1.2937    6.0783 O.2       1 <0>        -0.9588
      4 O2         -0.4104   -0.6717    4.8840 O.2       1 <0>        -0.9569
      5 N1         -0.7392    1.4432    3.7087 N.pl3     1 <0>        -1.1196
      6 C2          0.0111    1.0724    2.5063 C.3       1 <0>         0.1164
      7 C3         -0.7288    1.5792    1.2668 C.3       1 <0>        -0.0967
      8 C4         -0.0127    1.0858    0.0080 C.3       1 <0>        -0.1089
      9 C5         -0.7527    1.5927   -1.2315 C.3       1 <0>        -0.1268
     10 C6         -0.7734    3.1225   -1.2231 C.3       1 <0>         0.1610
     11 C7         -1.4896    3.6159    0.0357 C.3       1 <0>        -0.1315
     12 C8         -0.7496    3.1091    1.2752 C.3       1 <0>        -0.1122
     13 N2         -1.4820    3.6078   -2.4100 N.pl3     1 <0>        -0.6733
     14 C9         -1.2101    4.8705   -2.9110 C.2       1 <0>         0.3903
     15 N3         -0.3637    5.7807   -2.4669 N.2       1 <0>        -0.5636
     16 C10        -0.2282    6.9761   -3.0639 C.2       1 <0>         0.1458
     17 C11        -0.9754    7.1957   -4.1838 C.2       1 <0>        -0.2061
     18 S2         -1.9190    5.7033   -4.3278 S.3       1 <0>         0.0031
     19 C12        -0.9066    8.3830   -5.0739 C.3       1 <0>        -0.0338
     20 C13        -1.8018    9.5388   -4.5626 C.3       1 <0>        -0.0910
     21 S3         -1.5834    9.6158   -2.7534 S.3       1 <0>        -0.1476
     22 C14         0.1370    9.3615   -2.4872 C.ar      1 <0>        -0.0973
     23 C15         0.6546    8.0763   -2.5593 C.ar      1 <0>         0.0228
     24 C16         1.9670    7.8192   -2.1864 C.ar      1 <0>        -0.0943
     25 C17         2.7729    8.8743   -1.7945 C.ar      1 <0>        -0.0982
     26 C18         2.2767   10.1659   -1.7836 C.ar      1 <0>        -0.1211
     27 C19         0.9610   10.4196   -2.1304 C.ar      1 <0>        -0.0697
     28 H1          1.3283    2.3443    5.6222 H         1 <0>         0.1290
     29 H2          1.6074    0.8209    6.4993 H         1 <0>         0.1296
     30 H3          1.9763    0.9276    4.7613 H         1 <0>         0.1266
     31 H4         -1.4408    2.1109    3.6559 H         1 <0>         0.4186
     32 H5          0.1037   -0.0125    2.4560 H         1 <0>         0.0836
     33 H6          1.0041    1.5203    2.5452 H         1 <0>         0.0661
     34 H7         -1.7514    1.2020    1.2746 H         1 <0>         0.0843
     35 H8          0.0021   -0.0041    0.0020 H         1 <0>         0.0760
     36 H9          1.0099    1.4631    0.0003 H         1 <0>         0.0711
     37 H10        -0.2425    1.2411   -2.1283 H         1 <0>         0.0741
     38 H11        -1.7753    1.2154   -1.2238 H         1 <0>         0.0721
     39 H12         0.2491    3.4998   -1.2308 H         1 <0>         0.0913
     40 H13        -1.5044    4.7058    0.0417 H         1 <0>         0.0718
     41 H14        -2.5122    3.2386    0.0434 H         1 <0>         0.0658
     42 H15         0.2730    3.4864    1.2675 H         1 <0>         0.0694
     43 H16        -1.2598    3.4606    2.1720 H         1 <0>         0.0680
     44 H17        -2.1415    3.0450   -2.8450 H         1 <0>         0.4183
     45 H18         0.1256    8.7292   -5.1248 H         1 <0>         0.0863
     46 H19        -1.2332    8.0965   -6.0737 H         1 <0>         0.0880
     47 H20        -2.8454    9.3362   -4.8035 H         1 <0>         0.1101
     48 H21        -1.4915   10.4804   -5.0156 H         1 <0>         0.0969
     49 H22         2.3536    6.8109   -2.2024 H         1 <0>         0.1321
     50 H23         3.7937    8.6883   -1.4950 H         1 <0>         0.1300
     51 H24         2.9226   10.9844   -1.5020 H         1 <0>         0.1302
     52 H25         0.5796   11.4300   -2.1231 H         1 <0>         0.1375
@<TRIPOS>BOND
     1    1    2 1
     2    1   28 1
     3    1   29 1
     4    1   30 1
     5    2    3 2
     6    2    4 2
     7    2    5 1
     8    5    6 1
     9    5   31 1
    10    6    7 1
    11    6   32 1
    12    6   33 1
    13    7   12 1
    14    7    8 1
    15    7   34 1
    16    8    9 1
    17    8   35 1
    18    8   36 1
    19    9   10 1
    20    9   37 1
    21    9   38 1
    22   10   11 1
    23   10   13 1
    24   10   39 1
    25   11   12 1
    26   11   40 1
    27   11   41 1
    28   12   42 1
    29   12   43 1
    30   13   14 1
    31   13   44 1
    32   14   18 1
    33   14   15 2
    34   15   16 1
    35   16   23 1
    36   16   17 2
    37   17   18 1
    38   17   19 1
    39   19   20 1
    40   19   45 1
    41   19   46 1
    42   20   21 1
    43   20   47 1
    44   20   48 1
    45   21   22 1
    46   22   27 ar
    47   22   23 ar
    48   23   24 ar
    49   24   25 ar
    50   24   49 1
    51   25   26 ar
    52   25   50 1
    53   26   27 ar
    54   26   51 1
    55   27   52 1
@<TRIPOS>MOLECULE
ZINC28463701
   31    33     0     0     0
SMALL
USER_CHARGES

@<TRIPOS>ATOM
      1 C1         -0.0184    1.5028    0.0103 C.3       1 <0>        -0.1245
      2 C2          0.0021   -0.0041    0.0020 C.ar      1 <0>        -0.1242
      3 C3         -0.0986   -0.6848   -1.1937 C.ar      1 <0>         0.0061
      4 C4         -0.0779   -2.0684   -1.2112 C.ar      1 <0>        -0.1366
      5 C5          0.0532   -2.7680   -0.0259 C.ar      1 <0>        -0.0517
      6 C6          0.1599   -2.0913    1.1728 C.ar      1 <0>        -0.1579
      7 C7          0.1285   -0.7030    1.2036 C.ar      1 <0>         0.1951
      8 N1          0.1830   -0.2275    2.5084 N.pl3     1 <0>        -0.6424
      9 C8         -0.0774    1.1415    2.9801 C.3       1 <0>         0.1041
     10 C9         -1.0713    1.0311    4.1467 C.3       1 <0>        -0.0254
     11 N2         -0.5833    0.0552    5.1269 N.4       1 <0>        -0.5035
     12 C10        -0.5514   -1.2975    4.5514 C.3       1 <0>        -0.0185
     13 C11         0.4960   -1.3323    3.4339 C.3       1 <0>         0.1298
     14 H1          1.5034   -1.2336    3.8382 H         1 <0>         0.1081
     15 C12         0.3354   -2.6011    2.5871 C.3       1 <0>        -0.0747
     16 Cl1        -0.2523    0.1970   -2.6811 Cl        1 <0>        -0.0472
     17 H2          0.9749    1.8783    0.2562 H         1 <0>         0.0739
     18 H3         -0.3112    1.8676   -0.9742 H         1 <0>         0.0836
     19 H4         -0.7336    1.8523    0.7549 H         1 <0>         0.0666
     20 H5         -0.1643   -2.5998   -2.1474 H         1 <0>         0.1425
     21 H6          0.0719   -3.8478   -0.0377 H         1 <0>         0.1378
     22 H7          0.8502    1.5995    3.3235 H         1 <0>         0.0919
     23 H8         -0.5117    1.7358    2.1762 H         1 <0>         0.1370
     24 H9         -1.1765    2.0043    4.6262 H         1 <0>         0.1461
     25 H10        -2.0409    0.7091    3.7671 H         1 <0>         0.1345
     26 H11         0.3478    0.3140    5.4171 H         1 <0>         0.4285
     27 H12        -0.2846   -2.0176    5.3250 H         1 <0>         0.1467
     28 H13        -1.5311   -1.5437    4.1420 H         1 <0>         0.1370
     29 H14        -0.5410   -3.1695    2.8984 H         1 <0>         0.0984
     30 H15         1.2338   -3.2138    2.6621 H         1 <0>         0.1044
     31 H16        -1.1933    0.0592    5.9306 H         1 <0>         0.4346
@<TRIPOS>BOND
     1    1    2 1
     2    1   17 1
     3    1   18 1
     4    1   19 1
     5    2    7 ar
     6    2    3 ar
     7    3    4 ar
     8    3   16 1
     9    4    5 ar
    10    4   20 1
    11    5    6 ar
    12    5   21 1
    13    6   15 1
    14    6    7 ar
    15    7    8 1
    16    8   13 1
    17    8    9 1
    18    9   10 1
    19    9   22 1
    20    9   23 1
    21   10   11 1
    22   10   24 1
    23   10   25 1
    24   11   12 1
    25   11   26 1
    26   11   31 1
    27   12   13 1
    28   12   27 1
    29   12   28 1
    30   13   14 1
    31   13   15 1
    32   15   29 1
    33   15   30 1
@<TRIPOS>MOLECULE
ZINC00008795
   28    30     0     0     0
SMALL
USER_CHARGES
chloroBLAH
@<TRIPOS>ATOM
      1 C1          1.1682    2.0848    0.0021 C.ar      1 <0>        -0.1222
      2 C2         -0.0166    1.3705    0.0096 C.ar      1 <0>        -0.0577
      3 C3          0.0021   -0.0041    0.0020 C.ar      1 <0>        -0.1392
      4 C4          1.2198   -0.6989    0.0012 C.ar      1 <0>         0.1213
      5 C5          2.4046    0.0308   -0.0234 C.ar      1 <0>        -0.1335
      6 C6          2.3767    1.4109   -0.0213 C.ar      1 <0>        -0.0015
      7 Cl1         3.8643    2.3052   -0.0479 Cl        1 <0>        -0.0472
      8 N1          0.9601   -2.0492    0.0477 N.pl3     1 <0>        -0.5130
      9 C7          1.9078   -3.0272   -0.4388 C.3       1 <0>         0.0445
     10 C8          1.4145   -4.4151    0.0057 C.3       1 <0>         0.0022
     11 C9         -0.8930   -3.5894    0.0184 C.3       1 <0>         0.0175
     12 C10        -0.3768   -2.2739   -0.5580 C.3       1 <0>         0.0527
     13 H1         -0.3358   -2.2909   -1.6471 H         1 <0>         0.0994
     14 C11        -1.1211   -1.0337   -0.0321 C.3       1 <0>        -0.0630
     15 H2          1.1501    3.1646    0.0148 H         1 <0>         0.1448
     16 H3         -0.9605    1.8952    0.0169 H         1 <0>         0.1398
     17 H4          3.3526   -0.4864   -0.0447 H         1 <0>         0.1326
     18 H5          1.9584   -2.9837   -1.5267 H         1 <0>         0.0725
     19 H6          2.8922   -2.8312   -0.0139 H         1 <0>         0.1263
     20 H7          2.0606   -5.1797   -0.4257 H         1 <0>         0.1410
     21 H8          1.4600   -4.4800    1.0928 H         1 <0>         0.1390
     22 H9         -0.9020   -3.5409    1.1073 H         1 <0>         0.1454
     23 H10        -1.8971   -3.7909   -0.3547 H         1 <0>         0.1448
     24 H11        -1.5206   -1.2108    0.9665 H         1 <0>         0.1027
     25 H12        -1.9107   -0.7294   -0.7191 H         1 <0>         0.1001
     26 N2          0.0283   -4.6659   -0.4446 N.4       1 <0>        -0.5233
     27 H13        -0.2896   -5.5651   -0.0643 H         1 <0>         0.4417
     28 H14         0.0111   -4.7029   -1.4705 H         1 <0>         0.4323
@<TRIPOS>BOND
     1    1    6 ar
     2    1    2 ar
     3    1   15 1
     4    2    3 ar
     5    2   16 1
     6    3   14 1
     7    3    4 ar
     8    4    5 ar
     9    4    8 1
    10    5    6 ar
    11    5   17 1
    12    6    7 1
    13    8   12 1
    14    8    9 1
    15    9   10 1
    16    9   18 1
    17    9   19 1
    18   10   20 1
    19   10   21 1
    20   10   26 1
    21   11   12 1
    22   11   22 1
    23   11   23 1
    24   11   26 1
    25   12   13 1
    26   12   14 1
    27   14   24 1
    28   14   25 1
    29   26   27 1
    30   26   28 1
@<TRIPOS>MOLECULE
ZINC00026029
   28    30     0     0     0
SMALL
USER_CHARGES
chloroBLAH
@<TRIPOS>ATOM
      1 C1          4.8254    4.3522   -2.0238 C.ar      1 <0>        -0.1321
      2 C2          3.7198    4.5848   -1.2135 C.ar      1 <0>        -0.0487
      3 C3          2.8504    3.5360   -1.0158 C.ar      1 <0>        -0.1479
      4 C4          3.0481    2.2754   -1.6202 C.ar      1 <0>         0.1347
      5 C5          4.1692    2.0571   -2.4207 C.ar      1 <0>        -0.1379
      6 C6          5.0424    3.1185   -2.6048 C.ar      1 <0>         0.0004
      7 Cl1         6.4495    2.8897   -3.5955 Cl        1 <0>        -0.0530
      8 N1          2.0184    1.4529   -1.2796 N.pl3     1 <0>        -0.5266
      9 C7          2.1146    0.0125   -1.2887 C.3       1 <0>         0.0527
     10 C8          0.6890   -0.5542   -1.1707 C.3       1 <0>         0.0013
     11 C9         -0.0180    1.4732    0.0101 C.3       1 <0>         0.0151
     12 C10         1.4363    1.9375   -0.0013 C.3       1 <0>         0.0583
     13 H1          1.9849    1.5678    0.8651 H         1 <0>         0.0998
     14 C11         1.5896    3.4612   -0.1840 C.3       1 <0>        -0.0658
     15 H2          5.5285    5.1523   -2.2022 H         1 <0>         0.1408
     16 H3          3.5498    5.5492   -0.7580 H         1 <0>         0.1470
     17 H4          4.3504    1.0968   -2.8805 H         1 <0>         0.1396
     18 H5          2.7163   -0.3227   -0.4439 H         1 <0>         0.0730
     19 H6          2.5689   -0.3222   -2.2213 H         1 <0>         0.1261
     20 H7          0.7413   -1.6391   -1.0790 H         1 <0>         0.1415
     21 H8          0.1268   -0.2973   -2.0684 H         1 <0>         0.1388
     22 H9         -0.5337    1.8433   -0.8760 H         1 <0>         0.1447
     23 H10        -0.5166    1.8337    0.9099 H         1 <0>         0.1446
     24 H11         0.7393    3.8783   -0.7236 H         1 <0>         0.1020
     25 H12         1.7233    3.9592    0.7763 H         1 <0>         0.1005
     26 N2         -0.0072   -0.0170    0.0183 N.4       1 <0>        -0.5230
     27 H13         0.4744   -0.3437    0.8642 H         1 <0>         0.4323
     28 H14        -0.9754   -0.3588    0.0221 H         1 <0>         0.4415
@<TRIPOS>BOND
     1    1    6 ar
     2    1    2 ar
     3    1   15 1
     4    2    3 ar
     5    2   16 1
     6    3   14 1
     7    3    4 ar
     8    4    5 ar
     9    4    8 1
    10    5    6 ar
    11    5   17 1
    12    6    7 1
    13    8   12 1
    14    8    9 1
    15    9   10 1
    16    9   18 1
    17    9   19 1
    18   10   20 1
    19   10   21 1
    20   10   26 1
    21   11   12 1
    22   11   22 1
    23   11   23 1
    24   11   26 1
    25   12   13 1
    26   12   14 1
    27   14   24 1
    28   14   25 1
    29   26   27 1
    30   26   28 1
@<TRIPOS>MOLECULE
ZINC13679050
   28    29     0     0     0
SMALL
USER_CHARGES
1-[(2S)-2-aminopropyl]-7-fluoro-indazol-6-ol
@<TRIPOS>ATOM
      1 C1         -0.0127    1.0858    0.0080 C.3       1 <0>        -0.1820
      2 C2         -0.7288    1.5792    1.2668 C.3       1 <0>         0.0135
      3 H1         -1.7514    1.2020    1.2746 H         1 <0>         0.1421
      4 C3          0.0111    1.0724    2.5063 C.3       1 <0>         0.1217
      5 N1         -0.7392    1.4432    3.7087 N.pl3     1 <0>        -0.4330
      6 C4         -1.7120    0.6828    4.3060 C.ar      1 <0>         0.1084
      7 C5         -2.1662    1.4099    5.4232 C.ar      1 <0>        -0.1641
      8 C6         -3.1728    0.8783    6.2376 C.ar      1 <0>        -0.0205
      9 C7         -3.7092   -0.3415    5.9463 C.ar      1 <0>        -0.1486
     10 C8         -3.2644   -1.0669    4.8427 C.ar      1 <0>         0.1473
     11 C9         -2.2715   -0.5615    4.0238 C.ar      1 <0>         0.0346
     12 F1         -1.8464   -1.2705    2.9553 F         1 <0>        -0.1316
     13 O1         -3.8115   -2.2811    4.5686 O.3       1 <0>        -0.4825
     14 C10        -1.3966    2.6500    5.4452 C.2       1 <0>         0.1192
     15 N2         -0.5746    2.6269    4.4354 N.2       1 <0>        -0.2739
     16 H2          0.0021   -0.0041    0.0020 H         1 <0>         0.1116
     17 H3          1.0099    1.4631    0.0003 H         1 <0>         0.0885
     18 H4         -0.5399    1.4469   -0.8751 H         1 <0>         0.0921
     19 H5          0.1037   -0.0125    2.4560 H         1 <0>         0.1362
     20 H6          1.0041    1.5203    2.5452 H         1 <0>         0.1222
     21 H7         -3.5243    1.4331    7.0949 H         1 <0>         0.1508
     22 H8         -4.4856   -0.7490    6.5769 H         1 <0>         0.1540
     23 H9         -3.3568   -3.0220    4.9921 H         1 <0>         0.4070
     24 H10        -1.4890    3.4432    6.1723 H         1 <0>         0.2130
     25 H11        -1.2723    3.3983    2.0632 H         1 <0>         0.4369
     26 H12         0.1882    3.4225    1.2680 H         1 <0>         0.4372
     27 N3         -0.7608    3.0524    1.2530 N.4       1 <0>        -0.6421
     28 H13        -1.2315    3.3718    0.3982 H         1 <0>         0.4420
@<TRIPOS>BOND
     1    1    2 1
     2    1   16 1
     3    1   17 1
     4    1   18 1
     5    2    3 1
     6    2    4 1
     7    2   27 1
     8    4    5 1
     9    4   19 1
    10    4   20 1
    11    5   15 1
    12    5    6 1
    13    6   11 ar
    14    6    7 ar
    15    7    8 ar
    16    7   14 1
    17    8    9 ar
    18    8   21 1
    19    9   10 ar
    20    9   22 1
    21   10   11 ar
    22   10   13 1
    23   11   12 1
    24   13   23 1
    25   14   15 2
    26   14   24 1
    27   25   27 1
    28   26   27 1
    29   27   28 1
@<TRIPOS>MOLECULE
ZINC13985099
   35    36     0     0     0
SMALL
USER_CHARGES
3-(2-dimethylaminoethyl)-1-methyl-indol-4-ol
@<TRIPOS>ATOM
      1 C1          1.6984   -1.8610   -0.0237 C.3       1 <0>         0.0712
      2 N1          1.2958   -0.4525   -0.0127 N.pl3     1 <0>        -0.4791
      3 C2          0.0021   -0.0041    0.0020 C.2       1 <0>         0.0803
      4 C3         -0.0161    1.3379    0.0094 C.2       1 <0>        -0.1937
      5 C4          1.3788    1.7850   -0.0015 C.ar      1 <0>        -0.1237
      6 C5          2.1620    0.6179   -0.0153 C.ar      1 <0>         0.1108
      7 C6          3.5497    0.7248   -0.0275 C.ar      1 <0>        -0.1285
      8 C7          4.1454    1.9669   -0.0262 C.ar      1 <0>        -0.0784
      9 C8          3.3765    3.1217   -0.0122 C.ar      1 <0>        -0.1586
     10 C9          1.9973    3.0412    0.0002 C.ar      1 <0>         0.1368
     11 O1          1.2462    4.1734    0.0143 O.3       1 <0>        -0.4929
     12 C10        -1.2395    2.2178    0.0202 C.3       1 <0>        -0.0613
     13 C11        -1.5876    2.6249   -1.4130 C.3       1 <0>        -0.0010
     14 C12        -3.0071    4.0849   -2.7229 C.3       1 <0>        -0.0425
     15 C13        -3.9625    2.7348   -0.9546 C.3       1 <0>        -0.0467
     16 H1          1.7887   -2.2051   -1.0540 H         1 <0>         0.0770
     17 H2          2.6587   -1.9684    0.4807 H         1 <0>         0.0876
     18 H3          0.9473   -2.4576    0.4940 H         1 <0>         0.0891
     19 H4         -0.8735   -0.6363    0.0064 H         1 <0>         0.1717
     20 H5          4.1596   -0.1665   -0.0384 H         1 <0>         0.1272
     21 H6          5.2227    2.0425   -0.0357 H         1 <0>         0.1370
     22 H7          3.8585    4.0882   -0.0106 H         1 <0>         0.1342
     23 H8          1.0205    4.5067   -0.8650 H         1 <0>         0.3789
     24 H9         -2.0761    1.6716    0.4561 H         1 <0>         0.0889
     25 H10        -1.0399    3.1103    0.6132 H         1 <0>         0.0983
     26 H11        -0.7510    3.1711   -1.8488 H         1 <0>         0.1239
     27 H12        -1.7872    1.7324   -2.0059 H         1 <0>         0.1290
     28 H13        -3.1500    3.2967   -3.4621 H         1 <0>         0.1216
     29 H14        -3.8959    4.7149   -2.6870 H         1 <0>         0.1223
     30 H15        -2.1437    4.6901   -2.9995 H         1 <0>         0.1207
     31 H16        -3.7938    2.3584    0.0543 H         1 <0>         0.1225
     32 H17        -4.8311    3.3934   -0.9562 H         1 <0>         0.1221
     33 H18        -4.1401    1.8976   -1.6297 H         1 <0>         0.1222
     34 N2         -2.7755    3.5039   -1.3837 N.4       1 <0>        -0.3991
     35 H19        -2.6110    4.2647   -0.7140 H         1 <0>         0.4320
@<TRIPOS>BOND
     1    1    2 1
     2    1   16 1
     3    1   17 1
     4    1   18 1
     5    2    6 1
     6    2    3 1
     7    3    4 2
     8    3   19 1
     9    4    5 1
    10    4   12 1
    11    5   10 ar
    12    5    6 ar
    13    6    7 ar
    14    7    8 ar
    15    7   20 1
    16    8    9 ar
    17    8   21 1
    18    9   10 ar
    19    9   22 1
    20   10   11 1
    21   11   23 1
    22   12   13 1
    23   12   24 1
    24   12   25 1
    25   13   26 1
    26   13   27 1
    27   13   34 1
    28   14   28 1
    29   14   29 1
    30   14   30 1
    31   14   34 1
    32   15   31 1
    33   15   32 1
    34   15   33 1
    35   15   34 1
    36   34   35 1
@<TRIPOS>MOLECULE
ZINC13679042
   25    26     0     0     0
SMALL
USER_CHARGES
1-(2-aminoethyl)indazol-6-ol
@<TRIPOS>ATOM
      1 C1         -0.4007    4.9069    3.6001 C.ar      1 <0>        -0.1747
      2 C2         -1.2851    3.8939    3.8270 C.ar      1 <0>        -0.0126
      3 C3         -1.3186    2.7922    2.9648 C.ar      1 <0>        -0.1853
      4 C4         -2.1151    1.5700    2.9154 C.2       1 <0>         0.1090
      5 N1         -1.7229    0.8808    1.8824 N.2       1 <0>        -0.2565
      6 N2         -0.6984    1.5583    1.2133 N.pl3     1 <0>        -0.4233
      7 C5         -0.4348    2.7324    1.8697 C.ar      1 <0>         0.1384
      8 C6          0.4569    3.7785    1.6508 C.ar      1 <0>        -0.1853
      9 C7          0.4729    4.8559    2.5147 C.ar      1 <0>         0.1735
     10 O1          1.3472    5.8750    2.3049 O.3       1 <0>        -0.4956
     11 C8         -0.0127    1.0858    0.0080 C.3       1 <0>         0.1240
     12 C9         -0.7527    1.5927   -1.2315 C.3       1 <0>        -0.0280
     13 H1         -0.3770    5.7562    4.2668 H         1 <0>         0.1424
     14 H2         -1.9579    3.9417    4.6705 H         1 <0>         0.1428
     15 H3         -2.8915    1.2878    3.6111 H         1 <0>         0.2075
     16 H4          1.1362    3.7457    0.8118 H         1 <0>         0.1290
     17 H5          2.1998    5.7589    2.7461 H         1 <0>         0.4030
     18 H6          0.0021   -0.0041    0.0020 H         1 <0>         0.1161
     19 H7          1.0099    1.4631    0.0003 H         1 <0>         0.1088
     20 H8         -1.7753    1.2154   -1.2238 H         1 <0>         0.1434
     21 H9         -0.7675    2.6825   -1.2255 H         1 <0>         0.1359
     22 H10         0.0187    0.1134   -2.4378 H         1 <0>         0.4405
     23 H11        -0.5350    1.4407   -3.2731 H         1 <0>         0.4465
     24 N3         -0.0427    1.1302   -2.4371 N.4       1 <0>        -0.6408
     25 H12         0.9060    1.5231   -2.4416 H         1 <0>         0.4413
@<TRIPOS>BOND
     1    1    9 ar
     2    1    2 ar
     3    1   13 1
     4    2    3 ar
     5    2   14 1
     6    3    7 ar
     7    3    4 1
     8    4    5 2
     9    4   15 1
    10    5    6 1
    11    6    7 1
    12    6   11 1
    13    7    8 ar
    14    8    9 ar
    15    8   16 1
    16    9   10 1
    17   10   17 1
    18   11   12 1
    19   11   18 1
    20   11   19 1
    21   12   20 1
    22   12   21 1
    23   12   24 1
    24   22   24 1
    25   23   24 1
    26   24   25 1
@<TRIPOS>MOLECULE
ZINC13679046
   31    32     0     0     0
SMALL
USER_CHARGES
(2S)-1-(6-methoxyindazol-1-yl)propan-2-amine
@<TRIPOS>ATOM
      1 C1         -0.0187    1.5258    0.0104 C.3       1 <0>        -0.1827
      2 C2          0.0021   -0.0041    0.0020 C.3       1 <0>         0.0126
      3 H1         -1.0205   -0.3814    0.0098 H         1 <0>         0.1429
      4 C3          0.7182   -0.4975   -1.2568 C.3       1 <0>         0.1255
      5 N1          0.6341   -1.9585   -1.3255 N.pl3     1 <0>        -0.4411
      6 C4         -0.3652   -2.6695   -1.9375 C.ar      1 <0>         0.1650
      7 C5         -1.5191   -2.3095   -2.6284 C.ar      1 <0>        -0.1985
      8 C6         -2.3451   -3.2911   -3.1388 C.ar      1 <0>         0.1944
      9 C7         -2.0331   -4.6396   -2.9675 C.ar      1 <0>        -0.2283
     10 C8         -0.9074   -5.0110   -2.2940 C.ar      1 <0>         0.0092
     11 C9         -0.0553   -4.0328   -1.7682 C.ar      1 <0>        -0.2163
     12 C10         1.1942   -4.0782   -1.0151 C.2       1 <0>         0.1228
     13 N2          1.5637   -2.8513   -0.7825 N.2       1 <0>        -0.2896
     14 O1         -3.4713   -2.9405   -3.8138 O.3       1 <0>        -0.3105
     15 C11        -4.2834   -4.0031   -4.3171 C.3       1 <0>         0.0223
     16 H2          1.0039    1.9031    0.0027 H         1 <0>         0.0876
     17 H3         -0.5459    1.8868   -0.8726 H         1 <0>         0.1106
     18 H4         -0.5289    1.8773    0.9072 H         1 <0>         0.0905
     19 H5          0.2444   -0.0644   -2.1377 H         1 <0>         0.1335
     20 H6          1.7648   -0.1951   -1.2215 H         1 <0>         0.1183
     21 H7         -1.7671   -1.2672   -2.7641 H         1 <0>         0.1347
     22 H8         -2.6889   -5.3963   -3.3722 H         1 <0>         0.1419
     23 H9         -0.6737   -6.0576   -2.1662 H         1 <0>         0.1408
     24 H10         1.7207   -4.9702   -0.7090 H         1 <0>         0.2055
     25 H11        -5.1480   -3.5863   -4.8335 H         1 <0>         0.1094
     26 H12        -3.7010   -4.6072   -5.0128 H         1 <0>         0.0636
     27 H13        -4.6205   -4.6264   -3.4889 H         1 <0>         0.0629
     28 H14         0.6843   -1.4980    1.2434 H         1 <0>         0.4377
     29 H15         1.6637   -0.1543    1.2082 H         1 <0>         0.4368
     30 N3          0.6985   -0.4800    1.2102 N.4       1 <0>        -0.6421
     31 H16         0.2222   -0.1110    2.0417 H         1 <0>         0.4408
@<TRIPOS>BOND
     1    1    2 1
     2    1   16 1
     3    1   17 1
     4    1   18 1
     5    2    3 1
     6    2    4 1
     7    2   30 1
     8    4    5 1
     9    4   19 1
    10    4   20 1
    11    5   13 1
    12    5    6 1
    13    6   11 ar
    14    6    7 ar
    15    7    8 ar
    16    7   21 1
    17    8    9 ar
    18    8   14 1
    19    9   10 ar
    20    9   22 1
    21   10   11 ar
    22   10   23 1
    23   11   12 1
    24   12   13 2
    25   12   24 1
    26   14   15 1
    27   15   25 1
    28   15   26 1
    29   15   27 1
    30   28   30 1
    31   29   30 1
    32   30   31 1
@<TRIPOS>MOLECULE
ZINC13679048
   31    32     0     0     0
SMALL
USER_CHARGES
1-[(2S)-2-aminopropyl]-7-methyl-indazol-6-ol
@<TRIPOS>ATOM
      1 C1         -1.7951   -1.3505    2.8314 C.3       1 <0>        -0.1172
      2 C2         -2.2701   -0.5601    4.0232 C.ar      1 <0>        -0.1477
      3 C3         -3.2616   -1.0660    4.8408 C.ar      1 <0>         0.1722
      4 C4         -3.7072   -0.3417    5.9455 C.ar      1 <0>        -0.1679
      5 C5         -3.1712    0.8778    6.2378 C.ar      1 <0>        -0.0202
      6 C6         -2.1655    1.4099    5.4233 C.ar      1 <0>        -0.1865
      7 C7         -1.7113    0.6831    4.3055 C.ar      1 <0>         0.1422
      8 N1         -0.7392    1.4432    3.7087 N.pl3     1 <0>        -0.4378
      9 N2         -0.5744    2.6269    4.4353 N.2       1 <0>        -0.2835
     10 C8         -1.3957    2.6500    5.4456 C.2       1 <0>         0.1169
     11 C9          0.0111    1.0724    2.5063 C.3       1 <0>         0.1175
     12 C10        -0.7288    1.5792    1.2668 C.3       1 <0>         0.0088
     13 H1         -1.7514    1.2020    1.2746 H         1 <0>         0.1432
     14 C11        -0.0127    1.0858    0.0080 C.3       1 <0>        -0.1835
     15 O1         -3.8076   -2.2797    4.5659 O.3       1 <0>        -0.4915
     16 H2         -0.9674   -1.9944    3.1289 H         1 <0>         0.0748
     17 H3         -2.6132   -1.9625    2.4518 H         1 <0>         0.0860
     18 H4         -1.4609   -0.6664    2.0514 H         1 <0>         0.0553
     19 H5         -4.4835   -0.7500    6.5756 H         1 <0>         0.1429
     20 H6         -3.5221    1.4315    7.0961 H         1 <0>         0.1419
     21 H7         -1.4877    3.4431    6.1729 H         1 <0>         0.2073
     22 H8          0.1037   -0.0125    2.4560 H         1 <0>         0.1382
     23 H9          1.0041    1.5203    2.5452 H         1 <0>         0.1189
     24 H10         0.0021   -0.0041    0.0020 H         1 <0>         0.1106
     25 H11         1.0099    1.4631    0.0003 H         1 <0>         0.0890
     26 H12        -0.5399    1.4469   -0.8751 H         1 <0>         0.0922
     27 H13        -1.2723    3.3983    2.0632 H         1 <0>         0.4379
     28 H14         0.1882    3.4225    1.2680 H         1 <0>         0.4372
     29 H15        -3.3525   -3.0207    4.9888 H         1 <0>         0.4029
     30 N3         -0.7608    3.0524    1.2530 N.4       1 <0>        -0.6414
     31 H16        -1.2315    3.3718    0.3982 H         1 <0>         0.4414
@<TRIPOS>BOND
     1    1    2 1
     2    1   16 1
     3    1   17 1
     4    1   18 1
     5    2    7 ar
     6    2    3 ar
     7    3    4 ar
     8    3   15 1
     9    4    5 ar
    10    4   19 1
    11    5    6 ar
    12    5   20 1
    13    6   10 1
    14    6    7 ar
    15    7    8 1
    16    8    9 1
    17    8   11 1
    18    9   10 2
    19   10   21 1
    20   11   12 1
    21   11   22 1
    22   11   23 1
    23   12   13 1
    24   12   14 1
    25   12   30 1
    26   14   24 1
    27   14   25 1
    28   14   26 1
    29   15   29 1
    30   27   30 1
    31   28   30 1
    32   30   31 1
@<TRIPOS>MOLECULE
ZINC13679054
   28    29     0     0     0
SMALL
USER_CHARGES
1-[(2S)-2-aminopropyl]-7-iodo-indazol-6-ol
@<TRIPOS>ATOM
      1 C1         -0.0127    1.0858    0.0080 C.3       1 <0>        -0.1821
      2 C2         -0.7288    1.5792    1.2668 C.3       1 <0>         0.0093
      3 H1         -1.7514    1.2020    1.2746 H         1 <0>         0.1405
      4 C3          0.0111    1.0724    2.5063 C.3       1 <0>         0.1048
      5 N1         -0.7392    1.4432    3.7087 N.pl3     1 <0>        -0.4330
      6 C4         -1.7114    0.6831    4.3055 C.ar      1 <0>         0.1675
      7 C5         -2.1653    1.4097    5.4235 C.ar      1 <0>        -0.1864
      8 C6         -3.1710    0.8775    6.2382 C.ar      1 <0>         0.0073
      9 C7         -3.7071   -0.3421    5.9462 C.ar      1 <0>        -0.1711
     10 C8         -3.2623   -1.0663    4.8412 C.ar      1 <0>         0.2157
     11 C9         -2.2706   -0.5603    4.0231 C.ar      1 <0>        -0.1763
     12 I1         -1.6117   -1.6586    2.3652 I         1 <0>        -0.0191
     13 O1         -3.8091   -2.2798    4.5661 O.3       1 <0>        -0.4820
     14 C10        -1.3954    2.6497    5.4459 C.2       1 <0>         0.1233
     15 N2         -0.5744    2.6269    4.4353 N.2       1 <0>        -0.2767
     16 H2          0.0021   -0.0041    0.0020 H         1 <0>         0.1070
     17 H3          1.0099    1.4631    0.0003 H         1 <0>         0.0920
     18 H4         -0.5399    1.4469   -0.8751 H         1 <0>         0.0956
     19 H5          0.1037   -0.0125    2.4560 H         1 <0>         0.1393
     20 H6          1.0041    1.5203    2.5452 H         1 <0>         0.1247
     21 H7         -3.5221    1.4315    7.0962 H         1 <0>         0.1503
     22 H8         -4.4829   -0.7506    6.5768 H         1 <0>         0.1525
     23 H9         -3.3541   -3.0211    4.9886 H         1 <0>         0.4084
     24 H10        -1.4869    3.4424    6.1737 H         1 <0>         0.2120
     25 H11        -1.2723    3.3983    2.0632 H         1 <0>         0.4371
     26 H12         0.1882    3.4225    1.2680 H         1 <0>         0.4378
     27 N3         -0.7608    3.0524    1.2530 N.4       1 <0>        -0.6405
     28 H13        -1.2315    3.3718    0.3982 H         1 <0>         0.4423
@<TRIPOS>BOND
     1    1    2 1
     2    1   16 1
     3    1   17 1
     4    1   18 1
     5    2    3 1
     6    2    4 1
     7    2   27 1
     8    4    5 1
     9    4   19 1
    10    4   20 1
    11    5   15 1
    12    5    6 1
    13    6   11 ar
    14    6    7 ar
    15    7    8 ar
    16    7   14 1
    17    8    9 ar
    18    8   21 1
    19    9   10 ar
    20    9   22 1
    21   10   11 ar
    22   10   13 1
    23   11   12 1
    24   13   23 1
    25   14   15 2
    26   14   24 1
    27   25   27 1
    28   26   27 1
    29   27   28 1
@<TRIPOS>MOLECULE
ZINC04364558
   61    63     0     0     0
SMALL
USER_CHARGES

@<TRIPOS>ATOM
      1 C1         -0.0184    1.5028    0.0103 C.3       1 <0>        -0.1293
      2 C2          0.0021   -0.0041    0.0020 C.ar      1 <0>        -0.0228
      3 C3          0.0057   -0.6887   -1.1989 C.ar      1 <0>        -0.1410
      4 C4          0.0245   -2.0709   -1.2065 C.ar      1 <0>        -0.0137
      5 C5          0.0400   -2.7685   -0.0132 C.ar      1 <0>        -0.6874
      6 C6          0.0373   -2.0839    1.1877 C.ar      1 <0>        -0.0204
      7 C7          0.0229   -0.7016    1.1953 C.ar      1 <0>        -0.1428
      8 S1          0.0628   -4.5303   -0.0229 S.o2      1 <0>         2.6949
      9 O1         -0.4759   -4.9503    1.2232 O.2       1 <0>        -0.9529
     10 O2         -0.4897   -4.9367   -1.2674 O.2       1 <0>        -0.9502
     11 N1          1.6509   -4.9994   -0.0343 N.pl3     1 <0>        -1.1200
     12 C8          2.5116   -4.6990    1.1125 C.3       1 <0>         0.1150
     13 C9          3.7866   -5.5405    1.0275 C.3       1 <0>        -0.1251
     14 C10         4.6855   -5.2267    2.2252 C.3       1 <0>        -0.1493
     15 C11         5.9605   -6.0682    2.1402 C.3       1 <0>        -0.0089
     16 N2          6.8236   -5.7669    3.2901 N.4       1 <0>        -0.3796
     17 C12         7.2637   -4.3680    3.2162 C.3       1 <0>        -0.0273
     18 C13         8.0690   -4.0200    4.4724 C.3       1 <0>         0.1235
     19 N3          9.1627   -4.9941    4.6100 N.pl3     1 <0>        -0.6645
     20 C14         8.8306   -6.4251    4.5309 C.3       1 <0>         0.1229
     21 C15         7.9894   -6.6596    3.2719 C.3       1 <0>        -0.0218
     22 C16        10.4819   -4.5715    4.8109 C.ar      1 <0>         0.1113
     23 C17        10.9666   -4.3931    6.0984 C.ar      1 <0>        -0.0783
     24 C18        12.2698   -3.9761    6.2942 C.ar      1 <0>        -0.1457
     25 C19        13.0927   -3.7361    5.2094 C.ar      1 <0>        -0.0681
     26 C20        12.6164   -3.9119    3.9232 C.ar      1 <0>        -0.2019
     27 C21        11.3134   -4.3346    3.7185 C.ar      1 <0>         0.1235
     28 O3         10.8452   -4.5129    2.4540 O.3       1 <0>        -0.3191
     29 C22        11.7540   -4.2509    1.3828 C.3       1 <0>         0.0226
     30 H1          1.0042    1.8801    0.0026 H         1 <0>         0.0810
     31 H2         -0.5455    1.8639   -0.8728 H         1 <0>         0.0763
     32 H3         -0.5286    1.8543    0.9071 H         1 <0>         0.0756
     33 H4         -0.0064   -0.1436   -2.1312 H         1 <0>         0.1356
     34 H5          0.0266   -2.6057   -2.1448 H         1 <0>         0.1415
     35 H6          0.0491   -2.6289    2.1200 H         1 <0>         0.1390
     36 H7          0.0245   -0.1667    2.1335 H         1 <0>         0.1342
     37 H8          2.0112   -5.4731   -0.8002 H         1 <0>         0.4211
     38 H9          2.7734   -3.6409    1.1030 H         1 <0>         0.0689
     39 H10         1.9820   -4.9339    2.0358 H         1 <0>         0.0852
     40 H11         3.5249   -6.5986    1.0370 H         1 <0>         0.0861
     41 H12         4.3162   -5.3055    0.1043 H         1 <0>         0.0831
     42 H13         4.9473   -4.1686    2.2156 H         1 <0>         0.0907
     43 H14         4.1560   -5.4617    3.1484 H         1 <0>         0.0931
     44 H15         5.6988   -7.1263    2.1497 H         1 <0>         0.1322
     45 H16         6.4901   -5.8332    1.2169 H         1 <0>         0.1292
     46 H17         7.8887   -4.2298    2.3339 H         1 <0>         0.1327
     47 H18         6.3927   -3.7160    3.1506 H         1 <0>         0.1348
     48 H19         8.4826   -3.0161    4.3759 H         1 <0>         0.1124
     49 H20         7.4217   -4.0700    5.3480 H         1 <0>         0.0771
     50 H21         9.7477   -7.0113    4.4731 H         1 <0>         0.1131
     51 H22         8.2602   -6.7179    5.4124 H         1 <0>         0.0774
     52 H23         7.6531   -7.6961    3.2474 H         1 <0>         0.1342
     53 H24         8.5924   -6.4520    2.3880 H         1 <0>         0.1324
     54 H25        10.3257   -4.5795    6.9475 H         1 <0>         0.1317
     55 H26        12.6460   -3.8371    7.2969 H         1 <0>         0.1318
     56 H27        14.1102   -3.4101    5.3671 H         1 <0>         0.1320
     57 H28        13.2619   -3.7235    3.0780 H         1 <0>         0.1331
     58 H29        12.0817   -3.2124    1.4300 H         1 <0>         0.0594
     59 H30        12.6184   -4.9091    1.4705 H         1 <0>         0.0596
     60 H31        11.2550   -4.4315    0.4307 H         1 <0>         0.1011
     61 H32         6.3057   -5.9094    4.1442 H         1 <0>         0.4210
@<TRIPOS>BOND
     1    1    2 1
     2    1   30 1
     3    1   31 1
     4    1   32 1
     5    2    7 ar
     6    2    3 ar
     7    3    4 ar
     8    3   33 1
     9    4    5 ar
    10    4   34 1
    11    5    6 ar
    12    5    8 1
    13    6    7 ar
    14    6   35 1
    15    7   36 1
    16    8    9 2
    17    8   10 2
    18    8   11 1
    19   11   12 1
    20   11   37 1
    21   12   13 1
    22   12   38 1
    23   12   39 1
    24   13   14 1
    25   13   40 1
    26   13   41 1
    27   14   15 1
    28   14   42 1
    29   14   43 1
    30   15   16 1
    31   15   44 1
    32   15   45 1
    33   16   21 1
    34   16   17 1
    35   16   61 1
    36   17   18 1
    37   17   46 1
    38   17   47 1
    39   18   19 1
    40   18   48 1
    41   18   49 1
    42   19   20 1
    43   19   22 1
    44   20   21 1
    45   20   50 1
    46   20   51 1
    47   21   52 1
    48   21   53 1
    49   22   27 ar
    50   22   23 ar
    51   23   24 ar
    52   23   54 1
    53   24   25 ar
    54   24   55 1
    55   25   26 ar
    56   25   56 1
    57   26   27 ar
    58   26   57 1
    59   27   28 1
    60   28   29 1
    61   29   58 1
    62   29   59 1
    63   29   60 1
@<TRIPOS>MOLECULE
ZINC04364558
   60    62     0     0     0
SMALL
USER_CHARGES

@<TRIPOS>ATOM
      1 C1         -0.0184    1.5028    0.0103 C.3       1 <0>        -0.1265
      2 C2          0.0021   -0.0041    0.0020 C.ar      1 <0>        -0.0275
      3 C3          0.0057   -0.6887   -1.1989 C.ar      1 <0>        -0.1431
      4 C4          0.0245   -2.0709   -1.2065 C.ar      1 <0>        -0.0146
      5 C5          0.0400   -2.7685   -0.0132 C.ar      1 <0>        -0.6844
      6 C6          0.0373   -2.0839    1.1877 C.ar      1 <0>        -0.0172
      7 C7          0.0229   -0.7016    1.1953 C.ar      1 <0>        -0.1424
      8 S1          0.0628   -4.5303   -0.0229 S.o2      1 <0>         2.6953
      9 O1         -0.4759   -4.9503    1.2232 O.2       1 <0>        -0.9548
     10 O2         -0.4897   -4.9367   -1.2674 O.2       1 <0>        -0.9584
     11 N1          1.6509   -4.9994   -0.0343 N.pl3     1 <0>        -1.1174
     12 C8          2.5116   -4.6990    1.1125 C.3       1 <0>         0.1155
     13 C9          3.7866   -5.5405    1.0275 C.3       1 <0>        -0.1250
     14 C10         4.6855   -5.2267    2.2252 C.3       1 <0>        -0.1158
     15 C11         5.9605   -6.0682    2.1402 C.3       1 <0>         0.0568
     16 N2          6.8236   -5.7669    3.2901 N.3       1 <0>        -0.5346
     17 C12         7.3070   -4.3808    3.2366 C.3       1 <0>         0.0389
     18 C13         8.0496   -4.0518    4.5360 C.3       1 <0>         0.1536
     19 N3          9.0930   -5.0666    4.7476 N.pl3     1 <0>        -0.6688
     20 C14         8.7088   -6.4846    4.6786 C.3       1 <0>         0.1537
     21 C15         7.9402   -6.7178    3.3736 C.3       1 <0>         0.0421
     22 C16        10.4165   -4.6927    5.0080 C.ar      1 <0>         0.1391
     23 C17        10.8423   -4.5070    6.3152 C.ar      1 <0>        -0.0868
     24 C18        12.1498   -4.1382    6.5698 C.ar      1 <0>        -0.1512
     25 C19        13.0357   -3.9538    5.5245 C.ar      1 <0>        -0.0842
     26 C20        12.6183   -4.1371    4.2190 C.ar      1 <0>        -0.2069
     27 C21        11.3112   -4.5118    3.9556 C.ar      1 <0>         0.1174
     28 O3         10.9007   -4.6975    2.6723 O.3       1 <0>        -0.3056
     29 C22        11.8724   -4.4943    1.6444 C.3       1 <0>         0.0254
     30 H1          1.0042    1.8801    0.0026 H         1 <0>         0.0801
     31 H2         -0.5455    1.8639   -0.8728 H         1 <0>         0.0736
     32 H3         -0.5286    1.8543    0.9071 H         1 <0>         0.0738
     33 H4         -0.0064   -0.1436   -2.1312 H         1 <0>         0.1332
     34 H5          0.0266   -2.6057   -2.1448 H         1 <0>         0.1403
     35 H6          0.0491   -2.6289    2.1200 H         1 <0>         0.1408
     36 H7          0.0245   -0.1667    2.1335 H         1 <0>         0.1337
     37 H8          2.0112   -5.4731   -0.8002 H         1 <0>         0.4194
     38 H9          2.7734   -3.6409    1.1030 H         1 <0>         0.0651
     39 H10         1.9820   -4.9339    2.0358 H         1 <0>         0.0829
     40 H11         3.5249   -6.5986    1.0370 H         1 <0>         0.0747
     41 H12         4.3162   -5.3055    0.1043 H         1 <0>         0.0694
     42 H13         4.9473   -4.1686    2.2156 H         1 <0>         0.0657
     43 H14         4.1560   -5.4617    3.1484 H         1 <0>         0.0773
     44 H15         5.6988   -7.1263    2.1497 H         1 <0>         0.0748
     45 H16         6.4901   -5.8332    1.2169 H         1 <0>         0.0318
     46 H17         7.9847   -4.2643    2.3908 H         1 <0>         0.0381
     47 H18         6.4601   -3.7045    3.1204 H         1 <0>         0.0792
     48 H19         8.5082   -3.0662    4.4562 H         1 <0>         0.0674
     49 H20         7.3498   -4.0665    5.3715 H         1 <0>         0.0567
     50 H21         9.6032   -7.1075    4.6931 H         1 <0>         0.0681
     51 H22         8.0723   -6.7332    5.5279 H         1 <0>         0.0570
     52 H23         7.5526   -7.7364    3.3568 H         1 <0>         0.0768
     53 H24         8.6091   -6.5688    2.5260 H         1 <0>         0.0386
     54 H25        10.1522   -4.6501    7.1336 H         1 <0>         0.1291
     55 H26        12.4802   -3.9935    7.5878 H         1 <0>         0.1247
     56 H27        14.0564   -3.6653    5.7281 H         1 <0>         0.1243
     57 H28        13.3129   -3.9922    3.4048 H         1 <0>         0.1266
     58 H29        11.4153   -4.6746    0.6715 H         1 <0>         0.0968
     59 H30        12.2394   -3.4689    1.6890 H         1 <0>         0.0538
     60 H31        12.7037   -5.1843    1.7888 H         1 <0>         0.0540
@<TRIPOS>BOND
     1    1    2 1
     2    1   30 1
     3    1   31 1
     4    1   32 1
     5    2    7 ar
     6    2    3 ar
     7    3    4 ar
     8    3   33 1
     9    4    5 ar
    10    4   34 1
    11    5    6 ar
    12    5    8 1
    13    6    7 ar
    14    6   35 1
    15    7   36 1
    16    8    9 2
    17    8   10 2
    18    8   11 1
    19   11   12 1
    20   11   37 1
    21   12   13 1
    22   12   38 1
    23   12   39 1
    24   13   14 1
    25   13   40 1
    26   13   41 1
    27   14   15 1
    28   14   42 1
    29   14   43 1
    30   15   16 1
    31   15   44 1
    32   15   45 1
    33   16   21 1
    34   16   17 1
    35   17   18 1
    36   17   46 1
    37   17   47 1
    38   18   19 1
    39   18   48 1
    40   18   49 1
    41   19   20 1
    42   19   22 1
    43   20   21 1
    44   20   50 1
    45   20   51 1
    46   21   52 1
    47   21   53 1
    48   22   27 ar
    49   22   23 ar
    50   23   24 ar
    51   23   54 1
    52   24   25 ar
    53   24   55 1
    54   25   26 ar
    55   25   56 1
    56   26   27 ar
    57   26   57 1
    58   27   28 1
    59   28   29 1
    60   29   58 1
    61   29   59 1
    62   29   60 1
@<TRIPOS>MOLECULE
ZINC05845906
   47    50     0     0     0
SMALL
USER_CHARGES
N,N-diethylBLAHcarboxamide
@<TRIPOS>ATOM
      1 C1         10.1154    4.0908    0.9629 C.3       1 <0>        -0.1689
      2 C2          9.3827    2.8749    0.3922 C.3       1 <0>         0.1059
      3 N1          8.0009    2.8649    0.8788 N.am      1 <0>        -0.5994
      4 C3          7.6685    2.1724    2.1263 C.3       1 <0>         0.0952
      5 C4          7.4223    0.6903    1.8369 C.3       1 <0>        -0.1777
      6 C5          7.0353    3.4927    0.1787 C.2       1 <0>         0.5275
      7 O1          7.2960    4.0041   -0.8897 O.2       1 <0>        -0.5215
      8 C6          5.6318    3.5591    0.7234 C.3       1 <0>        -0.1037
      9 H1          5.6614    3.5800    1.8128 H         1 <0>         0.1318
     10 C7          4.9344    4.8203    0.2009 C.3       1 <0>         0.0123
     11 C8          2.7678    3.7075    0.1065 C.3       1 <0>         0.0770
     12 H2          2.4882    4.0087   -0.9030 H         1 <0>         0.1432
     13 C9          1.4649    3.5406    0.9006 C.3       1 <0>        -0.0418
     14 C10         0.7175    2.3378    0.3870 C.2       1 <0>        -0.2020
     15 C11        -0.5543    1.9528    0.3780 C.2       1 <0>         0.0975
     16 N2         -0.6768    0.7107   -0.2254 N.pl3     1 <0>        -0.5870
     17 H3         -1.5125    0.2323   -0.3424 H         1 <0>         0.4251
     18 C12         0.5420    0.2565   -0.6301 C.ar      1 <0>         0.1110
     19 C13         1.4473    1.2572   -0.2660 C.ar      1 <0>        -0.1239
     20 C14         2.8384    1.2287   -0.4974 C.ar      1 <0>        -0.0315
     21 C15         3.3141    0.1000   -1.1249 C.ar      1 <0>        -0.1002
     22 C16         2.4291   -0.9121   -1.4903 C.ar      1 <0>        -0.0995
     23 C17         1.0578   -0.8723   -1.2655 C.ar      1 <0>        -0.0957
     24 C18         3.5615    2.4339   -0.0168 C.2       1 <0>        -0.0571
     25 C19         4.8510    2.3587    0.2604 C.2       1 <0>        -0.1318
     26 H4          9.6109    5.0024    0.6427 H         1 <0>         0.0578
     27 H5         10.1140    4.0379    2.0516 H         1 <0>         0.0583
     28 H6         11.1436    4.0983    0.6009 H         1 <0>         0.0748
     29 H7          9.8872    1.9633    0.7124 H         1 <0>         0.0855
     30 H8          9.3842    2.9278   -0.6965 H         1 <0>         0.0902
     31 H9          8.4957    2.2728    2.8290 H         1 <0>         0.0904
     32 H10         6.7696    2.6126    2.5579 H         1 <0>         0.0795
     33 H11         6.6661    0.5930    1.0579 H         1 <0>         0.0576
     34 H12         8.3502    0.2263    1.5026 H         1 <0>         0.0670
     35 H13         7.0751    0.1958    2.7441 H         1 <0>         0.0761
     36 H14         5.4408    5.7053    0.5861 H         1 <0>         0.1448
     37 H15         4.9603    4.8285   -0.8888 H         1 <0>         0.1508
     38 H16         0.8482    4.4312    0.7788 H         1 <0>         0.1024
     39 H17         1.6977    3.4007    1.9562 H         1 <0>         0.0943
     40 H18        -1.3758    2.5276    0.7793 H         1 <0>         0.1766
     41 H19         4.3689   -0.0006   -1.3337 H         1 <0>         0.1277
     42 H20         2.8350   -1.7850   -1.9798 H         1 <0>         0.1319
     43 H21         0.4160   -1.6853   -1.5713 H         1 <0>         0.1379
     44 H22         5.3579    1.4112    0.1523 H         1 <0>         0.1469
     45 N3          3.5405    4.8156    0.6902 N.4       1 <0>        -0.5113
     46 H23         3.0942    5.7044    0.4349 H         1 <0>         0.4451
     47 H24         3.5459    4.7166    1.7122 H         1 <0>         0.4312
@<TRIPOS>BOND
     1    1    2 1
     2    1   26 1
     3    1   27 1
     4    1   28 1
     5    2    3 1
     6    2   29 1
     7    2   30 1
     8    3    4 1
     9    3    6 am
    10    4    5 1
    11    4   31 1
    12    4   32 1
    13    5   33 1
    14    5   34 1
    15    5   35 1
    16    6    7 2
    17    6    8 1
    18    8    9 1
    19    8   25 1
    20    8   10 1
    21   10   36 1
    22   10   37 1
    23   10   45 1
    24   11   12 1
    25   11   24 1
    26   11   13 1
    27   11   45 1
    28   13   14 1
    29   13   38 1
    30   13   39 1
    31   14   19 1
    32   14   15 2
    33   15   16 1
    34   15   40 1
    35   16   17 1
    36   16   18 1
    37   18   23 ar
    38   18   19 ar
    39   19   20 ar
    40   20   21 ar
    41   20   24 1
    42   21   22 ar
    43   21   41 1
    44   22   23 ar
    45   22   42 1
    46   23   43 1
    47   24   25 2
    48   25   44 1
    49   45   46 1
    50   45   47 1
@<TRIPOS>MOLECULE
ZINC19498277
   32    34     0     0     0
SMALL
USER_CHARGES

@<TRIPOS>ATOM
      1 C1         -0.0187    1.5258    0.0104 C.3       1 <0>        -0.1459
      2 C2          0.0021   -0.0041    0.0020 C.3       1 <0>         0.1503
      3 H1          0.5118   -0.3585   -0.8939 H         1 <0>         0.0566
      4 C3         -1.4133   -0.5310    0.0228 C.2       1 <0>         0.0808
      5 C4         -1.8044   -1.5626    0.8055 C.2       1 <0>        -0.1627
      6 C5         -3.2126   -1.7775    0.5581 C.ar      1 <0>        -0.0615
      7 C6         -4.1392   -2.6910    1.0718 C.ar      1 <0>        -0.1056
      8 C7         -5.4373   -2.6014    0.5919 C.ar      1 <0>         0.0975
      9 C8         -5.8049   -1.6522   -0.3542 C.ar      1 <0>        -0.1827
     10 C9         -4.9023   -0.7419   -0.8739 C.ar      1 <0>        -0.0905
     11 C10        -3.5913   -0.8096   -0.4079 C.ar      1 <0>         0.0681
     12 N1         -2.4765   -0.0755   -0.7076 N.pl3     1 <0>        -0.5803
     13 H2         -2.4448    0.6576   -1.3420 H         1 <0>         0.4139
     14 O1         -6.3763   -3.4667    1.0598 O.3       1 <0>        -0.3214
     15 C11        -7.6990   -3.3346    0.5352 C.3       1 <0>         0.0278
     16 C12        -0.8742   -2.2991    1.7363 C.3       1 <0>        -0.0415
     17 C13         0.5672   -1.9526    1.3391 C.3       1 <0>         0.0578
     18 N2          0.7048   -0.4958    1.1981 N.3       1 <0>        -0.6822
     19 H3          1.0039    1.9031    0.0027 H         1 <0>         0.0663
     20 H4         -0.5459    1.8868   -0.8726 H         1 <0>         0.0575
     21 H5         -0.5289    1.8773    0.9072 H         1 <0>         0.0705
     22 H6         -3.8572   -3.4302    1.8069 H         1 <0>         0.1372
     23 H7         -6.8293   -1.6245   -0.6952 H         1 <0>         0.1285
     24 H8         -5.2013   -0.0099   -1.6095 H         1 <0>         0.1309
     25 H9         -8.3470   -4.0833    0.9909 H         1 <0>         0.0984
     26 H10        -8.0809   -2.3386    0.7592 H         1 <0>         0.0535
     27 H11        -7.6778   -3.4812   -0.5447 H         1 <0>         0.0533
     28 H12        -1.0583   -1.9868    2.7643 H         1 <0>         0.0784
     29 H13        -1.0340   -3.3733    1.6428 H         1 <0>         0.0755
     30 H14         1.2519   -2.3086    2.1088 H         1 <0>         0.0828
     31 H15         0.8074   -2.4309    0.3895 H         1 <0>         0.0359
     32 H16         1.6754   -0.2206    1.1860 H         1 <0>         0.3526
@<TRIPOS>BOND
     1    1    2 1
     2    1   19 1
     3    1   20 1
     4    1   21 1
     5    2    3 1
     6    2   18 1
     7    2    4 1
     8    4   12 1
     9    4    5 2
    10    5    6 1
    11    5   16 1
    12    6   11 ar
    13    6    7 ar
    14    7    8 ar
    15    7   22 1
    16    8    9 ar
    17    8   14 1
    18    9   10 ar
    19    9   23 1
    20   10   11 ar
    21   10   24 1
    22   11   12 1
    23   12   13 1
    24   14   15 1
    25   15   25 1
    26   15   26 1
    27   15   27 1
    28   16   17 1
    29   16   28 1
    30   16   29 1
    31   17   18 1
    32   17   30 1
    33   17   31 1
    34   18   32 1
@<TRIPOS>MOLECULE
ZINC19498278
   32    34     0     0     0
SMALL
USER_CHARGES

@<TRIPOS>ATOM
      1 C1         -0.0187    1.5258    0.0104 C.3       1 <0>        -0.1500
      2 C2          0.0021   -0.0041    0.0020 C.3       1 <0>         0.1472
      3 H1         -1.0194   -0.3843    0.0097 H         1 <0>         0.0997
      4 C3          0.7172   -0.4952   -1.2344 C.2       1 <0>         0.0488
      5 C4          1.6169   -1.5051   -1.2135 C.2       1 <0>        -0.1788
      6 C5          2.0860   -1.6884   -2.5688 C.ar      1 <0>        -0.0597
      7 C6          3.0062   -2.5706   -3.1446 C.ar      1 <0>        -0.1074
      8 C7          3.2114   -2.4555   -4.5115 C.ar      1 <0>         0.0990
      9 C8          2.5380   -1.5109   -5.2765 C.ar      1 <0>        -0.1827
     10 C9          1.6245   -0.6310   -4.7244 C.ar      1 <0>        -0.0898
     11 C10         1.3993   -0.7257   -3.3530 C.ar      1 <0>         0.0656
     12 N1          0.5802   -0.0241   -2.5114 N.pl3     1 <0>        -0.5777
     13 H2         -0.0090    0.6982   -2.7798 H         1 <0>         0.4148
     14 O1          4.0964   -3.2899   -5.1197 O.3       1 <0>        -0.3212
     15 C11         4.2732   -3.1324   -6.5289 C.3       1 <0>         0.0276
     16 C12         2.0004   -2.2509    0.0399 C.3       1 <0>        -0.0812
     17 C13         0.9477   -1.9463    1.1144 C.3       1 <0>         0.0544
     18 N2          0.7217   -0.4955    1.1881 N.3       1 <0>        -0.6686
     19 H3          1.0039    1.9031    0.0027 H         1 <0>         0.0604
     20 H4         -0.5459    1.8868   -0.8726 H         1 <0>         0.0598
     21 H5         -0.5289    1.8773    0.9072 H         1 <0>         0.0765
     22 H6          3.5319   -3.3058   -2.5533 H         1 <0>         0.1366
     23 H7          2.7347   -1.4618   -6.3373 H         1 <0>         0.1291
     24 H8          1.1081    0.0985   -5.3307 H         1 <0>         0.1313
     25 H9          5.0040   -3.8577   -6.8868 H         1 <0>         0.0989
     26 H10         3.3217   -3.2955   -7.0350 H         1 <0>         0.0537
     27 H11         4.6289   -2.1239   -6.7401 H         1 <0>         0.0537
     28 H12         2.0226   -3.3220   -0.1610 H         1 <0>         0.0788
     29 H13         2.9812   -1.9190    0.3805 H         1 <0>         0.0722
     30 H14         0.0126   -2.4444    0.8584 H         1 <0>         0.0762
     31 H15         1.2994   -2.3080    2.0806 H         1 <0>         0.0863
     32 H16         1.5931   -0.0023    1.3125 H         1 <0>         0.3464
@<TRIPOS>BOND
     1    1    2 1
     2    1   19 1
     3    1   20 1
     4    1   21 1
     5    2    3 1
     6    2   18 1
     7    2    4 1
     8    4   12 1
     9    4    5 2
    10    5    6 1
    11    5   16 1
    12    6   11 ar
    13    6    7 ar
    14    7    8 ar
    15    7   22 1
    16    8    9 ar
    17    8   14 1
    18    9   10 ar
    19    9   23 1
    20   10   11 ar
    21   10   24 1
    22   11   12 1
    23   12   13 1
    24   14   15 1
    25   15   25 1
    26   15   26 1
    27   15   27 1
    28   16   17 1
    29   16   28 1
    30   16   29 1
    31   17   18 1
    32   17   30 1
    33   17   31 1
    34   18   32 1
@<TRIPOS>MOLECULE
ZINC03917109
   63    66     0     0     0
SMALL
USER_CHARGES

@<TRIPOS>ATOM
      1 C1         -0.0173    1.4248    0.0099 C.3       1 <0>         0.0228
      2 O1          0.0021   -0.0041    0.0020 O.3       1 <0>        -0.3111
      3 C2          0.6063   -0.6076   -1.0566 C.ar      1 <0>         0.1291
      4 C3          1.1727    0.1584   -2.0619 C.ar      1 <0>        -0.2022
      5 C4          1.7862   -0.4565   -3.1379 C.ar      1 <0>        -0.0669
      6 C5          1.8369   -1.8361   -3.2138 C.ar      1 <0>        -0.1491
      7 C6          1.2745   -2.6077   -2.2144 C.ar      1 <0>        -0.0822
      8 C7          0.6620   -1.9977   -1.1294 C.ar      1 <0>         0.1088
      9 N1          0.0968   -2.7768   -0.1132 N.pl3     1 <0>        -0.6636
     10 C8         -1.3057   -3.2146   -0.1871 C.3       1 <0>         0.1216
     11 C9         -1.3569   -4.7253    0.0636 C.3       1 <0>        -0.0220
     12 N2         -0.6925   -5.0320    1.3366 N.4       1 <0>        -0.3806
     13 C10         0.7338   -4.6939    1.2505 C.3       1 <0>        -0.0274
     14 C11         0.8902   -3.1864    1.0559 C.3       1 <0>         0.1218
     15 C12        -0.8376   -6.4641    1.6301 C.3       1 <0>        -0.0087
     16 C13        -0.2558   -6.7628    3.0132 C.3       1 <0>        -0.1461
     17 C14        -0.4069   -8.2543    3.3189 C.3       1 <0>        -0.1300
     18 C15         0.1750   -8.5530    4.7020 C.3       1 <0>         0.1193
     19 N3          0.0302   -9.9811    4.9947 N.am      1 <0>        -0.7331
     20 C16         0.4752  -10.4775    6.1660 C.2       1 <0>         0.5643
     21 O2          0.9967   -9.7401    6.9797 O.2       1 <0>        -0.5315
     22 C17         0.3293  -11.9181    6.4612 C.ar      1 <0>        -0.1484
     23 C18        -0.2697  -12.7675    5.5136 C.ar      1 <0>        -0.0967
     24 C19        -0.4150  -14.0939    5.7614 C.ar      1 <0>        -0.1051
     25 C20         0.0356  -14.6361    6.9791 C.ar      1 <0>        -0.0320
     26 C21        -0.1038  -16.0058    7.2582 C.ar      1 <0>        -0.1147
     27 C22         0.3421  -16.5017    8.4450 C.ar      1 <0>        -0.0983
     28 C23         0.9368  -15.6705    9.3925 C.ar      1 <0>        -0.1143
     29 C24         1.0892  -14.3386    9.1579 C.ar      1 <0>        -0.0963
     30 C25         0.6411  -13.7901    7.9427 C.ar      1 <0>        -0.0651
     31 C26         0.7884  -12.4225    7.6665 C.ar      1 <0>        -0.0245
     32 H1          1.0053    1.8021    0.0021 H         1 <0>         0.0589
     33 H2         -0.5445    1.7859   -0.8732 H         1 <0>         0.0589
     34 H3         -0.5275    1.7763    0.9067 H         1 <0>         0.1037
     35 H4          1.1348    1.2363   -2.0057 H         1 <0>         0.1341
     36 H5          2.2267    0.1425   -3.9212 H         1 <0>         0.1320
     37 H6          2.3168   -2.3119   -4.0562 H         1 <0>         0.1305
     38 H7          1.3151   -3.6852   -2.2764 H         1 <0>         0.1264
     39 H8         -1.8914   -2.6971    0.5728 H         1 <0>         0.0778
     40 H9         -1.7068   -2.9936   -1.1762 H         1 <0>         0.1138
     41 H10        -2.3961   -5.0513    0.1082 H         1 <0>         0.1357
     42 H11        -0.8470   -5.2457   -0.7471 H         1 <0>         0.1295
     43 H12         1.2353   -4.9969    2.1697 H         1 <0>         0.1375
     44 H13         1.1804   -5.2153    0.4039 H         1 <0>         0.1298
     45 H14         1.9402   -2.9468    0.8881 H         1 <0>         0.1137
     46 H15         0.5300   -2.6661    1.9434 H         1 <0>         0.0774
     47 H16        -1.8938   -6.7330    1.6144 H         1 <0>         0.1318
     48 H17        -0.3036   -7.0450    0.8781 H         1 <0>         0.1294
     49 H18         0.8004   -6.4939    3.0289 H         1 <0>         0.0916
     50 H19        -0.7898   -6.1819    3.7652 H         1 <0>         0.0922
     51 H20        -1.4631   -8.5232    3.3032 H         1 <0>         0.0826
     52 H21         0.1271   -8.8352    2.5669 H         1 <0>         0.0820
     53 H22         1.2312   -8.2841    4.7177 H         1 <0>         0.0723
     54 H23        -0.3590   -7.9721    5.4540 H         1 <0>         0.0726
     55 H24        -0.3859  -10.5695    4.3454 H         1 <0>         0.4021
     56 H25        -0.6188  -12.3588    4.5768 H         1 <0>         0.1223
     57 H26        -0.8770  -14.7335    5.0239 H         1 <0>         0.1343
     58 H27        -0.5632  -16.6627    6.5343 H         1 <0>         0.1320
     59 H28         0.2331  -17.5553    8.6557 H         1 <0>         0.1293
     60 H29         1.2814  -16.0892   10.3264 H         1 <0>         0.1298
     61 H30         1.5515  -13.7060    9.9012 H         1 <0>         0.1331
     62 H31         1.2517  -11.7677    8.3897 H         1 <0>         0.1429
     63 H32        -1.1202   -4.4947    2.0759 H         1 <0>         0.4226
@<TRIPOS>BOND
     1    1    2 1
     2    1   32 1
     3    1   33 1
     4    1   34 1
     5    2    3 1
     6    3    8 ar
     7    3    4 ar
     8    4    5 ar
     9    4   35 1
    10    5    6 ar
    11    5   36 1
    12    6    7 ar
    13    6   37 1
    14    7    8 ar
    15    7   38 1
    16    8    9 1
    17    9   14 1
    18    9   10 1
    19   10   11 1
    20   10   39 1
    21   10   40 1
    22   11   12 1
    23   11   41 1
    24   11   42 1
    25   12   13 1
    26   12   15 1
    27   12   63 1
    28   13   14 1
    29   13   43 1
    30   13   44 1
    31   14   45 1
    32   14   46 1
    33   15   16 1
    34   15   47 1
    35   15   48 1
    36   16   17 1
    37   16   49 1
    38   16   50 1
    39   17   18 1
    40   17   51 1
    41   17   52 1
    42   18   19 1
    43   18   53 1
    44   18   54 1
    45   19   20 am
    46   19   55 1
    47   20   21 2
    48   20   22 1
    49   22   31 ar
    50   22   23 ar
    51   23   24 ar
    52   23   56 1
    53   24   25 ar
    54   24   57 1
    55   25   30 ar
    56   25   26 ar
    57   26   27 ar
    58   26   58 1
    59   27   28 ar
    60   27   59 1
    61   28   29 ar
    62   28   60 1
    63   29   30 ar
    64   29   61 1
    65   30   31 ar
    66   31   62 1
@<TRIPOS>MOLECULE
ZINC03917109
   62    65     0     0     0
SMALL
USER_CHARGES

@<TRIPOS>ATOM
      1 C1         -0.0173    1.4248    0.0099 C.3       1 <0>         0.0251
      2 O1          0.0021   -0.0041    0.0020 O.3       1 <0>        -0.3039
      3 C2         -1.2013   -0.6380    0.0101 C.ar      1 <0>         0.1197
      4 C3         -2.3740    0.0989    0.0195 C.ar      1 <0>        -0.2065
      5 C4         -3.5967   -0.5469    0.0283 C.ar      1 <0>        -0.0836
      6 C5         -3.6532   -1.9283    0.0271 C.ar      1 <0>        -0.1523
      7 C6         -2.4875   -2.6710    0.0173 C.ar      1 <0>        -0.0882
      8 C7         -1.2572   -2.0300    0.0032 C.ar      1 <0>         0.1390
      9 N1         -0.0754   -2.7797   -0.0127 N.pl3     1 <0>        -0.6683
     10 C8          0.5713   -3.1961    1.2410 C.3       1 <0>         0.1532
     11 C9          0.8354   -4.7041    1.1750 C.3       1 <0>         0.0416
     12 N2          1.5913   -5.0126   -0.0462 N.3       1 <0>        -0.5348
     13 C10         0.8175   -4.6811   -1.2500 C.3       1 <0>         0.0379
     14 C11         0.5494   -3.1773   -1.2834 C.3       1 <0>         0.1529
     15 C12         2.0135   -6.4196   -0.0626 C.3       1 <0>         0.0570
     16 C13         2.9994   -6.6428   -1.2111 C.3       1 <0>        -0.1132
     17 C14         3.4391   -8.1081   -1.2283 C.3       1 <0>        -0.1303
     18 C15         4.4250   -8.3314   -2.3768 C.3       1 <0>         0.1194
     19 N3          4.8460   -9.7345   -2.3932 N.am      1 <0>        -0.7276
     20 C16         5.7188  -10.1653   -3.3255 C.2       1 <0>         0.5586
     21 O2          6.1567   -9.3896   -4.1527 O.2       1 <0>        -0.5351
     22 C17         6.1435  -11.5806   -3.3420 C.ar      1 <0>        -0.1394
     23 C18         5.6291  -12.4748   -2.3860 C.ar      1 <0>        -0.0931
     24 C19         6.0037  -13.7793   -2.3806 C.ar      1 <0>        -0.1083
     25 C20         6.9183  -14.2530   -3.3393 C.ar      1 <0>        -0.0339
     26 C21         7.3209  -15.5988   -3.3538 C.ar      1 <0>        -0.1133
     27 C22         8.2070  -16.0282   -4.2939 C.ar      1 <0>        -0.1034
     28 C23         8.7244  -15.1520   -5.2462 C.ar      1 <0>        -0.1183
     29 C24         8.3580  -13.8415   -5.2638 C.ar      1 <0>        -0.0955
     30 C25         7.4441  -13.3613   -4.3084 C.ar      1 <0>        -0.0641
     31 C26         7.0406  -12.0176   -4.3023 C.ar      1 <0>        -0.0303
     32 H1          1.0053    1.8021    0.0021 H         1 <0>         0.0993
     33 H2         -0.5445    1.7859   -0.8732 H         1 <0>         0.0537
     34 H3         -0.5275    1.7763    0.9067 H         1 <0>         0.0537
     35 H4         -2.3335    1.1781    0.0204 H         1 <0>         0.1277
     36 H5         -4.5101    0.0293    0.0363 H         1 <0>         0.1245
     37 H6         -4.6104   -2.4284    0.0343 H         1 <0>         0.1238
     38 H7         -2.5344   -3.7500    0.0168 H         1 <0>         0.1249
     39 H8          1.5150   -2.6639    1.3604 H         1 <0>         0.0581
     40 H9         -0.0855   -2.9758    2.0825 H         1 <0>         0.0690
     41 H10         1.4125   -5.0108    2.0473 H         1 <0>         0.0793
     42 H11        -0.1140   -5.2393    1.1600 H         1 <0>         0.0339
     43 H12         1.3817   -4.9710   -2.1364 H         1 <0>         0.0831
     44 H13        -0.1317   -5.2166   -1.2312 H         1 <0>         0.0333
     45 H14        -0.1219   -2.9447   -2.1101 H         1 <0>         0.0686
     46 H15         1.4910   -2.6433   -1.4113 H         1 <0>         0.0577
     47 H16         2.4960   -6.6652    0.8834 H         1 <0>         0.0748
     48 H17         1.1418   -7.0588   -0.2026 H         1 <0>         0.0322
     49 H18         2.5169   -6.3971   -2.1571 H         1 <0>         0.0668
     50 H19         3.8711   -6.0035   -1.0711 H         1 <0>         0.0766
     51 H20         3.9216   -8.3538   -0.2823 H         1 <0>         0.0712
     52 H21         2.5674   -8.7474   -1.3683 H         1 <0>         0.0684
     53 H22         3.9425   -8.0857   -3.3228 H         1 <0>         0.0696
     54 H23         5.2967   -7.6921   -2.2368 H         1 <0>         0.0713
     55 H24         4.4966  -10.3534   -1.7332 H         1 <0>         0.4001
     56 H25         4.9272  -12.1188   -1.6463 H         1 <0>         0.1252
     57 H26         5.6001  -14.4539   -1.6401 H         1 <0>         0.1336
     58 H27         6.9294  -16.2899   -2.6219 H         1 <0>         0.1303
     59 H28         8.5140  -17.0636   -4.3016 H         1 <0>         0.1266
     60 H29         9.4265  -15.5182   -5.9806 H         1 <0>         0.1272
     61 H30         8.7671  -13.1735   -6.0073 H         1 <0>         0.1318
     62 H31         7.4298  -11.3288   -5.0374 H         1 <0>         0.1429
@<TRIPOS>BOND
     1    1    2 1
     2    1   32 1
     3    1   33 1
     4    1   34 1
     5    2    3 1
     6    3    8 ar
     7    3    4 ar
     8    4    5 ar
     9    4   35 1
    10    5    6 ar
    11    5   36 1
    12    6    7 ar
    13    6   37 1
    14    7    8 ar
    15    7   38 1
    16    8    9 1
    17    9   14 1
    18    9   10 1
    19   10   11 1
    20   10   39 1
    21   10   40 1
    22   11   12 1
    23   11   41 1
    24   11   42 1
    25   12   13 1
    26   12   15 1
    27   13   14 1
    28   13   43 1
    29   13   44 1
    30   14   45 1
    31   14   46 1
    32   15   16 1
    33   15   47 1
    34   15   48 1
    35   16   17 1
    36   16   49 1
    37   16   50 1
    38   17   18 1
    39   17   51 1
    40   17   52 1
    41   18   19 1
    42   18   53 1
    43   18   54 1
    44   19   20 am
    45   19   55 1
    46   20   21 2
    47   20   22 1
    48   22   31 ar
    49   22   23 ar
    50   23   24 ar
    51   23   56 1
    52   24   25 ar
    53   24   57 1
    54   25   30 ar
    55   25   26 ar
    56   26   27 ar
    57   26   58 1
    58   27   28 ar
    59   27   59 1
    60   28   29 ar
    61   28   60 1
    62   29   30 ar
    63   29   61 1
    64   30   31 ar
    65   31   62 1
@<TRIPOS>MOLECULE
ZINC01481844
   50    52     0     0     0
SMALL
USER_CHARGES

@<TRIPOS>ATOM
      1 C1         -2.2078    1.8890   -0.5844 C.3       1 <0>        -0.1789
      2 C2         -2.1728    0.3652   -0.4506 C.3       1 <0>         0.0822
      3 H1         -3.0910   -0.0566   -0.8593 H         1 <0>         0.1452
      4 C3         -2.0524   -0.0086    1.0043 C.ar      1 <0>        -0.1458
      5 C4         -0.8221    0.0455    1.6324 C.ar      1 <0>        -0.1224
      6 C5         -0.7117   -0.2974    2.9669 C.ar      1 <0>        -0.1047
      7 C6         -1.8316   -0.6941    3.6736 C.ar      1 <0>        -0.0915
      8 C7         -3.0620   -0.7474    3.0458 C.ar      1 <0>        -0.1054
      9 C8         -3.1732   -0.4003    1.7124 C.ar      1 <0>        -0.0883
     10 N1         -1.0191   -0.1649   -1.1895 N.4       1 <0>        -0.5073
     11 C9         -1.1952    0.0953   -2.6245 C.3       1 <0>        -0.0158
     12 C10         0.0064   -0.4569   -3.3941 C.3       1 <0>        -0.1408
     13 C11        -0.1769   -0.1859   -4.8887 C.3       1 <0>         0.0070
     14 C12        -0.1596    1.3006   -5.1355 C.ar      1 <0>        -0.0937
     15 C13        -1.1900    1.8966   -5.8383 C.ar      1 <0>        -0.1134
     16 C14        -1.1742    3.2602   -6.0648 C.ar      1 <0>        -0.1119
     17 C15        -0.1281    4.0279   -5.5880 C.ar      1 <0>        -0.1130
     18 C16         0.9019    3.4320   -4.8845 C.ar      1 <0>        -0.1143
     19 C17         0.8838    2.0691   -4.6543 C.ar      1 <0>        -0.1204
     20 C18         0.9439   -0.8360   -5.6582 C.ar      1 <0>        -0.0881
     21 C19         2.2574   -0.6009   -5.2973 C.ar      1 <0>        -0.1162
     22 C20         3.2855   -1.1972   -6.0032 C.ar      1 <0>        -0.1155
     23 C21         3.0001   -2.0290   -7.0698 C.ar      1 <0>        -0.1121
     24 C22         1.6865   -2.2648   -7.4302 C.ar      1 <0>        -0.1130
     25 C23         0.6583   -1.6719   -6.7216 C.ar      1 <0>        -0.1100
     26 H2         -1.2895    2.3107   -0.1757 H         1 <0>         0.0823
     27 H3         -2.2949    2.1594   -1.6367 H         1 <0>         0.0852
     28 H4         -3.0638    2.2823   -0.0362 H         1 <0>         0.1071
     29 H5          0.0528    0.3554    1.0802 H         1 <0>         0.1190
     30 H6          0.2496   -0.2558    3.4574 H         1 <0>         0.1355
     31 H7         -1.7451   -0.9627    4.7161 H         1 <0>         0.1361
     32 H8         -3.9369   -1.0576    3.5978 H         1 <0>         0.1373
     33 H9         -4.1351   -0.4384    1.2229 H         1 <0>         0.1338
     34 H10        -0.1766    0.2868   -0.8667 H         1 <0>         0.4236
     35 H11        -2.1053   -0.3927   -2.9732 H         1 <0>         0.1352
     36 H12        -1.2716    1.1696   -2.7923 H         1 <0>         0.1371
     37 H13         0.9166    0.0311   -3.0453 H         1 <0>         0.0912
     38 H14         0.0829   -1.5311   -3.2263 H         1 <0>         0.0957
     39 H15        -1.1307   -0.5979   -5.2183 H         1 <0>         0.0966
     40 H16        -2.0073    1.2968   -6.2108 H         1 <0>         0.1238
     41 H17        -1.9789    3.7257   -6.6145 H         1 <0>         0.1269
     42 H18        -0.1154    5.0931   -5.7656 H         1 <0>         0.1262
     43 H19         1.7193    4.0318   -4.5123 H         1 <0>         0.1251
     44 H20         1.6867    1.6041   -4.1014 H         1 <0>         0.1208
     45 H21         2.4804    0.0489   -4.4640 H         1 <0>         0.1187
     46 H22         4.3118   -1.0130   -5.7216 H         1 <0>         0.1251
     47 H23         3.8033   -2.4943   -7.6217 H         1 <0>         0.1264
     48 H24         1.4635   -2.9143   -8.2637 H         1 <0>         0.1270
     49 H25        -0.3681   -1.8590   -7.0008 H         1 <0>         0.1231
     50 H26        -0.9483   -1.1593   -1.0341 H         1 <0>         0.4297
@<TRIPOS>BOND
     1    1    2 1
     2    1   26 1
     3    1   27 1
     4    1   28 1
     5    2    3 1
     6    2    4 1
     7    2   10 1
     8    4    9 ar
     9    4    5 ar
    10    5    6 ar
    11    5   29 1
    12    6    7 ar
    13    6   30 1
    14    7    8 ar
    15    7   31 1
    16    8    9 ar
    17    8   32 1
    18    9   33 1
    19   10   11 1
    20   10   34 1
    21   10   50 1
    22   11   12 1
    23   11   35 1
    24   11   36 1
    25   12   13 1
    26   12   37 1
    27   12   38 1
    28   13   14 1
    29   13   20 1
    30   13   39 1
    31   14   19 ar
    32   14   15 ar
    33   15   16 ar
    34   15   40 1
    35   16   17 ar
    36   16   41 1
    37   17   18 ar
    38   17   42 1
    39   18   19 ar
    40   18   43 1
    41   19   44 1
    42   20   25 ar
    43   20   21 ar
    44   21   22 ar
    45   21   45 1
    46   22   23 ar
    47   22   46 1
    48   23   24 ar
    49   23   47 1
    50   24   25 ar
    51   24   48 1
    52   25   49 1
@<TRIPOS>MOLECULE
ZINC02019529
   50    52     0     0     0
SMALL
USER_CHARGES

@<TRIPOS>ATOM
      1 C1         -1.3544    3.0934    1.1195 C.3       1 <0>        -0.1788
      2 C2         -1.3979    1.6639    0.5759 C.3       1 <0>         0.0819
      3 H1         -2.3893    1.2422    0.7414 H         1 <0>         0.1449
      4 C3         -1.0985    1.6788   -0.9010 C.ar      1 <0>        -0.1455
      5 C4          0.2095    1.7636   -1.3403 C.ar      1 <0>        -0.1228
      6 C5          0.4841    1.7773   -2.6950 C.ar      1 <0>        -0.1045
      7 C6         -0.5492    1.7056   -3.6105 C.ar      1 <0>        -0.0916
      8 C7         -1.8571    1.6199   -3.1712 C.ar      1 <0>        -0.1052
      9 C8         -2.1314    1.6019   -1.8164 C.ar      1 <0>        -0.0885
     10 N1         -0.3953    0.8452    1.2705 N.4       1 <0>        -0.5072
     11 C9         -0.7541    0.7321    2.6905 C.3       1 <0>        -0.0154
     12 C10         0.2902   -0.1206    3.4140 C.3       1 <0>        -0.1409
     13 C11        -0.0835   -0.2384    4.8930 C.3       1 <0>         0.0072
     14 C12        -1.3788   -0.9973    5.0249 C.ar      1 <0>        -0.0939
     15 C13        -2.4246   -0.4586    5.7508 C.ar      1 <0>        -0.1134
     16 C14        -3.6128   -1.1547    5.8718 C.ar      1 <0>        -0.1120
     17 C15        -3.7552   -2.3894    5.2666 C.ar      1 <0>        -0.1131
     18 C16        -2.7096   -2.9277    4.5400 C.ar      1 <0>        -0.1143
     19 C17        -1.5230   -2.2296    4.4154 C.ar      1 <0>        -0.1203
     20 C18         1.0066   -0.9734    5.6295 C.ar      1 <0>        -0.0881
     21 C19         1.4555   -2.1941    5.1612 C.ar      1 <0>        -0.1162
     22 C20         2.4555   -2.8683    5.8368 C.ar      1 <0>        -0.1155
     23 C21         3.0068   -2.3216    6.9805 C.ar      1 <0>        -0.1122
     24 C22         2.5585   -1.1006    7.4483 C.ar      1 <0>        -0.1131
     25 C23         1.5615   -0.4243    6.7703 C.ar      1 <0>        -0.1101
     26 H2         -0.3630    3.5151    0.9539 H         1 <0>         0.0828
     27 H3         -2.0984    3.7009    0.6041 H         1 <0>         0.1072
     28 H4         -1.5710    3.0827    2.1877 H         1 <0>         0.0851
     29 H5          1.0168    1.8196   -0.6251 H         1 <0>         0.1191
     30 H6          1.5059    1.8442   -3.0382 H         1 <0>         0.1355
     31 H7         -0.3347    1.7170   -4.6689 H         1 <0>         0.1361
     32 H8         -2.6644    1.5643   -3.8864 H         1 <0>         0.1373
     33 H9         -3.1530    1.5312   -1.4732 H         1 <0>         0.1337
     34 H10        -0.3667   -0.0745    0.8565 H         1 <0>         0.4295
     35 H11        -0.7850    1.7256    3.1378 H         1 <0>         0.1363
     36 H12        -1.7333    0.2621    2.7815 H         1 <0>         0.1355
     37 H13         0.3211   -1.1141    2.9668 H         1 <0>         0.0917
     38 H14         1.2694    0.3494    3.3230 H         1 <0>         0.0952
     39 H15        -0.2013    0.7581    5.3185 H         1 <0>         0.0964
     40 H16        -2.3134    0.5060    6.2236 H         1 <0>         0.1238
     41 H17        -4.4296   -0.7342    6.4395 H         1 <0>         0.1269
     42 H18        -4.6832   -2.9336    5.3618 H         1 <0>         0.1262
     43 H19        -2.8208   -3.8925    4.0675 H         1 <0>         0.1252
     44 H20        -0.7074   -2.6485    3.8447 H         1 <0>         0.1209
     45 H21         1.0248   -2.6212    4.2676 H         1 <0>         0.1188
     46 H22         2.8057   -3.8223    5.4712 H         1 <0>         0.1251
     47 H23         3.7876   -2.8487    7.5087 H         1 <0>         0.1264
     48 H24         2.9890   -0.6736    8.3421 H         1 <0>         0.1270
     49 H25         1.2139    0.5314    7.1338 H         1 <0>         0.1230
     50 H26         0.5112    1.2803    1.1863 H         1 <0>         0.4238
@<TRIPOS>BOND
     1    1    2 1
     2    1   26 1
     3    1   27 1
     4    1   28 1
     5    2    3 1
     6    2    4 1
     7    2   10 1
     8    4    9 ar
     9    4    5 ar
    10    5    6 ar
    11    5   29 1
    12    6    7 ar
    13    6   30 1
    14    7    8 ar
    15    7   31 1
    16    8    9 ar
    17    8   32 1
    18    9   33 1
    19   10   11 1
    20   10   34 1
    21   10   50 1
    22   11   12 1
    23   11   35 1
    24   11   36 1
    25   12   13 1
    26   12   37 1
    27   12   38 1
    28   13   14 1
    29   13   20 1
    30   13   39 1
    31   14   19 ar
    32   14   15 ar
    33   15   16 ar
    34   15   40 1
    35   16   17 ar
    36   16   41 1
    37   17   18 ar
    38   17   42 1
    39   18   19 ar
    40   18   43 1
    41   19   44 1
    42   20   25 ar
    43   20   21 ar
    44   21   22 ar
    45   21   45 1
    46   22   23 ar
    47   22   46 1
    48   23   24 ar
    49   23   47 1
    50   24   25 ar
    51   24   48 1
    52   25   49 1
@<TRIPOS>MOLECULE
ZINC71754993
   49    52     0     0     0
SMALL
USER_CHARGES

@<TRIPOS>ATOM
      1 C1          2.6170   -2.6358   -1.1889 C.3       1 <0>        -0.1671
      2 C2          2.2134   -1.1611   -1.2456 C.3       1 <0>         0.1069
      3 N1          0.7528   -1.0529   -1.2130 N.am      1 <0>        -0.6114
      4 C3          0.0461   -1.0616    0.0703 C.3       1 <0>         0.0994
      5 C4         -0.0614    0.3687    0.6029 C.3       1 <0>        -0.1765
      6 C5          0.0592   -0.9454   -2.3636 C.2       1 <0>         0.5267
      7 O1          0.6474   -0.8703   -3.4215 O.2       1 <0>        -0.5333
      8 C6         -1.4473   -0.9186   -2.3355 C.3       1 <0>        -0.0725
      9 H1         -1.8080   -1.4645   -1.4638 H         1 <0>         0.1146
     10 C7         -1.9990   -1.5624   -3.6126 C.3       1 <0>         0.0770
     11 N2         -3.4593   -1.4331   -3.6037 N.3       1 <0>        -0.5484
     12 C8         -3.9081   -0.0485   -3.6742 C.3       1 <0>         0.1385
     13 H2         -3.8294    0.2578   -4.7173 H         1 <0>         0.0457
     14 C9         -5.3934    0.0321   -3.2953 C.3       1 <0>        -0.0232
     15 C10        -5.8207    1.4760   -3.2538 C.2       1 <0>        -0.1681
     16 C11        -6.9734    2.1212   -3.3973 C.2       1 <0>         0.0572
     17 N3         -6.7828    3.4861   -3.2468 N.pl3     1 <0>        -0.5952
     18 H3         -7.4843    4.1531   -3.3095 H         1 <0>         0.4163
     19 C12        -5.4715    3.7584   -2.9981 C.ar      1 <0>         0.1107
     20 C13        -4.8308    2.5163   -3.0000 C.ar      1 <0>        -0.1310
     21 C14        -3.4506    2.3050   -2.7990 C.ar      1 <0>        -0.0034
     22 C15        -2.7031    3.4367   -2.5663 C.ar      1 <0>        -0.1283
     23 C16        -3.3241    4.6838   -2.5516 C.ar      1 <0>        -0.0962
     24 C17        -4.6837    4.8842   -2.7614 C.ar      1 <0>        -0.1216
     25 C18        -3.0445    0.8889   -2.8726 C.2       1 <0>        -0.0548
     26 C19        -1.9279    0.5065   -2.2758 C.2       1 <0>        -0.1279
     27 C20        -4.0657   -2.2382   -4.6723 C.3       1 <0>         0.0274
     28 H4          2.2786   -3.0692   -0.2477 H         1 <0>         0.0559
     29 H5          2.1583   -3.1703   -2.0208 H         1 <0>         0.0579
     30 H6          3.7017   -2.7185   -1.2577 H         1 <0>         0.0673
     31 H7          2.6359   -0.6355   -0.3892 H         1 <0>         0.0755
     32 H8          2.5902   -0.7164   -2.1667 H         1 <0>         0.0872
     33 H9         -0.9534   -1.4738   -0.0682 H         1 <0>         0.0851
     34 H10         0.5964   -1.6747    0.7839 H         1 <0>         0.0811
     35 H11        -0.5106    0.3537    1.5960 H         1 <0>         0.0701
     36 H12         0.9333    0.8106    0.6607 H         1 <0>         0.0594
     37 H13        -0.6835    0.9606   -0.0684 H         1 <0>         0.0612
     38 H14        -1.5914   -1.0526   -4.4855 H         1 <0>         0.0533
     39 H15        -1.7248   -2.6170   -3.6391 H         1 <0>         0.0845
     40 H16        -5.9874   -0.5018   -4.0371 H         1 <0>         0.0765
     41 H17        -5.5435   -0.4200   -2.3149 H         1 <0>         0.0843
     42 H18        -7.9232    1.6497   -3.6022 H         1 <0>         0.1695
     43 H19        -1.6396    3.3585   -2.3953 H         1 <0>         0.1220
     44 H20        -2.7091    5.5517   -2.3648 H         1 <0>         0.1224
     45 H21        -5.1135    5.8748   -2.7421 H         1 <0>         0.1285
     46 H22        -1.3518    1.2331   -1.7222 H         1 <0>         0.1200
     47 H23        -3.7498   -3.2763   -4.5689 H         1 <0>         0.0734
     48 H24        -5.1517   -2.1799   -4.5994 H         1 <0>         0.0744
     49 H25        -3.7455   -1.8558   -5.6415 H         1 <0>         0.0291
@<TRIPOS>BOND
     1    1    2 1
     2    1   28 1
     3    1   29 1
     4    1   30 1
     5    2    3 1
     6    2   31 1
     7    2   32 1
     8    3    4 1
     9    3    6 am
    10    4    5 1
    11    4   33 1
    12    4   34 1
    13    5   35 1
    14    5   36 1
    15    5   37 1
    16    6    7 2
    17    6    8 1
    18    8    9 1
    19    8   26 1
    20    8   10 1
    21   10   11 1
    22   10   38 1
    23   10   39 1
    24   11   12 1
    25   11   27 1
    26   12   13 1
    27   12   25 1
    28   12   14 1
    29   14   15 1
    30   14   40 1
    31   14   41 1
    32   15   20 1
    33   15   16 2
    34   16   17 1
    35   16   42 1
    36   17   18 1
    37   17   19 1
    38   19   24 ar
    39   19   20 ar
    40   20   21 ar
    41   21   22 ar
    42   21   25 1
    43   22   23 ar
    44   22   43 1
    45   23   24 ar
    46   23   44 1
    47   24   45 1
    48   25   26 2
    49   26   46 1
    50   27   47 1
    51   27   48 1
    52   27   49 1
@<TRIPOS>MOLECULE
ZINC71754993
   50    53     0     0     0
SMALL
USER_CHARGES

@<TRIPOS>ATOM
      1 C1         -4.4131    1.6542    2.7709 C.3       1 <0>        -0.1692
      2 C2         -3.1002    1.6745    1.9857 C.3       1 <0>         0.1077
      3 N1         -3.2120    0.7884    0.8243 N.am      1 <0>        -0.6044
      4 C3         -3.6997    1.3136   -0.4534 C.3       1 <0>         0.0980
      5 C4         -2.5178    1.8262   -1.2787 C.3       1 <0>        -0.1810
      6 C5         -2.8661   -0.5098    0.9314 C.2       1 <0>         0.5240
      7 O1         -2.5501   -0.9662    2.0097 O.2       1 <0>        -0.5069
      8 C6         -2.8722   -1.3943   -0.2887 C.3       1 <0>        -0.1042
      9 H1         -2.7358   -0.7873   -1.1837 H         1 <0>         0.1306
     10 C7         -4.2036   -2.1497   -0.3737 C.3       1 <0>         0.0021
     11 N2         -4.1503   -3.0574   -1.5221 N.4       1 <0>        -0.3772
     12 C8         -3.1649   -4.1132   -1.3324 C.3       1 <0>         0.0727
     13 H2         -3.6138   -4.8485   -0.6647 H         1 <0>         0.1401
     14 C9         -2.9105   -4.8224   -2.6700 C.3       1 <0>        -0.0390
     15 C10        -1.8064   -5.8325   -2.5003 C.2       1 <0>        -0.2014
     16 C11        -1.4541   -6.9552   -3.1179 C.2       1 <0>         0.0960
     17 N3         -0.3151   -7.4883   -2.5346 N.pl3     1 <0>        -0.5871
     18 H3          0.1234   -8.3046   -2.8215 H         1 <0>         0.4245
     19 C12         0.1019   -6.7038   -1.5020 C.ar      1 <0>         0.1104
     20 C13        -0.8165   -5.6518   -1.4449 C.ar      1 <0>        -0.1254
     21 C14        -0.7954   -4.5939   -0.5123 C.ar      1 <0>        -0.0281
     22 C15         0.2416   -4.6193    0.3924 C.ar      1 <0>        -0.0998
     23 C16         1.1732   -5.6542    0.3464 C.ar      1 <0>        -0.0987
     24 C17         1.1382   -6.6995   -0.5693 C.ar      1 <0>        -0.0978
     25 C18        -1.9016   -3.6317   -0.6709 C.2       1 <0>        -0.0695
     26 C19        -1.7626   -2.4072   -0.1876 C.2       1 <0>        -0.1111
     27 C20        -5.4735   -3.6664   -1.7125 C.3       1 <0>        -0.0520
     28 H4         -4.3299    2.3134    3.6350 H         1 <0>         0.0742
     29 H5         -5.2253    1.9965    2.1296 H         1 <0>         0.0570
     30 H6         -4.6195    0.6382    3.1076 H         1 <0>         0.0594
     31 H7         -2.8938    2.6904    1.6490 H         1 <0>         0.0854
     32 H8         -2.2879    1.3322    2.6269 H         1 <0>         0.0886
     33 H9         -4.2089    0.5208   -1.0014 H         1 <0>         0.0700
     34 H10        -4.3955    2.1319   -0.2680 H         1 <0>         0.0939
     35 H11        -2.8686    2.1332   -2.2639 H         1 <0>         0.0759
     36 H12        -2.0638    2.6783   -0.7728 H         1 <0>         0.0695
     37 H13        -1.7789    1.0322   -1.3872 H         1 <0>         0.0580
     38 H14        -4.3580   -2.7236    0.5400 H         1 <0>         0.1434
     39 H15        -5.0199   -1.4395   -0.5058 H         1 <0>         0.1437
     40 H16        -3.8204   -5.3293   -2.9914 H         1 <0>         0.0997
     41 H17        -2.6190   -4.0881   -3.4210 H         1 <0>         0.0934
     42 H18        -1.9802   -7.3903   -3.9547 H         1 <0>         0.1758
     43 H19         0.3329   -3.8400    1.1346 H         1 <0>         0.1302
     44 H20         1.9754   -5.6435    1.0695 H         1 <0>         0.1317
     45 H21         1.8852   -7.4794   -0.5582 H         1 <0>         0.1373
     46 H22        -0.8304   -2.1256    0.2794 H         1 <0>         0.1476
     47 H23        -6.2103   -2.8845   -1.8961 H         1 <0>         0.1309
     48 H24        -5.4422   -4.3438   -2.5658 H         1 <0>         0.1309
     49 H25        -5.7497   -4.2228   -0.8168 H         1 <0>         0.1266
     50 H26        -3.9112   -2.5291   -2.3478 H         1 <0>         0.4234
@<TRIPOS>BOND
     1    1    2 1
     2    1   28 1
     3    1   29 1
     4    1   30 1
     5    2    3 1
     6    2   31 1
     7    2   32 1
     8    3    4 1
     9    3    6 am
    10    4    5 1
    11    4   33 1
    12    4   34 1
    13    5   35 1
    14    5   36 1
    15    5   37 1
    16    6    7 2
    17    6    8 1
    18    8    9 1
    19    8   26 1
    20    8   10 1
    21   10   11 1
    22   10   38 1
    23   10   39 1
    24   11   12 1
    25   11   27 1
    26   11   50 1
    27   12   13 1
    28   12   25 1
    29   12   14 1
    30   14   15 1
    31   14   40 1
    32   14   41 1
    33   15   20 1
    34   15   16 2
    35   16   17 1
    36   16   42 1
    37   17   18 1
    38   17   19 1
    39   19   24 ar
    40   19   20 ar
    41   20   21 ar
    42   21   22 ar
    43   21   25 1
    44   22   23 ar
    45   22   43 1
    46   23   24 ar
    47   23   44 1
    48   24   45 1
    49   25   26 2
    50   26   46 1
    51   27   47 1
    52   27   48 1
    53   27   49 1
@<TRIPOS>MOLECULE
ZINC25760037
   43    46     0     0     0
SMALL
USER_CHARGES

@<TRIPOS>ATOM
      1 C1         -0.0268    1.3474    0.0633 C.ar      1 <0>        -0.1752
      2 C2          1.1642    2.0489    0.0412 C.ar      1 <0>        -0.0527
      3 C3          2.3551    1.3200    0.0176 C.ar      1 <0>        -0.1461
      4 C4          3.7739    1.6795   -0.0097 C.2       1 <0>        -0.2577
      5 C5          4.4667    0.5300   -0.0245 C.2       1 <0>         0.1407
      6 N1          3.6053   -0.5342   -0.0088 N.pl3     1 <0>        -0.5673
      7 H1          3.8729   -1.4665   -0.0150 H         1 <0>         0.4335
      8 C6          2.3060   -0.0875    0.0170 C.ar      1 <0>         0.2913
      9 N2          1.1333   -0.7066    0.0393 N.ar      1 <0>        -0.4851
     10 C7         -0.0005   -0.0386    0.0614 C.ar      1 <0>         0.1534
     11 C8          4.3469    3.0733   -0.0199 C.3       1 <0>         0.0839
     12 N3          4.3372    3.6166    1.3449 N.4       1 <0>        -0.3806
     13 C9          2.9495    3.7595    1.8031 C.3       1 <0>        -0.0319
     14 C10         2.9400    4.2172    3.2653 C.3       1 <0>         0.1008
     15 N4          3.7450    5.4435    3.3754 N.pl3     1 <0>        -0.6426
     16 C11         5.0963    5.4403    2.7937 C.3       1 <0>         0.0994
     17 C12         5.0040    4.9248    1.3537 C.3       1 <0>        -0.0233
     18 C13         3.2403    6.5795    4.0139 C.ar      1 <0>         0.2031
     19 C14         1.9241    6.6016    4.4569 C.ar      1 <0>        -0.1758
     20 C15         1.4281    7.7254    5.0880 C.ar      1 <0>        -0.0604
     21 C16         2.2410    8.8289    5.2789 C.ar      1 <0>        -0.0751
     22 C17         3.5527    8.8096    4.8386 C.ar      1 <0>        -0.0604
     23 C18         4.0557    7.6864    4.2119 C.ar      1 <0>        -0.1748
     24 Cl1         1.6138   10.2403    6.0716 Cl        1 <0>        -0.0601
     25 H2         -0.9692    1.8744    0.0864 H         1 <0>         0.1492
     26 H3          1.1733    3.1289    0.0417 H         1 <0>         0.1347
     27 H4          5.5440    0.4554   -0.0459 H         1 <0>         0.1910
     28 H5         -0.9329   -0.5834    0.0787 H         1 <0>         0.1725
     29 H6          5.3712    3.0423   -0.3913 H         1 <0>         0.1384
     30 H7          3.7443    3.7092   -0.6684 H         1 <0>         0.1332
     31 H8          2.4378    4.4992    1.1874 H         1 <0>         0.1308
     32 H9          2.4385    2.8004    1.7191 H         1 <0>         0.1450
     33 H10         1.9162    4.4218    3.5784 H         1 <0>         0.1255
     34 H11         3.3702    3.4388    3.8955 H         1 <0>         0.0876
     35 H12         5.4980    6.4535    2.7951 H         1 <0>         0.1268
     36 H13         5.7442    4.7854    3.3763 H         1 <0>         0.0888
     37 H14         6.0068    4.8245    0.9387 H         1 <0>         0.1424
     38 H15         4.4301    5.6293    0.7516 H         1 <0>         0.1331
     39 H16         1.2890    5.7409    4.3075 H         1 <0>         0.1319
     40 H17         0.4047    7.7432    5.4327 H         1 <0>         0.1391
     41 H18         4.1850    9.6722    4.9888 H         1 <0>         0.1392
     42 H19         5.0808    7.6702    3.8724 H         1 <0>         0.1326
     43 H20         4.8287    2.9858    1.9602 H         1 <0>         0.4209
@<TRIPOS>BOND
     1    1   10 ar
     2    1    2 ar
     3    1   25 1
     4    2    3 ar
     5    2   26 1
     6    3    8 ar
     7    3    4 1
     8    4    5 2
     9    4   11 1
    10    5    6 1
    11    5   27 1
    12    6    7 1
    13    6    8 1
    14    8    9 ar
    15    9   10 ar
    16   10   28 1
    17   11   12 1
    18   11   29 1
    19   11   30 1
    20   12   17 1
    21   12   13 1
    22   12   43 1
    23   13   14 1
    24   13   31 1
    25   13   32 1
    26   14   15 1
    27   14   33 1
    28   14   34 1
    29   15   16 1
    30   15   18 1
    31   16   17 1
    32   16   35 1
    33   16   36 1
    34   17   37 1
    35   17   38 1
    36   18   23 ar
    37   18   19 ar
    38   19   20 ar
    39   19   39 1
    40   20   21 ar
    41   20   40 1
    42   21   22 ar
    43   21   24 1
    44   22   23 ar
    45   22   41 1
    46   23   42 1
@<TRIPOS>MOLECULE
ZINC25760037
   42    45     0     0     0
SMALL
USER_CHARGES

@<TRIPOS>ATOM
      1 C1         -0.0271    1.3456    0.0639 C.ar      1 <0>        -0.1986
      2 C2          1.1635    2.0478    0.0416 C.ar      1 <0>        -0.0357
      3 C3          2.3549    1.3195    0.0173 C.ar      1 <0>        -0.1433
      4 C4          3.7735    1.6798   -0.0104 C.2       1 <0>        -0.1623
      5 C5          4.4669    0.5307   -0.0259 C.2       1 <0>         0.0865
      6 N1          3.6061   -0.5339   -0.0103 N.pl3     1 <0>        -0.5808
      7 H1          3.8741   -1.4661   -0.0170 H         1 <0>         0.4217
      8 C6          2.3065   -0.0879    0.0162 C.ar      1 <0>         0.2862
      9 N2          1.1341   -0.7077    0.0386 N.ar      1 <0>        -0.4979
     10 C7         -0.0000   -0.0404    0.0614 C.ar      1 <0>         0.1384
     11 C8          4.3457    3.0739   -0.0202 C.3       1 <0>         0.1304
     12 N3          4.3361    3.6167    1.3449 N.3       1 <0>        -0.5310
     13 C9          2.9614    3.7989    1.8294 C.3       1 <0>         0.0328
     14 C10         2.9931    4.1916    3.3103 C.3       1 <0>         0.1246
     15 N4          3.8672    5.3644    3.4640 N.pl3     1 <0>        -0.6269
     16 C11         5.2167    5.3075    2.8820 C.3       1 <0>         0.1252
     17 C12         5.0975    4.8709    1.4180 C.3       1 <0>         0.0388
     18 C13         3.4269    6.5028    4.1446 C.ar      1 <0>         0.2273
     19 C14         2.1134    6.5833    4.5888 C.ar      1 <0>        -0.1910
     20 C15         1.6812    7.7093    5.2616 C.ar      1 <0>        -0.0581
     21 C16         2.5552    8.7569    5.4928 C.ar      1 <0>        -0.0958
     22 C17         3.8644    8.6794    5.0513 C.ar      1 <0>        -0.0582
     23 C18         4.3036    7.5534    4.3830 C.ar      1 <0>        -0.1905
     24 Cl1         2.0082   10.1713    6.3378 Cl        1 <0>        -0.0804
     25 H2         -0.9697    1.8721    0.0875 H         1 <0>         0.1382
     26 H3          1.1720    3.1278    0.0426 H         1 <0>         0.1304
     27 H4          5.5441    0.4568   -0.0477 H         1 <0>         0.1792
     28 H5         -0.9321   -0.5857    0.0788 H         1 <0>         0.1616
     29 H6          5.3698    3.0437   -0.3920 H         1 <0>         0.0860
     30 H7          3.7424    3.7098   -0.6682 H         1 <0>         0.0430
     31 H8          2.4745    4.5866    1.2545 H         1 <0>         0.0365
     32 H9          2.4079    2.8672    1.7119 H         1 <0>         0.0966
     33 H10         1.9857    4.4393    3.6450 H         1 <0>         0.0859
     34 H11         3.3847    3.3631    3.9005 H         1 <0>         0.0707
     35 H12         5.6796    6.2930    2.9337 H         1 <0>         0.0870
     36 H13         5.8221    4.5864    3.4311 H         1 <0>         0.0720
     37 H14         6.0932    4.7167    1.0022 H         1 <0>         0.0880
     38 H15         4.5809    5.6437    0.8489 H         1 <0>         0.0393
     39 H16         1.4306    5.7663    4.4080 H         1 <0>         0.1305
     40 H17         0.6599    7.7725    5.6073 H         1 <0>         0.1313
     41 H18         4.5445    9.4985    5.2331 H         1 <0>         0.1314
     42 H19         5.3267    7.4915    4.0426 H         1 <0>         0.1308
@<TRIPOS>BOND
     1    1   10 ar
     2    1    2 ar
     3    1   25 1
     4    2    3 ar
     5    2   26 1
     6    3    8 ar
     7    3    4 1
     8    4    5 2
     9    4   11 1
    10    5    6 1
    11    5   27 1
    12    6    7 1
    13    6    8 1
    14    8    9 ar
    15    9   10 ar
    16   10   28 1
    17   11   12 1
    18   11   29 1
    19   11   30 1
    20   12   17 1
    21   12   13 1
    22   13   14 1
    23   13   31 1
    24   13   32 1
    25   14   15 1
    26   14   33 1
    27   14   34 1
    28   15   16 1
    29   15   18 1
    30   16   17 1
    31   16   35 1
    32   16   36 1
    33   17   37 1
    34   17   38 1
    35   18   23 ar
    36   18   19 ar
    37   19   20 ar
    38   19   39 1
    39   20   21 ar
    40   20   40 1
    41   21   22 ar
    42   21   24 1
    43   22   23 ar
    44   22   41 1
    45   23   42 1
@<TRIPOS>MOLECULE
ZINC13527309
   33    35     0     0     0
SMALL
USER_CHARGES
2-(3,7,8,9-tetrahydropyrano[3,2-e]indol-1-yl)ethanamine
@<TRIPOS>ATOM
      1 C1          1.3491   -2.6821    2.0558 C.ar      1 <0>        -0.0858
      2 C2          0.5693   -1.9880    1.1603 C.ar      1 <0>        -0.1162
      3 C3          0.8039   -0.6356    0.9005 C.ar      1 <0>         0.1237
      4 C4          1.8265    0.0222    1.5474 C.ar      1 <0>        -0.1404
      5 C5          2.6278   -0.6754    2.4590 C.ar      1 <0>        -0.0611
      6 C6          2.3884   -2.0360    2.7157 C.ar      1 <0>         0.0658
      7 N1          3.3226   -2.4455    3.6437 N.pl3     1 <0>        -0.5839
      8 H1          3.3926   -3.3425    4.0061 H         1 <0>         0.4239
      9 C7          4.1361   -1.3969    3.9766 C.2       1 <0>         0.0914
     10 C8          3.7696   -0.2991    3.2962 C.2       1 <0>        -0.2135
     11 C9          4.4115    1.0619    3.3775 C.3       1 <0>        -0.0662
     12 C10         3.6490    1.9261    4.3837 C.3       1 <0>        -0.0067
     13 C11         2.1022    1.4838    1.3022 C.3       1 <0>        -0.0707
     14 C12         1.4326    1.9254   -0.0013 C.3       1 <0>        -0.1649
     15 C13        -0.0173    1.4238    0.0099 C.3       1 <0>         0.0602
     16 O1          0.0021   -0.0041    0.0020 O.3       1 <0>        -0.3117
     17 H2          1.1546   -3.7273    2.2459 H         1 <0>         0.1339
     18 H3         -0.2363   -2.4959    0.6509 H         1 <0>         0.1410
     19 H4          4.9521   -1.4452    4.6825 H         1 <0>         0.1733
     20 H5          5.4472    0.9564    3.7006 H         1 <0>         0.0919
     21 H6          4.3835    1.5361    2.3965 H         1 <0>         0.0942
     22 H7          2.6133    2.0316    4.0607 H         1 <0>         0.1332
     23 H8          3.6770    1.4519    5.3648 H         1 <0>         0.1326
     24 H9          4.3192    3.6866    3.5532 H         1 <0>         0.4359
     25 H10         3.7889    3.8430    5.1217 H         1 <0>         0.4398
     26 H11         1.7059    2.0713    2.1304 H         1 <0>         0.0665
     27 H12         3.1781    1.6424    1.2288 H         1 <0>         0.0784
     28 H13         1.9636    1.4963   -0.8510 H         1 <0>         0.0821
     29 H14         1.4448    3.0131   -0.0707 H         1 <0>         0.0861
     30 H15        -0.5392    1.7890   -0.8746 H         1 <0>         0.1119
     31 H16        -0.5222    1.7794    0.9080 H         1 <0>         0.0642
     32 N2          4.2977    3.2463    4.4715 N.4       1 <0>        -0.6482
     33 H17         5.2602    3.1276    4.8088 H         1 <0>         0.4392
@<TRIPOS>BOND
     1    1    6 ar
     2    1    2 ar
     3    1   17 1
     4    2    3 ar
     5    2   18 1
     6    3   16 1
     7    3    4 ar
     8    4    5 ar
     9    4   13 1
    10    5   10 1
    11    5    6 ar
    12    6    7 1
    13    7    8 1
    14    7    9 1
    15    9   10 2
    16    9   19 1
    17   10   11 1
    18   11   12 1
    19   11   20 1
    20   11   21 1
    21   12   22 1
    22   12   23 1
    23   12   32 1
    24   13   14 1
    25   13   26 1
    26   13   27 1
    27   14   15 1
    28   14   28 1
    29   14   29 1
    30   15   16 1
    31   15   30 1
    32   15   31 1
    33   24   32 1
    34   25   32 1
    35   32   33 1
@<TRIPOS>MOLECULE
ZINC22920326
   52    55     0     0     0
SMALL
USER_CHARGES

@<TRIPOS>ATOM
      1 C1         -0.0187    1.5258    0.0104 C.3       1 <0>        -0.1827
      2 C2          0.0021   -0.0041    0.0020 C.3       1 <0>         0.0324
      3 H1          0.5123   -0.3556   -0.8948 H         1 <0>         0.1471
      4 C3         -1.4336   -0.5337    0.0128 C.3       1 <0>         0.0302
      5 N1         -1.4105   -2.0032    0.0241 N.3       1 <0>        -0.5388
      6 C4         -0.6807   -2.5048    1.1971 C.3       1 <0>         0.0254
      7 C5          0.7488   -1.9589    1.1765 C.3       1 <0>         0.0324
      8 H2          1.2551   -2.3004    0.2737 H         1 <0>         0.1469
      9 N2          0.7126   -0.4906    1.1920 N.4       1 <0>        -0.5065
     10 C6          1.5050   -2.4634    2.4072 C.3       1 <0>        -0.1830
     11 C7         -2.7725   -2.5515   -0.0226 C.3       1 <0>         0.0584
     12 C8         -2.7066   -4.0615   -0.2601 C.3       1 <0>        -0.1372
     13 C9         -4.1252   -4.6325   -0.3086 C.3       1 <0>         0.1179
     14 N3         -4.0621   -6.0784   -0.5361 N.pl3     1 <0>        -0.5074
     15 C10        -4.0541   -6.6836   -1.7801 C.ar      1 <0>         0.1407
     16 C11        -4.0985   -6.1695   -3.0725 C.ar      1 <0>        -0.1448
     17 C12        -4.0764   -7.0219   -4.1553 C.ar      1 <0>        -0.0811
     18 C13        -4.0101   -8.3944   -3.9712 C.ar      1 <0>        -0.1474
     19 C14        -3.9653   -8.9226   -2.6989 C.ar      1 <0>        -0.0594
     20 C15        -3.9865   -8.0726   -1.5959 C.ar      1 <0>        -0.1043
     21 C16        -3.9523   -8.3002   -0.1394 C.ar      1 <0>        -0.1029
     22 C17        -3.9960   -7.0338    0.4624 C.ar      1 <0>         0.1405
     23 C18        -3.9715   -6.9383    1.8504 C.ar      1 <0>        -0.1477
     24 C19        -3.9014   -8.0799    2.6195 C.ar      1 <0>        -0.0822
     25 C20        -3.8544   -9.3304    2.0229 C.ar      1 <0>        -0.1486
     26 C21        -3.8863   -9.4459    0.6497 C.ar      1 <0>        -0.0582
     27 H3          1.0039    1.9031    0.0027 H         1 <0>         0.0866
     28 H4         -0.5459    1.8868   -0.8726 H         1 <0>         0.1092
     29 H5         -0.5289    1.8773    0.9072 H         1 <0>         0.0810
     30 H6         -1.9483   -0.1712    0.9026 H         1 <0>         0.0620
     31 H7         -1.9566   -0.1850   -0.8777 H         1 <0>         0.1241
     32 H8         -1.1830   -2.1748    2.1064 H         1 <0>         0.0623
     33 H9         -0.6544   -3.5942    1.1706 H         1 <0>         0.1243
     34 H10         1.6553   -0.1311    1.1910 H         1 <0>         0.4302
     35 H11         1.5320   -3.5530    2.3957 H         1 <0>         0.1089
     36 H12         2.5232   -2.0745    2.3925 H         1 <0>         0.0870
     37 H13         0.9987   -2.1220    3.3100 H         1 <0>         0.0811
     38 H14        -3.2762   -2.3542    0.9237 H         1 <0>         0.0503
     39 H15        -3.3265   -2.0799   -0.8342 H         1 <0>         0.0927
     40 H16        -2.2029   -4.2588   -1.2064 H         1 <0>         0.0839
     41 H17        -2.1527   -4.5331    0.5516 H         1 <0>         0.0704
     42 H18        -4.6289   -4.4352    0.6377 H         1 <0>         0.0866
     43 H19        -4.6792   -4.1609   -1.1203 H         1 <0>         0.0898
     44 H20        -4.1507   -5.1019   -3.2271 H         1 <0>         0.1199
     45 H21        -4.1115   -6.6172   -5.1560 H         1 <0>         0.1299
     46 H22        -3.9937   -9.0520   -4.8277 H         1 <0>         0.1294
     47 H23        -3.9144   -9.9921   -2.5578 H         1 <0>         0.1270
     48 H24        -4.0070   -5.9689    2.3254 H         1 <0>         0.1171
     49 H25        -3.8827   -7.9995    3.6964 H         1 <0>         0.1287
     50 H26        -3.7989  -10.2175    2.6363 H         1 <0>         0.1291
     51 H27        -3.8488  -10.4210    0.1871 H         1 <0>         0.1273
     52 H28         0.2335   -0.1749    2.0220 H         1 <0>         0.4215
@<TRIPOS>BOND
     1    1    2 1
     2    1   27 1
     3    1   28 1
     4    1   29 1
     5    2    3 1
     6    2    9 1
     7    2    4 1
     8    4    5 1
     9    4   30 1
    10    4   31 1
    11    5    6 1
    12    5   11 1
    13    6    7 1
    14    6   32 1
    15    6   33 1
    16    7    8 1
    17    7    9 1
    18    7   10 1
    19    9   34 1
    20    9   52 1
    21   10   35 1
    22   10   36 1
    23   10   37 1
    24   11   12 1
    25   11   38 1
    26   11   39 1
    27   12   13 1
    28   12   40 1
    29   12   41 1
    30   13   14 1
    31   13   42 1
    32   13   43 1
    33   14   22 1
    34   14   15 1
    35   15   20 ar
    36   15   16 ar
    37   16   17 ar
    38   16   44 1
    39   17   18 ar
    40   17   45 1
    41   18   19 ar
    42   18   46 1
    43   19   20 ar
    44   19   47 1
    45   20   21 1
    46   21   26 ar
    47   21   22 ar
    48   22   23 ar
    49   23   24 ar
    50   23   48 1
    51   24   25 ar
    52   24   49 1
    53   25   26 ar
    54   25   50 1
    55   26   51 1
@<TRIPOS>MOLECULE
ZINC02012156
   29    30     0     0     0
SMALL
USER_CHARGES

@<TRIPOS>ATOM
      1 C1         -0.0187    1.5258    0.0104 C.3       1 <0>        -0.1843
      2 C2          0.0021   -0.0041    0.0020 C.3       1 <0>         0.0303
      3 H1          0.5123   -0.3556   -0.8948 H         1 <0>         0.1414
      4 C3          0.7421   -0.5109    1.2415 C.3       1 <0>        -0.0606
      5 C4          0.8700   -2.0108    1.1719 C.2       1 <0>        -0.2215
      6 C5          0.0429   -2.9093    1.7294 C.2       1 <0>         0.0618
      7 N1          0.4769   -4.1770    1.4539 N.pl3     1 <0>        -0.5842
      8 H2          0.0419   -4.9918    1.7501 H         1 <0>         0.4252
      9 C6          1.6250   -4.1237    0.6917 C.ar      1 <0>         0.0871
     10 C7          1.9169   -2.7646    0.4777 C.ar      1 <0>        -0.0854
     11 C8          3.0353   -2.4011   -0.2753 C.ar      1 <0>        -0.1109
     12 C9          3.8469   -3.3826   -0.8086 C.ar      1 <0>         0.0983
     13 C10         3.5533   -4.7271   -0.5977 C.ar      1 <0>        -0.1135
     14 C11         2.4572   -5.0970    0.1496 C.ar      1 <0>        -0.1049
     15 O1          4.9372   -3.0346   -1.5431 O.3       1 <0>        -0.4967
     16 N2         -1.3761   -0.5125    0.0124 N.4       1 <0>        -0.6362
     17 H3          1.0039    1.9031    0.0027 H         1 <0>         0.1072
     18 H4         -0.5459    1.8868   -0.8726 H         1 <0>         0.0828
     19 H5         -0.5289    1.8773    0.9072 H         1 <0>         0.0826
     20 H6          1.7350   -0.0630    1.2804 H         1 <0>         0.1171
     21 H7          0.1838   -0.2350    2.1361 H         1 <0>         0.0951
     22 H8         -0.8351   -2.6671    2.3099 H         1 <0>         0.1730
     23 H9          3.2639   -1.3585   -0.4398 H         1 <0>         0.1304
     24 H10         4.1943   -5.4871   -1.0195 H         1 <0>         0.1401
     25 H11         2.2380   -6.1429    0.3057 H         1 <0>         0.1319
     26 H12         5.7443   -2.9260   -1.0217 H         1 <0>         0.3962
     27 H13        -1.8641   -0.1783   -0.8050 H         1 <0>         0.4353
     28 H14        -1.3624   -1.5214    0.0069 H         1 <0>         0.4321
     29 H15        -1.8484   -0.1871    0.8426 H         1 <0>         0.4304
@<TRIPOS>BOND
     1    1    2 1
     2    1   17 1
     3    1   18 1
     4    1   19 1
     5    2    3 1
     6    2    4 1
     7    2   16 1
     8    4    5 1
     9    4   20 1
    10    4   21 1
    11    5   10 1
    12    5    6 2
    13    6    7 1
    14    6   22 1
    15    7    8 1
    16    7    9 1
    17    9   14 ar
    18    9   10 ar
    19   10   11 ar
    20   11   12 ar
    21   11   23 1
    22   12   13 ar
    23   12   15 1
    24   13   14 ar
    25   13   24 1
    26   14   25 1
    27   15   26 1
    28   16   27 1
    29   16   28 1
    30   16   29 1
@<TRIPOS>MOLECULE
ZINC02012157
   29    30     0     0     0
SMALL
USER_CHARGES

@<TRIPOS>ATOM
      1 C1         -0.0187    1.5258    0.0104 C.3       1 <0>        -0.1852
      2 C2          0.0021   -0.0041    0.0020 C.3       1 <0>         0.0317
      3 H1          0.5123   -0.3556   -0.8948 H         1 <0>         0.1402
      4 C3         -1.4333   -0.5336    0.0129 C.3       1 <0>        -0.0593
      5 C4         -1.4159   -2.0348   -0.1192 C.2       1 <0>        -0.2375
      6 C5         -1.5375   -2.7375   -1.2565 C.2       1 <0>         0.1041
      7 N1         -1.4747   -4.0771   -0.9862 N.pl3     1 <0>        -0.5844
      8 H2         -1.5385   -4.7829   -1.6485 H         1 <0>         0.4270
      9 C6         -1.3066   -4.2742    0.3683 C.ar      1 <0>         0.0898
     10 C7         -1.2568   -3.0032    0.9684 C.ar      1 <0>        -0.1004
     11 C8         -1.0862   -2.8897    2.3497 C.ar      1 <0>        -0.1441
     12 C9         -0.9639   -4.0306    3.1179 C.ar      1 <0>         0.1080
     13 C10        -1.0103   -5.2872    2.5203 C.ar      1 <0>        -0.1195
     14 C11        -1.1858   -5.4111    1.1599 C.ar      1 <0>        -0.0925
     15 O1         -0.7971   -3.9263    4.4635 O.3       1 <0>        -0.4983
     16 N2          0.7126   -0.4907    1.1921 N.4       1 <0>        -0.6383
     17 H3          1.0039    1.9031    0.0027 H         1 <0>         0.0828
     18 H4         -0.5459    1.8868   -0.8726 H         1 <0>         0.1071
     19 H5         -0.5289    1.8773    0.9072 H         1 <0>         0.0825
     20 H6         -1.9156   -0.2570    0.9504 H         1 <0>         0.0941
     21 H7         -1.9862   -0.1019   -0.8214 H         1 <0>         0.1174
     22 H8         -1.6662   -2.3088   -2.2393 H         1 <0>         0.1797
     23 H9         -1.0497   -1.9155    2.8143 H         1 <0>         0.1217
     24 H10        -0.9133   -6.1734    3.1300 H         1 <0>         0.1417
     25 H11        -1.2188   -6.3908    0.7066 H         1 <0>         0.1345
     26 H12        -1.6252   -3.9158    4.9628 H         1 <0>         0.3991
     27 H13         0.2403   -0.1653    2.0223 H         1 <0>         0.4297
     28 H14         0.7262   -1.4996    1.1866 H         1 <0>         0.4348
     29 H15         1.6592   -0.1415    1.1850 H         1 <0>         0.4335
@<TRIPOS>BOND
     1    1    2 1
     2    1   17 1
     3    1   18 1
     4    1   19 1
     5    2    3 1
     6    2    4 1
     7    2   16 1
     8    4    5 1
     9    4   20 1
    10    4   21 1
    11    5   10 1
    12    5    6 2
    13    6    7 1
    14    6   22 1
    15    7    8 1
    16    7    9 1
    17    9   14 ar
    18    9   10 ar
    19   10   11 ar
    20   11   12 ar
    21   11   23 1
    22   12   13 ar
    23   12   15 1
    24   13   14 ar
    25   13   24 1
    26   14   25 1
    27   15   26 1
    28   16   27 1
    29   16   28 1
    30   16   29 1
@<TRIPOS>MOLECULE
ZINC00005994
   38    41     0     0     0
SMALL
USER_CHARGES

@<TRIPOS>ATOM
      1 C1          0.0058    1.4607    0.0093 C.3       1 <0>         0.0786
      2 N1          0.0188   -0.0042    0.0014 N.pl3     1 <0>        -0.4896
      3 C2          0.0187   -0.7844   -1.1224 C.2       1 <0>         0.0569
      4 C3          0.0329   -2.0819   -0.7790 C.2       1 <0>        -0.2038
      5 C4          0.0429   -2.1385    0.6854 C.ar      1 <0>        -0.0817
      6 C5          0.0390   -0.8025    1.1254 C.ar      1 <0>         0.0824
      7 C6          0.0520   -0.5352    2.4891 C.ar      1 <0>        -0.0899
      8 C7          0.0719   -1.5711    3.3981 C.ar      1 <0>        -0.1088
      9 C8          0.0793   -2.8962    2.9739 C.ar      1 <0>         0.1289
     10 C9          0.0590   -3.1785    1.6134 C.ar      1 <0>        -0.0819
     11 N2          0.0994   -3.7826    4.0589 N.am      1 <0>        -0.5605
     12 C10         0.1065   -3.0344    5.3184 C.3       1 <0>         0.0956
     13 C11         0.0884   -1.5526    4.9109 C.3       1 <0>        -0.0798
     14 C12         0.1106   -5.1266    3.9586 C.2       1 <0>         0.7167
     15 O1          0.1033   -5.6545    2.8632 O.2       1 <0>        -0.5529
     16 N3          0.1298   -5.8854    5.0722 N.am      1 <0>        -0.6756
     17 C13         0.0425   -7.2787    4.9714 C.ar      1 <0>         0.1098
     18 C14         0.6369   -7.9485    3.9047 C.ar      1 <0>        -0.0763
     19 C15         0.5236   -9.3278    3.8487 C.ar      1 <0>        -0.1510
     20 C16        -0.1700   -9.9895    4.8451 C.ar      1 <0>         0.0814
     21 N4         -0.7218   -9.3257    5.8419 N.ar      1 <0>        -0.4653
     22 C17        -0.6329   -8.0139    5.9363 C.ar      1 <0>         0.0780
     23 H1          1.0301    1.8332   -0.0007 H         1 <0>         0.0689
     24 H2         -0.5216    1.8241   -0.8727 H         1 <0>         0.0833
     25 H3         -0.5008    1.8147    0.9071 H         1 <0>         0.0798
     26 H4          0.0083   -0.4115   -2.1359 H         1 <0>         0.1700
     27 H5          0.0357   -2.9248   -1.4542 H         1 <0>         0.1485
     28 H6          0.0469    0.4870    2.8377 H         1 <0>         0.1233
     29 H7          0.0662   -4.2040    1.2748 H         1 <0>         0.1418
     30 H8         -0.7795   -3.2754    5.9058 H         1 <0>         0.0840
     31 H9          1.0095   -3.2590    5.8861 H         1 <0>         0.0833
     32 H10         0.9832   -1.0477    5.2748 H         1 <0>         0.0939
     33 H11        -0.8072   -1.0640    5.2946 H         1 <0>         0.0940
     34 H12         0.2042   -5.4660    5.9437 H         1 <0>         0.4106
     35 H13         1.1725   -7.4058    3.1399 H         1 <0>         0.1513
     36 H14         0.9716   -9.8801    3.0358 H         1 <0>         0.1401
     37 H15        -0.2613  -11.0649    4.8063 H         1 <0>         0.1592
     38 H16        -1.0942   -7.5054    6.7700 H         1 <0>         0.1568
@<TRIPOS>BOND
     1    1    2 1
     2    1   23 1
     3    1   24 1
     4    1   25 1
     5    2    6 1
     6    2    3 1
     7    3    4 2
     8    3   26 1
     9    4    5 1
    10    4   27 1
    11    5   10 ar
    12    5    6 ar
    13    6    7 ar
    14    7    8 ar
    15    7   28 1
    16    8   13 1
    17    8    9 ar
    18    9   10 ar
    19    9   11 1
    20   10   29 1
    21   11   12 1
    22   11   14 am
    23   12   13 1
    24   12   30 1
    25   12   31 1
    26   13   32 1
    27   13   33 1
    28   14   15 2
    29   14   16 am
    30   16   17 1
    31   16   34 1
    32   17   22 ar
    33   17   18 ar
    34   18   19 ar
    35   18   35 1
    36   19   20 ar
    37   19   36 1
    38   20   21 ar
    39   20   37 1
    40   21   22 ar
    41   22   38 1
@<TRIPOS>MOLECULE
ZINC01493052
   48    51     0     0     0
SMALL
USER_CHARGES

@<TRIPOS>ATOM
      1 C1         -0.0167    1.3781    0.0096 C.ar      1 <0>        -0.0842
      2 C2          1.1709    2.0855    0.0021 C.ar      1 <0>        -0.1135
      3 C3          2.3773    1.4107   -0.0130 C.ar      1 <0>        -0.0976
      4 C4          2.3960    0.0285   -0.0201 C.ar      1 <0>        -0.1610
      5 C5          1.2084   -0.6789   -0.0117 C.ar      1 <0>        -0.0939
      6 C6          0.0021   -0.0041    0.0020 C.ar      1 <0>        -0.1128
      7 C7          3.7112   -0.7071   -0.0376 C.3       1 <0>         0.0441
      8 N1          4.1530   -0.9531    1.3416 N.4       1 <0>        -0.3801
      9 C8          4.4243    0.3290    2.0029 C.3       1 <0>        -0.0140
     10 C9          4.8081    0.0829    3.4636 C.3       1 <0>        -0.1356
     11 C10         6.0638   -0.7934    3.5145 C.3       1 <0>        -0.0175
     12 C11         7.2243   -0.0555    2.8485 C.3       1 <0>        -0.1193
     13 C12         8.5104   -0.8516    3.0986 C.3       1 <0>        -0.1221
     14 C13         8.8677   -0.7356    4.5791 C.3       1 <0>        -0.0881
     15 C14         7.6808   -1.0849    5.4385 C.ar      1 <0>        -0.0636
     16 C15         6.3934   -1.1080    4.9508 C.ar      1 <0>        -0.0840
     17 C16         5.3425   -1.4326    5.7985 C.ar      1 <0>        -0.1195
     18 C17         5.5785   -1.7342    7.1241 C.ar      1 <0>        -0.1192
     19 C18         6.8713   -1.7142    7.6129 C.ar      1 <0>        -0.1062
     20 C19         7.9165   -1.3907    6.7725 C.ar      1 <0>        -0.1178
     21 C20         5.7908   -2.0984    2.7598 C.3       1 <0>        -0.1359
     22 C21         5.3707   -1.7724    1.3250 C.3       1 <0>        -0.0102
     23 H1         -0.9591    1.9053    0.0259 H         1 <0>         0.1358
     24 H2          1.1563    3.1654    0.0076 H         1 <0>         0.1361
     25 H3          3.3051    1.9634   -0.0196 H         1 <0>         0.1307
     26 H4          1.2231   -1.7588   -0.0176 H         1 <0>         0.1310
     27 H5         -0.9258   -0.5567    0.0082 H         1 <0>         0.1360
     28 H6          3.5884   -1.6586   -0.5549 H         1 <0>         0.1369
     29 H7          4.4573   -0.1052   -0.5563 H         1 <0>         0.1347
     30 H8          5.2443    0.8342    1.4925 H         1 <0>         0.1296
     31 H9          3.5323    0.9541    1.9625 H         1 <0>         0.1327
     32 H10         5.0092    1.0360    3.9527 H         1 <0>         0.1137
     33 H11         3.9895   -0.4238    3.9746 H         1 <0>         0.0913
     34 H12         7.0431    0.0221    1.7764 H         1 <0>         0.0652
     35 H13         7.3202    0.9417    3.2782 H         1 <0>         0.0804
     36 H14         8.3504   -1.8984    2.8403 H         1 <0>         0.0691
     37 H15         9.3190   -0.4428    2.4926 H         1 <0>         0.0767
     38 H16         9.6882   -1.4166    4.8054 H         1 <0>         0.0811
     39 H17         9.1795    0.2863    4.7948 H         1 <0>         0.0815
     40 H18         4.3322   -1.4488    5.4172 H         1 <0>         0.1180
     41 H19         4.7560   -1.9853    7.7774 H         1 <0>         0.1257
     42 H20         7.0624   -1.9507    8.6492 H         1 <0>         0.1275
     43 H21         8.9263   -1.3748    7.1552 H         1 <0>         0.1260
     44 H22         6.6953   -2.7065    2.7451 H         1 <0>         0.1161
     45 H23         4.9909   -2.6464    3.2578 H         1 <0>         0.0904
     46 H24         5.1773   -2.6989    0.7842 H         1 <0>         0.1326
     47 H25         6.1708   -1.2233    0.8285 H         1 <0>         0.1320
     48 H26         3.4271   -1.4414    1.8443 H         1 <0>         0.4212
@<TRIPOS>BOND
     1    1    6 ar
     2    1    2 ar
     3    1   23 1
     4    2    3 ar
     5    2   24 1
     6    3    4 ar
     7    3   25 1
     8    4    5 ar
     9    4    7 1
    10    5    6 ar
    11    5   26 1
    12    6   27 1
    13    7    8 1
    14    7   28 1
    15    7   29 1
    16    8   22 1
    17    8    9 1
    18    8   48 1
    19    9   10 1
    20    9   30 1
    21    9   31 1
    22   10   11 1
    23   10   32 1
    24   10   33 1
    25   11   16 1
    26   11   12 1
    27   11   21 1
    28   12   13 1
    29   12   34 1
    30   12   35 1
    31   13   14 1
    32   13   36 1
    33   13   37 1
    34   14   15 1
    35   14   38 1
    36   14   39 1
    37   15   20 ar
    38   15   16 ar
    39   16   17 ar
    40   17   18 ar
    41   17   40 1
    42   18   19 ar
    43   18   41 1
    44   19   20 ar
    45   19   42 1
    46   20   43 1
    47   21   22 1
    48   21   44 1
    49   21   45 1
    50   22   46 1
    51   22   47 1
