@<TRIPOS>MOLECULE
ZINC00157416
   28    29     0     0     0
SMALL
USER_CHARGES
2-piperazin-1-ylphenol
@<TRIPOS>ATOM
      1 C1          1.1407    3.5085    0.0361 C.ar      1 <0>        -0.1019
      2 C2         -0.0762    4.1646    0.0380 C.ar      1 <0>        -0.1041
      3 C3         -1.2554    3.4425    0.0198 C.ar      1 <0>        -0.1244
      4 C4         -1.2199    2.0580   -0.0000 C.ar      1 <0>         0.1059
      5 C5          0.0060    1.3960   -0.0020 C.ar      1 <0>         0.0566
      6 C6          1.1848    2.1270    0.0212 C.ar      1 <0>        -0.1477
      7 N1          0.0480   -0.0028   -0.0214 N.pl3     1 <0>        -0.4788
      8 C7          1.4160   -0.4854   -0.2565 C.3       1 <0>         0.0189
      9 C8          1.4063   -2.0130   -0.3498 C.3       1 <0>         0.0017
     10 C9         -0.5086   -2.0911    1.1287 C.3       1 <0>         0.0021
     11 C10        -0.4988   -0.5635    1.2220 C.3       1 <0>         0.0248
     12 O1         -2.3789    1.3465   -0.0171 O.3       1 <0>        -0.4835
     13 H1          2.0590    4.0766    0.0507 H         1 <0>         0.1337
     14 H2         -0.1060    5.2441    0.0541 H         1 <0>         0.1358
     15 H3         -2.2043    3.9582    0.0213 H         1 <0>         0.1392
     16 H4          2.1367    1.6169    0.0239 H         1 <0>         0.1306
     17 H5          1.7942   -0.0665   -1.1890 H         1 <0>         0.1285
     18 H6          2.0577   -0.1756    0.5684 H         1 <0>         0.0704
     19 H7          2.4241   -2.3750   -0.4952 H         1 <0>         0.1417
     20 H8          0.7864   -2.3220   -1.1914 H         1 <0>         0.1408
     21 H9         -0.8868   -2.5100    2.0612 H         1 <0>         0.1411
     22 H10        -1.1505   -2.4010    0.3041 H         1 <0>         0.1418
     23 H11         0.1211   -0.2545    2.0637 H         1 <0>         0.0671
     24 H12        -1.5165   -0.2012    1.3676 H         1 <0>         0.1230
     25 H13        -2.7631    1.1996    0.8581 H         1 <0>         0.3839
     26 N2          0.8644   -2.5799    0.8997 N.4       1 <0>        -0.5186
     27 H14         1.4604   -2.2974    1.6865 H         1 <0>         0.4308
     28 H15         0.8523   -3.6042    0.8299 H         1 <0>         0.4405
@<TRIPOS>BOND
     1    1    6 ar
     2    1    2 ar
     3    1   13 1
     4    2    3 ar
     5    2   14 1
     6    3    4 ar
     7    3   15 1
     8    4    5 ar
     9    4   12 1
    10    5    6 ar
    11    5    7 1
    12    6   16 1
    13    7   11 1
    14    7    8 1
    15    8    9 1
    16    8   17 1
    17    8   18 1
    18    9   19 1
    19    9   20 1
    20    9   26 1
    21   10   11 1
    22   10   21 1
    23   10   22 1
    24   10   26 1
    25   11   23 1
    26   11   24 1
    27   12   25 1
    28   26   27 1
    29   26   28 1
@<TRIPOS>MOLECULE
ZINC19418965
   25    27     0     0     0
SMALL
USER_CHARGES

@<TRIPOS>ATOM
      1 C1         -0.0164    1.3616    0.0095 C.ar      1 <0>        -0.1454
      2 C2          1.1695    2.0833    0.0021 C.ar      1 <0>        -0.0997
      3 C3          2.3848    1.4354   -0.0136 C.ar      1 <0>        -0.1295
      4 C4          2.4283    0.0454   -0.0218 C.ar      1 <0>         0.0961
      5 C5          1.2225   -0.6835   -0.0137 C.ar      1 <0>        -0.0978
      6 C6          0.0021   -0.0041    0.0020 C.ar      1 <0>        -0.0713
      7 C7          1.6088   -2.0882   -0.0263 C.2       1 <0>        -0.1591
      8 C8          2.9566   -2.1372   -0.0397 C.2       1 <0>         0.0694
      9 N1          3.4598   -0.8692   -0.0378 N.pl3     1 <0>        -0.5861
     10 H1          4.4034   -0.6444   -0.0464 H         1 <0>         0.4138
     11 C9          3.7316   -3.4345   -0.0523 C.3       1 <0>         0.1245
     12 N2          2.8254   -4.5211    0.3537 N.3       1 <0>        -0.6853
     13 C10         1.5870   -4.5132   -0.4375 C.3       1 <0>         0.0560
     14 C11         0.7260   -3.3100   -0.0273 C.3       1 <0>        -0.0425
     15 H2         -0.9614    1.8843    0.0259 H         1 <0>         0.1229
     16 H3          1.1388    3.1629    0.0083 H         1 <0>         0.1256
     17 H4          3.3020    2.0056   -0.0198 H         1 <0>         0.1194
     18 H5         -0.9252   -0.5577    0.0086 H         1 <0>         0.1211
     19 H6          4.1088   -3.6271   -1.0567 H         1 <0>         0.0518
     20 H7          4.5651   -3.3710    0.6473 H         1 <0>         0.0906
     21 H8          3.2861   -5.4169    0.2954 H         1 <0>         0.3535
     22 H9          1.8330   -4.4399   -1.4969 H         1 <0>         0.0367
     23 H10         1.0338   -5.4347   -0.2558 H         1 <0>         0.0824
     24 H11         0.3182   -3.4712    0.9706 H         1 <0>         0.0782
     25 H12        -0.0865   -3.1773   -0.7416 H         1 <0>         0.0748
@<TRIPOS>BOND
     1    1    6 ar
     2    1    2 ar
     3    1   15 1
     4    2    3 ar
     5    2   16 1
     6    3    4 ar
     7    3   17 1
     8    4    9 1
     9    4    5 ar
    10    5    6 ar
    11    5    7 1
    12    6   18 1
    13    7   14 1
    14    7    8 2
    15    8    9 1
    16    8   11 1
    17    9   10 1
    18   11   12 1
    19   11   19 1
    20   11   20 1
    21   12   13 1
    22   12   21 1
    23   13   14 1
    24   13   22 1
    25   13   23 1
    26   14   24 1
    27   14   25 1
@<TRIPOS>MOLECULE
ZINC13531276
   49    52     0     0     0
SMALL
USER_CHARGES

@<TRIPOS>ATOM
      1 C1         -0.8422   -1.4281    2.5852 C.3       1 <0>        -0.1676
      2 C2          0.1578   -0.2702    2.5803 C.3       1 <0>         0.1087
      3 N1          0.8272   -0.2085    1.2786 N.am      1 <0>        -0.6114
      4 C3          0.1969    0.5031    0.1638 C.3       1 <0>         0.0974
      5 C4          0.5280    1.9939    0.2580 C.3       1 <0>        -0.1731
      6 C5          2.0228   -0.8063    1.1066 C.2       1 <0>         0.5270
      7 O1          2.5101   -1.4575    2.0063 O.2       1 <0>        -0.5326
      8 C6          2.7540   -0.6657   -0.2035 C.3       1 <0>        -0.0724
      9 H1          2.6436    0.3520   -0.5782 H         1 <0>         0.1166
     10 C7          4.2401   -0.9832   -0.0020 C.3       1 <0>         0.0789
     11 N2          4.9057   -0.9353   -1.3074 N.3       1 <0>        -0.5480
     12 C8          4.4367   -1.9669   -2.2235 C.3       1 <0>         0.1392
     13 H2          4.9348   -2.8939   -1.9395 H         1 <0>         0.0480
     14 C9          4.8913   -1.6340   -3.6512 C.3       1 <0>        -0.0299
     15 C10         4.3040   -2.6373   -4.6092 C.2       1 <0>        -0.1090
     16 C11         3.0719   -3.3348   -4.2609 C.ar      1 <0>        -0.1338
     17 C12         2.3503   -3.1762   -3.0588 C.ar      1 <0>         0.0057
     18 C13         1.2066   -3.9331   -2.9472 C.ar      1 <0>        -0.1269
     19 C14         0.8414   -4.7900   -3.9838 C.ar      1 <0>        -0.0861
     20 C15         1.5641   -4.9481   -5.1605 C.ar      1 <0>        -0.1209
     21 C16         2.7272   -4.1934   -5.3083 C.ar      1 <0>         0.1291
     22 N3          3.7073   -4.0334   -6.2415 N.pl3     1 <0>        -0.5792
     23 H3          3.7473   -4.5046   -7.0884 H         1 <0>         0.4202
     24 C17         4.6395   -3.1026   -5.8093 C.2       1 <0>         0.0680
     25 Br1         6.1685   -2.5703   -6.7863 Br        1 <0>         0.0100
     26 C18         2.9547   -2.2126   -2.1201 C.2       1 <0>        -0.0572
     27 C19         2.1917   -1.6384   -1.2050 C.2       1 <0>        -0.1258
     28 C20         6.3658   -0.9898   -1.1561 C.3       1 <0>         0.0266
     29 H4         -0.3148   -2.3644    2.4031 H         1 <0>         0.0586
     30 H5         -1.3402   -1.4740    3.5536 H         1 <0>         0.0668
     31 H6         -1.5841   -1.2707    1.8022 H         1 <0>         0.0553
     32 H7         -0.3696    0.6662    2.7624 H         1 <0>         0.0758
     33 H8          0.8997   -0.4275    3.3632 H         1 <0>         0.0859
     34 H9          0.5726    0.1063   -0.7793 H         1 <0>         0.0857
     35 H10        -0.8836    0.3672    0.2105 H         1 <0>         0.0802
     36 H11         0.0591    2.5233   -0.5715 H         1 <0>         0.0701
     37 H12         0.1523    2.3906    1.2011 H         1 <0>         0.0596
     38 H13         1.6085    2.1297    0.2113 H         1 <0>         0.0597
     39 H14         4.6857   -0.2442    0.6638 H         1 <0>         0.0869
     40 H15         4.3470   -1.9794    0.4273 H         1 <0>         0.0529
     41 H16         4.5499   -0.6337   -3.9177 H         1 <0>         0.0927
     42 H17         5.9792   -1.6736   -3.7050 H         1 <0>         0.0835
     43 H18         0.5947   -3.8637   -2.0600 H         1 <0>         0.1259
     44 H19        -0.0623   -5.3694   -3.8648 H         1 <0>         0.1264
     45 H20         1.2372   -5.6303   -5.9313 H         1 <0>         0.1327
     46 H21         1.1361   -1.8655   -1.1822 H         1 <0>         0.1204
     47 H22         6.6504   -1.9470   -0.7193 H         1 <0>         0.0300
     48 H23         6.8366   -0.8820   -2.1333 H         1 <0>         0.0748
     49 H24         6.6940   -0.1808   -0.5035 H         1 <0>         0.0748
@<TRIPOS>BOND
     1    1    2 1
     2    1   29 1
     3    1   30 1
     4    1   31 1
     5    2    3 1
     6    2   32 1
     7    2   33 1
     8    3    4 1
     9    3    6 am
    10    4    5 1
    11    4   34 1
    12    4   35 1
    13    5   36 1
    14    5   37 1
    15    5   38 1
    16    6    7 2
    17    6    8 1
    18    8    9 1
    19    8   27 1
    20    8   10 1
    21   10   11 1
    22   10   39 1
    23   10   40 1
    24   11   12 1
    25   11   28 1
    26   12   13 1
    27   12   26 1
    28   12   14 1
    29   14   15 1
    30   14   41 1
    31   14   42 1
    32   15   24 2
    33   15   16 1
    34   16   21 ar
    35   16   17 ar
    36   17   18 ar
    37   17   26 1
    38   18   19 ar
    39   18   43 1
    40   19   20 ar
    41   19   44 1
    42   20   21 ar
    43   20   45 1
    44   21   22 1
    45   22   23 1
    46   22   24 1
    47   24   25 1
    48   26   27 2
    49   27   46 1
    50   28   47 1
    51   28   48 1
    52   28   49 1
@<TRIPOS>MOLECULE
ZINC02516045
   33    35     0     0     0
SMALL
USER_CHARGES

@<TRIPOS>ATOM
      1 C1         -0.0164    1.3568    0.0095 C.ar      1 <0>        -0.1126
      2 C2          1.1685    2.0902    0.0021 C.ar      1 <0>        -0.1056
      3 C3          2.3785    1.4660   -0.0127 C.ar      1 <0>        -0.1107
      4 C4          2.4369    0.0637   -0.0208 C.ar      1 <0>        -0.0518
      5 C5          1.2329   -0.6830   -0.0133 C.ar      1 <0>        -0.0490
      6 C6          0.0021   -0.0041    0.0020 C.ar      1 <0>        -0.1001
      7 C7          1.2897   -2.0870   -0.0204 C.ar      1 <0>        -0.0877
      8 C8          2.4960   -2.7188   -0.0343 C.ar      1 <0>        -0.1184
      9 C9          3.6853   -1.9966   -0.0413 C.ar      1 <0>        -0.1083
     10 C10         3.6728   -0.6178   -0.0357 C.ar      1 <0>         0.1496
     11 N1          4.8691    0.0961   -0.0437 N.pl3     1 <0>        -0.6725
     12 C11         5.5338    0.4724    1.2136 C.3       1 <0>         0.1164
     13 C12         7.0032    0.0457    1.1328 C.3       1 <0>        -0.0236
     14 N2          7.6138    0.6222   -0.0717 N.4       1 <0>        -0.5026
     15 C13         6.9746    0.0667   -1.2713 C.3       1 <0>        -0.0233
     16 C14         5.5067    0.4896   -1.3097 C.3       1 <0>         0.1159
     17 H1         -0.9633    1.8759    0.0259 H         1 <0>         0.1287
     18 H2          1.1264    3.1693    0.0079 H         1 <0>         0.1252
     19 H3          3.2888    2.0471   -0.0187 H         1 <0>         0.1205
     20 H4         -0.9241   -0.5595    0.0082 H         1 <0>         0.1330
     21 H5          0.3773   -2.6647   -0.0144 H         1 <0>         0.1332
     22 H6          2.5301   -3.7982   -0.0396 H         1 <0>         0.1296
     23 H7          4.6289   -2.5219   -0.0517 H         1 <0>         0.1206
     24 H8          5.4729    1.5520    1.3511 H         1 <0>         0.0790
     25 H9          5.0507   -0.0340    2.0491 H         1 <0>         0.1164
     26 H10         7.5342    0.4020    2.0155 H         1 <0>         0.1398
     27 H11         7.0639   -1.0416    1.0862 H         1 <0>         0.1321
     28 H12         7.4939    1.6240   -0.0616 H         1 <0>         0.4274
     29 H13         7.4845    0.4385   -2.1601 H         1 <0>         0.1402
     30 H14         7.0361   -1.0212   -1.2452 H         1 <0>         0.1320
     31 H15         5.0057   -0.0055   -2.1415 H         1 <0>         0.1165
     32 H16         5.4430    1.5709   -1.4312 H         1 <0>         0.0785
     33 H17         8.5988    0.4040   -0.0854 H         1 <0>         0.4316
@<TRIPOS>BOND
     1    1    6 ar
     2    1    2 ar
     3    1   17 1
     4    2    3 ar
     5    2   18 1
     6    3    4 ar
     7    3   19 1
     8    4   10 ar
     9    4    5 ar
    10    5    6 ar
    11    5    7 ar
    12    6   20 1
    13    7    8 ar
    14    7   21 1
    15    8    9 ar
    16    8   22 1
    17    9   10 ar
    18    9   23 1
    19   10   11 1
    20   11   16 1
    21   11   12 1
    22   12   13 1
    23   12   24 1
    24   12   25 1
    25   13   14 1
    26   13   26 1
    27   13   27 1
    28   14   15 1
    29   14   28 1
    30   14   33 1
    31   15   16 1
    32   15   29 1
    33   15   30 1
    34   16   31 1
    35   16   32 1
@<TRIPOS>MOLECULE
ZINC00057058
   26    27     0     0     0
SMALL
USER_CHARGES

@<TRIPOS>ATOM
      1 C1         -0.0168    1.3880    0.0097 C.ar      1 <0>        -0.1182
      2 C2          1.1587    2.1055    0.0023 C.ar      1 <0>        -0.1024
      3 C3          2.3795    1.4398   -0.0129 C.ar      1 <0>         0.0862
      4 C4          2.4019    0.0334   -0.0206 C.ar      1 <0>        -0.0842
      5 C5          1.2039   -0.6838   -0.0130 C.ar      1 <0>        -0.1143
      6 C6          0.0021   -0.0041    0.0020 C.ar      1 <0>         0.0953
      7 O1         -1.1679   -0.6972    0.0094 O.3       1 <0>        -0.4959
      8 C7          3.8159   -0.3493   -0.0361 C.2       1 <0>        -0.2101
      9 C8          4.5307    0.7870   -0.0369 C.2       1 <0>         0.0918
     10 N1          3.6908    1.8667   -0.0231 N.pl3     1 <0>        -0.5866
     11 H1          3.9751    2.7941   -0.0208 H         1 <0>         0.4248
     12 C9          4.3642   -1.7530   -0.0489 C.3       1 <0>        -0.0616
     13 C10         4.4190   -2.2661   -1.4892 C.3       1 <0>        -0.0080
     14 N2          4.9535   -3.6343   -1.5017 N.4       1 <0>        -0.6389
     15 H2         -0.9621    1.9101    0.0260 H         1 <0>         0.1389
     16 H3          1.1325    3.1852    0.0080 H         1 <0>         0.1315
     17 H4          1.2172   -1.7637   -0.0192 H         1 <0>         0.1256
     18 H5         -1.5147   -0.8930   -0.8718 H         1 <0>         0.3922
     19 H6          5.6093    0.8408   -0.0472 H         1 <0>         0.1750
     20 H7          5.3681   -1.7548    0.3759 H         1 <0>         0.0927
     21 H8          3.7180   -2.4009    0.5433 H         1 <0>         0.0925
     22 H9          3.4152   -2.2643   -1.9140 H         1 <0>         0.1329
     23 H10         5.0652   -1.6182   -2.0814 H         1 <0>         0.1331
     24 H11         5.8827   -3.6360   -1.1085 H         1 <0>         0.4347
     25 H12         4.3553   -4.2341   -0.9535 H         1 <0>         0.4353
     26 H13         4.9896   -3.9727   -2.4515 H         1 <0>         0.4379
@<TRIPOS>BOND
     1    1    6 ar
     2    1    2 ar
     3    1   15 1
     4    2    3 ar
     5    2   16 1
     6    3   10 1
     7    3    4 ar
     8    4    5 ar
     9    4    8 1
    10    5    6 ar
    11    5   17 1
    12    6    7 1
    13    7   18 1
    14    8    9 2
    15    8   12 1
    16    9   10 1
    17    9   19 1
    18   10   11 1
    19   12   13 1
    20   12   20 1
    21   12   21 1
    22   13   14 1
    23   13   22 1
    24   13   23 1
    25   14   24 1
    26   14   25 1
    27   14   26 1
@<TRIPOS>MOLECULE
ZINC00004285
   27    28     0     0     0
SMALL
USER_CHARGES

@<TRIPOS>ATOM
      1 C1          1.2094   -0.6829   -0.0259 C.ar      1 <0>        -0.0559
      2 C2          2.3979    0.0209   -0.0344 C.ar      1 <0>        -0.1831
      3 C3          2.3816    1.4097   -0.0131 C.ar      1 <0>         0.2087
      4 C4          1.1691    2.0868    0.0168 C.ar      1 <0>        -0.1820
      5 C5         -0.0166    1.3770    0.0252 C.ar      1 <0>         0.0115
      6 C6          0.0038   -0.0070    0.0039 C.ar      1 <0>        -0.1477
      7 Cl1        -1.5329    2.2215    0.0631 Cl        1 <0>        -0.0529
      8 N1          3.5819    2.1238   -0.0212 N.pl3     1 <0>        -0.6440
      9 C7          3.5881    3.5917   -0.1177 C.3       1 <0>         0.0953
     10 C8          4.4790    4.1481    0.9980 C.3       1 <0>        -0.0234
     11 N2          5.8082    3.5297    0.9158 N.4       1 <0>        -0.5039
     12 C9          5.7059    2.0879    1.1740 C.3       1 <0>        -0.0230
     13 C10         4.8756    1.4298    0.0728 C.3       1 <0>         0.0972
     14 H1          1.2219   -1.7626   -0.0470 H         1 <0>         0.1398
     15 H2          3.3391   -0.5082   -0.0573 H         1 <0>         0.1300
     16 H3          1.1530    3.1665    0.0338 H         1 <0>         0.1337
     17 H4         -0.9239   -0.5598    0.0102 H         1 <0>         0.1388
     18 H5          3.9841    3.8934   -1.0874 H         1 <0>         0.0915
     19 H6          2.5730    3.9708    0.0008 H         1 <0>         0.1270
     20 H7          4.5728    5.2280    0.8837 H         1 <0>         0.1454
     21 H8          4.0324    3.9224    1.9663 H         1 <0>         0.1351
     22 H9          6.1908    3.6788   -0.0059 H         1 <0>         0.4289
     23 H10         6.7038    1.6497    1.1894 H         1 <0>         0.1456
     24 H11         5.2222    1.9245    2.1370 H         1 <0>         0.1348
     25 H12         4.7114    0.3803    0.3171 H         1 <0>         0.1277
     26 H13         5.4038    1.5094   -0.8774 H         1 <0>         0.0904
     27 H14         6.4166    3.9507    1.6019 H         1 <0>         0.4345
@<TRIPOS>BOND
     1    1    6 ar
     2    1    2 ar
     3    1   14 1
     4    2    3 ar
     5    2   15 1
     6    3    4 ar
     7    3    8 1
     8    4    5 ar
     9    4   16 1
    10    5    6 ar
    11    5    7 1
    12    6   17 1
    13    8   13 1
    14    8    9 1
    15    9   10 1
    16    9   18 1
    17    9   19 1
    18   10   11 1
    19   10   20 1
    20   10   21 1
    21   11   12 1
    22   11   22 1
    23   11   27 1
    24   12   13 1
    25   12   23 1
    26   12   24 1
    27   13   25 1
    28   13   26 1
@<TRIPOS>MOLECULE
ZINC12428108
   28    30     0     0     0
SMALL
USER_CHARGES
5-methyl-1,2,3,4-tetrahydropyrido[4,3-b]indole
@<TRIPOS>ATOM
      1 C1          3.1003    0.6338   -4.1275 C.3       1 <0>         0.0727
      2 N1          1.7262    0.9259   -3.7120 N.pl3     1 <0>        -0.4736
      3 C2          0.6704    1.1077   -4.5594 C.ar      1 <0>         0.0946
      4 C3          0.5726    1.0761   -5.9489 C.ar      1 <0>        -0.1312
      5 C4         -0.6778    1.3084   -6.4951 C.ar      1 <0>        -0.1006
      6 C5         -1.7912    1.5624   -5.7110 C.ar      1 <0>        -0.1490
      7 C6         -1.7250    1.5997   -4.3402 C.ar      1 <0>        -0.0674
      8 C7         -0.4735    1.3680   -3.7608 C.ar      1 <0>        -0.0962
      9 C8         -0.0187    1.3257   -2.3884 C.2       1 <0>        -0.2086
     10 C9          1.3068    1.0581   -2.4170 C.2       1 <0>         0.0667
     11 C10         2.1440    0.9360   -1.1648 C.3       1 <0>        -0.0931
     12 C11         1.3531    1.5501   -0.0025 C.3       1 <0>         0.0544
     13 N2         -0.0116    1.0048    0.0076 N.3       1 <0>        -0.6643
     14 C12        -0.8040    1.5280   -1.1179 C.3       1 <0>         0.1214
     15 H1          3.1486    0.5836   -5.2253 H         1 <0>         0.0877
     16 H2          3.4148   -0.3307   -3.7022 H         1 <0>         0.0754
     17 H3          3.7693    1.4291   -3.7670 H         1 <0>         0.0753
     18 H4          1.4329    0.8790   -6.5712 H         1 <0>         0.1249
     19 H5         -0.7891    1.2914   -7.5692 H         1 <0>         0.1210
     20 H6         -2.7416    1.7371   -6.1934 H         1 <0>         0.1189
     21 H7         -2.5988    1.7983   -3.7373 H         1 <0>         0.1296
     22 H8          2.3508   -0.1256   -0.9641 H         1 <0>         0.0833
     23 H9          3.0931    1.4744   -1.3043 H         1 <0>         0.0813
     24 H10         1.8507    1.3077    0.9481 H         1 <0>         0.0894
     25 H11         1.3094    2.6423   -0.1253 H         1 <0>         0.0773
     26 H12         0.0310   -0.0914   -0.0736 H         1 <0>         0.3432
     27 H13        -0.9986    2.6011   -0.9740 H         1 <0>         0.0816
     28 H14        -1.7599    0.9882   -1.1878 H         1 <0>         0.0854
@<TRIPOS>BOND
     1    1    2 1
     2    1   15 1
     3    1   16 1
     4    1   17 1
     5    2   10 1
     6    2    3 1
     7    3    8 ar
     8    3    4 ar
     9    4    5 ar
    10    4   18 1
    11    5    6 ar
    12    5   19 1
    13    6    7 ar
    14    6   20 1
    15    7    8 ar
    16    7   21 1
    17    8    9 1
    18    9   14 1
    19    9   10 2
    20   10   11 1
    21   11   12 1
    22   11   22 1
    23   11   23 1
    24   12   13 1
    25   12   24 1
    26   12   25 1
    27   13   14 1
    28   13   26 1
    29   14   27 1
    30   14   28 1
