@<TRIPOS>MOLECULE
ZINC13831234
   41    44     0     0     0
SMALL
USER_CHARGES

@<TRIPOS>ATOM
      1 C1         -0.3823    0.5182    2.8017 C.ar      1 <0>        -0.1048
      2 C2          0.7244    1.3399    2.9204 C.ar      1 <0>        -0.1025
      3 C3          1.9604    0.9207    2.4632 C.ar      1 <0>        -0.0729
      4 C4          2.0944   -0.3362    1.8791 C.ar      1 <0>        -0.1094
      5 C5          0.9697   -1.1713    1.7584 C.ar      1 <0>        -0.1155
      6 C6         -0.2673   -0.7332    2.2242 C.ar      1 <0>        -0.0712
      7 C7          1.1028   -2.5066    1.1394 C.2       1 <0>         0.4299
      8 O1          0.1301   -3.2292    1.0346 O.2       1 <0>        -0.4112
      9 C8          2.4133   -2.9597    0.6500 C.ar      1 <0>        -0.0554
     10 C9          2.5521   -4.2215    0.0614 C.ar      1 <0>         0.1085
     11 C10         3.8036   -4.6399   -0.4002 C.ar      1 <0>         0.0367
     12 C11         4.8945   -3.8296   -0.2829 C.ar      1 <0>        -0.7023
     13 C12         4.7831   -2.5644    0.3011 C.ar      1 <0>         0.3547
     14 C13         3.5422   -2.1215    0.7712 C.ar      1 <0>        -0.2336
     15 C14         3.4110   -0.7925    1.3871 C.2       1 <0>         0.4438
     16 O2          4.3841   -0.0705    1.4913 O.2       1 <0>        -0.4525
     17 N1          5.8997   -1.7509    0.4147 N.pl3     1 <0>        -0.8306
     18 S1          6.4598   -4.3833   -0.8729 S.o2      1 <0>         2.6896
     19 O3          6.6135   -3.8571   -2.2203 O.2       1 <0>        -1.0542
     20 O4          7.4650   -3.8534    0.0353 O.2       1 <0>        -1.0505
     21 O5          6.4266   -5.8375   -0.8580 O.3       1 <0>        -1.0540
     22 N2          1.4512   -5.0550   -0.0634 N.pl3     1 <0>        -0.6767
     23 C15         0.5511   -4.8706   -1.1161 C.ar      1 <0>         0.2447
     24 C16         0.7753   -3.8733   -2.0570 C.ar      1 <0>        -0.1807
     25 C17        -0.1157   -3.6937   -3.0966 C.ar      1 <0>        -0.0606
     26 C18        -1.2314   -4.5058   -3.2015 C.ar      1 <0>        -0.0945
     27 C19        -1.4576   -5.4998   -2.2655 C.ar      1 <0>        -0.0636
     28 C20        -0.5668   -5.6881   -1.2272 C.ar      1 <0>        -0.1757
     29 Cl1        -2.3497   -4.2768   -4.5094 Cl        1 <0>        -0.0895
     30 H1         -1.3416    0.8544    3.1664 H         1 <0>         0.1346
     31 H2          0.6223    2.3152    3.3728 H         1 <0>         0.1349
     32 H3          2.8202    1.5673    2.5587 H         1 <0>         0.1426
     33 H4         -1.1352   -1.3696    2.1350 H         1 <0>         0.1410
     34 H5          3.9078   -5.6145   -0.8538 H         1 <0>         0.1507
     35 H6          6.6238   -1.8287   -0.2261 H         1 <0>         0.4124
     36 H7          5.9570   -1.1037    1.1350 H         1 <0>         0.4135
     37 H8          1.3058   -5.7661    0.5801 H         1 <0>         0.4102
     38 H9          1.6455   -3.2388   -1.9752 H         1 <0>         0.1271
     39 H10         0.0581   -2.9186   -3.8282 H         1 <0>         0.1291
     40 H11        -2.3295   -6.1316   -2.3495 H         1 <0>         0.1289
     41 H12        -0.7415   -6.4668   -0.4996 H         1 <0>         0.1288
@<TRIPOS>BOND
     1    1    6 ar
     2    1    2 ar
     3    1   30 1
     4    2    3 ar
     5    2   31 1
     6    3    4 ar
     7    3   32 1
     8    4   15 1
     9    4    5 ar
    10    5    6 ar
    11    5    7 1
    12    6   33 1
    13    7    8 2
    14    7    9 1
    15    9   14 ar
    16    9   10 ar
    17   10   11 ar
    18   10   22 1
    19   11   12 ar
    20   11   34 1
    21   12   13 ar
    22   12   18 1
    23   13   14 ar
    24   13   17 1
    25   14   15 1
    26   15   16 2
    27   17   35 1
    28   17   36 1
    29   18   19 2
    30   18   20 2
    31   18   21 1
    32   22   23 1
    33   22   37 1
    34   23   28 ar
    35   23   24 ar
    36   24   25 ar
    37   24   38 1
    38   25   26 ar
    39   25   39 1
    40   26   27 ar
    41   26   29 1
    42   27   28 ar
    43   27   40 1
    44   28   41 1
@<TRIPOS>MOLECULE
ZINC03873984
   46    49     0     0     0
SMALL
USER_CHARGES
1-amino-4-(4-amino-3-sulfo-phenyl)amino-9,10-dioxo-anthracene-2-sulfonic acid
@<TRIPOS>ATOM
      1 C1          7.6502   -2.6282   -1.0865 C.ar      1 <0>        -0.1046
      2 C2          8.7768   -1.8255   -1.0612 C.ar      1 <0>        -0.1097
      3 C3          8.6637   -0.4664   -0.8320 C.ar      1 <0>        -0.0754
      4 C4          7.4085    0.1003   -0.6258 C.ar      1 <0>        -0.1120
      5 C5          6.2635   -0.7153   -0.6518 C.ar      1 <0>        -0.1062
      6 C6          6.3960   -2.0820   -0.8836 C.ar      1 <0>        -0.0731
      7 C7          4.9276   -0.1222   -0.4345 C.2       1 <0>         0.4180
      8 O1          3.9369   -0.8275   -0.4563 O.2       1 <0>        -0.3904
      9 C8          4.7983    1.3221   -0.1913 C.ar      1 <0>        -0.0647
     10 C9          3.5386    1.8957    0.0152 C.ar      1 <0>         0.1405
     11 C10         3.4292    3.2716    0.2392 C.ar      1 <0>         0.0398
     12 C11         4.5405    4.0616    0.2700 C.ar      1 <0>        -0.7044
     13 C12         5.8105    3.5137    0.0667 C.ar      1 <0>         0.3423
     14 C13         5.9475    2.1409   -0.1651 C.ar      1 <0>        -0.2355
     15 C14         7.2775    1.5517   -0.3810 C.2       1 <0>         0.4470
     16 O2          8.2677    2.2577   -0.3585 O.2       1 <0>        -0.4632
     17 N1          6.9314    4.3288    0.0944 N.pl3     1 <0>        -0.8400
     18 S1          4.3733    5.7912    0.5622 S.o2      1 <0>         2.6929
     19 O3          4.3115    5.9608    1.9717 O.2       1 <0>        -1.0492
     20 O4          5.3533    6.4352   -0.2404 O.2       1 <0>        -1.0483
     21 N2          2.4021    1.1031   -0.0078 N.pl3     1 <0>        -0.6954
     22 C15         2.0422    0.3630    1.1238 C.ar      1 <0>         0.1498
     23 C16         2.8407    0.3991    2.2603 C.ar      1 <0>        -0.1108
     24 C17         2.4853   -0.3306    3.3768 C.ar      1 <0>        -0.1819
     25 C18         1.3292   -1.1007    3.3643 C.ar      1 <0>         0.2446
     26 C19         0.5286   -1.1330    2.2301 C.ar      1 <0>        -0.6937
     27 C20         0.8866   -0.4073    1.1113 C.ar      1 <0>        -0.0362
     28 S2         -0.9410   -2.1050    2.2165 S.o2      1 <0>         2.7046
     29 O5         -0.6012   -3.3467    1.6148 O.2       1 <0>        -1.0608
     30 O6         -1.4977   -2.0178    3.5211 O.2       1 <0>        -1.0616
     31 N3          0.9689   -1.8400    4.4963 N.pl3     1 <0>        -0.8835
     32 H1          7.7508   -3.6884   -1.2661 H         1 <0>         0.1327
     33 H2          9.7510   -2.2632   -1.2217 H         1 <0>         0.1313
     34 H3          9.5472    0.1543   -0.8128 H         1 <0>         0.1395
     35 H4          5.5207   -2.7143   -0.9054 H         1 <0>         0.1432
     36 H5          2.4554    3.7124    0.3934 H         1 <0>         0.1512
     37 H6          7.7212    4.0847   -0.4130 H         1 <0>         0.4123
     38 H7          6.9258    5.1432    0.6212 H         1 <0>         0.4035
     39 H8          1.8560    1.0613   -0.8084 H         1 <0>         0.4071
     40 H9          3.7395    0.9978    2.2700 H         1 <0>         0.1122
     41 H10         3.1060   -0.3026    4.2602 H         1 <0>         0.1135
     42 H11         0.2656   -0.4351    0.2281 H         1 <0>         0.1295
     43 H12         1.5264   -1.8148    5.2897 H         1 <0>         0.3882
     44 H13         0.1617   -2.3777    4.4876 H         1 <0>         0.4058
     45 O7          3.0172    6.2112    0.0137 O.3       1 <0>        -1.0687
     46 O8         -1.9243   -1.4211    1.2774 O.3       1 <0>        -1.0805
@<TRIPOS>BOND
     1    1    6 ar
     2    1    2 ar
     3    1   32 1
     4    2    3 ar
     5    2   33 1
     6    3    4 ar
     7    3   34 1
     8    4   15 1
     9    4    5 ar
    10    5    6 ar
    11    5    7 1
    12    6   35 1
    13    7    8 2
    14    7    9 1
    15    9   14 ar
    16    9   10 ar
    17   10   11 ar
    18   10   21 1
    19   11   12 ar
    20   11   36 1
    21   12   13 ar
    22   12   18 1
    23   13   14 ar
    24   13   17 1
    25   14   15 1
    26   15   16 2
    27   17   37 1
    28   17   38 1
    29   18   19 2
    30   18   20 2
    31   18   45 1
    32   21   22 1
    33   21   39 1
    34   22   27 ar
    35   22   23 ar
    36   23   24 ar
    37   23   40 1
    38   24   25 ar
    39   24   41 1
    40   25   26 ar
    41   25   31 1
    42   26   27 ar
    43   26   28 1
    44   27   42 1
    45   28   29 2
    46   28   30 2
    47   28   46 1
    48   31   43 1
    49   31   44 1
@<TRIPOS>MOLECULE
ZINC04824612
   43    46     0     0     0
SMALL
USER_CHARGES
1-amino-4-(4-aminophenyl)amino-9,10-dioxo-anthracene-2-sulfonic acid
@<TRIPOS>ATOM
      1 C1         -0.0674    4.2000   -0.5712 C.ar      1 <0>        -0.1051
      2 C2         -1.2444    3.4789   -0.6656 C.ar      1 <0>        -0.1046
      3 C3         -1.2236    2.0965   -0.6332 C.ar      1 <0>        -0.0733
      4 C4         -0.0101    1.4234   -0.5175 C.ar      1 <0>        -0.1102
      5 C5          1.1862    2.1562   -0.4220 C.ar      1 <0>        -0.1129
      6 C6          1.1460    3.5479   -0.4499 C.ar      1 <0>        -0.0726
      7 C7          2.4778    1.4502   -0.2922 C.2       1 <0>         0.4280
      8 O1          3.5128    2.0837   -0.2092 O.2       1 <0>        -0.4064
      9 C8          2.5096   -0.0195   -0.2643 C.ar      1 <0>        -0.0610
     10 C9          3.7266   -0.6997   -0.1428 C.ar      1 <0>         0.1252
     11 C10         3.7427   -2.0976   -0.1174 C.ar      1 <0>         0.0393
     12 C11         2.5822   -2.8081   -0.2100 C.ar      1 <0>        -0.7022
     13 C12         1.3531   -2.1531   -0.3322 C.ar      1 <0>         0.3460
     14 C13         1.3090   -0.7551   -0.3601 C.ar      1 <0>        -0.2339
     15 C14         0.0229   -0.0536   -0.4887 C.2       1 <0>         0.4445
     16 O2         -1.0116   -0.6879   -0.5709 O.2       1 <0>        -0.4564
     17 N1          0.1810   -2.8871   -0.4259 N.pl3     1 <0>        -0.8361
     18 S1          2.6324   -4.5690   -0.1747 S.o2      1 <0>         2.6904
     19 O3          2.6675   -4.9470    1.1946 O.2       1 <0>        -1.0474
     20 O4          1.6212   -5.0220   -1.0644 O.2       1 <0>        -1.0441
     21 N2          4.9129    0.0106   -0.0474 N.pl3     1 <0>        -0.6886
     22 C15         5.3053    0.5553    1.1802 C.ar      1 <0>         0.1858
     23 C16         4.5680    0.2872    2.3266 C.ar      1 <0>        -0.1420
     24 C17         4.9581    0.8208    3.5386 C.ar      1 <0>        -0.1489
     25 C18         6.0820    1.6339    3.6100 C.ar      1 <0>         0.1566
     26 C19         6.8162    1.9062    2.4629 C.ar      1 <0>        -0.1530
     27 C20         6.4291    1.3689    1.2517 C.ar      1 <0>        -0.1354
     28 N3          6.4742    2.1790    4.8375 N.pl3     1 <0>        -0.8896
     29 H1         -0.0964    5.2794   -0.5927 H         1 <0>         0.1338
     30 H2         -2.1861    3.9992   -0.7603 H         1 <0>         0.1341
     31 H3         -2.1464    1.5399   -0.7025 H         1 <0>         0.1418
     32 H4          2.0611    4.1170   -0.3774 H         1 <0>         0.1407
     33 H5          4.6833   -2.6199   -0.0232 H         1 <0>         0.1500
     34 H6         -0.5871   -2.5174   -0.8887 H         1 <0>         0.4142
     35 H7          0.1289   -3.7705   -0.0286 H         1 <0>         0.4059
     36 H8          5.4711    0.1300   -0.8316 H         1 <0>         0.4062
     37 H9          3.6918   -0.3416    2.2704 H         1 <0>         0.1173
     38 H10         4.3873    0.6091    4.4306 H         1 <0>         0.1153
     39 H11         7.6899    2.5387    2.5185 H         1 <0>         0.1148
     40 H12         7.0000    1.5806    0.3597 H         1 <0>         0.1181
     41 H13         7.2589    2.7470    4.8874 H         1 <0>         0.3915
     42 H14         5.9614    1.9888    5.6387 H         1 <0>         0.3923
     43 O5          3.9640   -4.9934   -0.7774 O.3       1 <0>        -1.0680
@<TRIPOS>BOND
     1    1    6 ar
     2    1    2 ar
     3    1   29 1
     4    2    3 ar
     5    2   30 1
     6    3    4 ar
     7    3   31 1
     8    4   15 1
     9    4    5 ar
    10    5    6 ar
    11    5    7 1
    12    6   32 1
    13    7    8 2
    14    7    9 1
    15    9   14 ar
    16    9   10 ar
    17   10   11 ar
    18   10   21 1
    19   11   12 ar
    20   11   33 1
    21   12   13 ar
    22   12   18 1
    23   13   14 ar
    24   13   17 1
    25   14   15 1
    26   15   16 2
    27   17   34 1
    28   17   35 1
    29   18   19 2
    30   18   20 2
    31   18   43 1
    32   21   22 1
    33   21   36 1
    34   22   27 ar
    35   22   23 ar
    36   23   24 ar
    37   23   37 1
    38   24   25 ar
    39   24   38 1
    40   25   26 ar
    41   25   28 1
    42   26   27 ar
    43   26   39 1
    44   27   40 1
    45   28   41 1
    46   28   42 1
@<TRIPOS>MOLECULE
ZINC13831235
   47    51     0     0     0
SMALL
USER_CHARGES

@<TRIPOS>ATOM
      1 C1          0.7919    2.8816   -1.0045 C.ar      1 <0>        -0.1083
      2 C2          1.2363    2.2024    0.1281 C.ar      1 <0>        -0.1375
      3 C3          2.4113    1.5142    0.1162 C.ar      1 <0>        -0.0859
      4 C4          3.1881    1.4862   -1.0523 C.ar      1 <0>        -0.0905
      5 C5          2.7371    2.1759   -2.2046 C.ar      1 <0>        -0.0085
      6 C6          1.5192    2.8761   -2.1549 C.ar      1 <0>        -0.1193
      7 C7          3.5137    2.1484   -3.3754 C.ar      1 <0>        -0.1787
      8 C8          4.6898    1.4620   -3.3957 C.ar      1 <0>        -0.0533
      9 C9          5.1434    0.7803   -2.2710 C.ar      1 <0>        -0.2189
     10 C10         4.4112    0.7830   -1.1020 C.ar      1 <0>         0.2504
     11 N1          4.8743    0.0981    0.0190 N.pl3     1 <0>        -0.6715
     12 C11         6.0298   -0.6632   -0.0623 C.ar      1 <0>         0.1080
     13 C12         5.9479   -2.0574   -0.1445 C.ar      1 <0>         0.0381
     14 C13         7.0772   -2.8174   -0.2239 C.ar      1 <0>        -0.7034
     15 C14         8.3418   -2.2193   -0.2250 C.ar      1 <0>         0.3559
     16 C15         8.4513   -0.8284   -0.1446 C.ar      1 <0>        -0.2375
     17 C16         7.2813   -0.0406   -0.0683 C.ar      1 <0>        -0.0541
     18 C17         7.3925    1.4250    0.0093 C.2       1 <0>         0.4322
     19 O1          6.4314    2.0992    0.3274 O.2       1 <0>        -0.4098
     20 C18         8.6873    2.0678   -0.3037 C.ar      1 <0>        -0.1149
     21 C19         8.7628    3.4402   -0.5195 C.ar      1 <0>        -0.0700
     22 C20         9.9824    4.0241   -0.8117 C.ar      1 <0>        -0.1047
     23 C21        11.1284    3.2530   -0.8914 C.ar      1 <0>        -0.1028
     24 C22        11.0711    1.8871   -0.6802 C.ar      1 <0>        -0.0728
     25 C23         9.8527    1.2836   -0.3849 C.ar      1 <0>        -0.1097
     26 C24         9.7711   -0.1765   -0.1447 C.2       1 <0>         0.4474
     27 O2         10.7807   -0.8304    0.0351 O.2       1 <0>        -0.4535
     28 N2          9.4820   -3.0033   -0.3050 N.pl3     1 <0>        -0.8328
     29 S1          6.9423   -4.5713   -0.3258 S.o2      1 <0>         2.6898
     30 O3          7.0262   -4.9202   -1.7354 O.2       1 <0>        -1.0541
     31 O4          8.0496   -5.1251    0.4379 O.2       1 <0>        -1.0509
     32 O5          5.6541   -4.9298    0.2470 O.3       1 <0>        -1.0538
     33 H1         -0.1457    3.4166   -0.9703 H         1 <0>         0.1183
     34 H2          0.6404    2.2224    1.0286 H         1 <0>         0.1191
     35 H3          2.7439    0.9929    1.0016 H         1 <0>         0.1191
     36 H4          1.1623    3.4067   -3.0252 H         1 <0>         0.1237
     37 H5          3.1778    2.6709   -4.2589 H         1 <0>         0.1198
     38 H6          5.2800    1.4463   -4.3001 H         1 <0>         0.1185
     39 H7          6.0793    0.2430   -2.3136 H         1 <0>         0.1186
     40 H8          4.3882    0.1539    0.8565 H         1 <0>         0.4089
     41 H9          4.9801   -2.5367   -0.1447 H         1 <0>         0.1509
     42 H10         7.8719    4.0478   -0.4593 H         1 <0>         0.1402
     43 H11        10.0403    5.0895   -0.9793 H         1 <0>         0.1345
     44 H12        12.0745    3.7209   -1.1204 H         1 <0>         0.1348
     45 H13        11.9693    1.2909   -0.7444 H         1 <0>         0.1418
     46 H14         9.4382   -3.8829   -0.7116 H         1 <0>         0.4124
     47 H15        10.3237   -2.6724    0.0456 H         1 <0>         0.4150
@<TRIPOS>BOND
     1    1    6 ar
     2    1    2 ar
     3    1   33 1
     4    2    3 ar
     5    2   34 1
     6    3    4 ar
     7    3   35 1
     8    4   10 ar
     9    4    5 ar
    10    5    6 ar
    11    5    7 ar
    12    6   36 1
    13    7    8 ar
    14    7   37 1
    15    8    9 ar
    16    8   38 1
    17    9   10 ar
    18    9   39 1
    19   10   11 1
    20   11   12 1
    21   11   40 1
    22   12   17 ar
    23   12   13 ar
    24   13   14 ar
    25   13   41 1
    26   14   15 ar
    27   14   29 1
    28   15   16 ar
    29   15   28 1
    30   16   26 1
    31   16   17 ar
    32   17   18 1
    33   18   19 2
    34   18   20 1
    35   20   25 ar
    36   20   21 ar
    37   21   22 ar
    38   21   42 1
    39   22   23 ar
    40   22   43 1
    41   23   24 ar
    42   23   44 1
    43   24   25 ar
    44   24   45 1
    45   25   26 1
    46   26   27 2
    47   28   46 1
    48   28   47 1
    49   29   30 2
    50   29   31 2
    51   29   32 1
@<TRIPOS>MOLECULE
ZINC03869685
   32    34     0     0     0
SMALL
USER_CHARGES

@<TRIPOS>ATOM
      1 C1          0.9741   -0.2755   -0.9644 C.ar      1 <0>        -0.0748
      2 C2          2.1569    0.4329   -0.9701 C.ar      1 <0>        -0.1346
      3 C3          2.3856    1.4156   -0.0177 C.ar      1 <0>         0.1032
      4 C4          1.4203    1.6918    0.9495 C.ar      1 <0>         0.0788
      5 C5          0.2328    0.9863    0.9617 C.ar      1 <0>        -0.0762
      6 C6          0.0021   -0.0041    0.0020 C.ar      1 <0>        -0.0447
      7 C7         -1.2637   -0.7605    0.0100 C.2       1 <0>         0.1350
      8 C8         -2.4363   -0.0759    0.1235 C.2       1 <0>        -0.0429
      9 C9         -3.6628   -0.7894    0.1327 C.2       1 <0>         0.4011
     10 O1         -4.7327   -0.2102    0.2323 O.2       1 <0>        -0.4484
     11 C10        -3.5946   -2.2549    0.0170 C.ar      1 <0>        -0.2690
     12 C11        -4.7561   -3.0387    0.0170 C.ar      1 <0>         0.2244
     13 C12        -4.6504   -4.4123   -0.0941 C.ar      1 <0>        -0.2081
     14 C13        -3.3994   -5.0103   -0.2044 C.ar      1 <0>         0.2000
     15 C14        -2.2463   -4.2416   -0.2047 C.ar      1 <0>        -0.1854
     16 C15        -2.3316   -2.8618   -0.0952 C.ar      1 <0>         0.1876
     17 O2         -1.2182   -2.0992   -0.1003 O.3       1 <0>        -0.1970
     18 O3         -3.3070   -6.3605   -0.3125 O.3       1 <0>        -0.4866
     19 O4         -5.9758   -2.4535    0.1257 O.3       1 <0>        -0.4726
     20 O5         -2.4312    1.2810    0.2275 O.3       1 <0>        -0.4502
     21 O6          1.6480    2.6557    1.8815 O.3       1 <0>        -0.4836
     22 O7          3.5534    2.1101   -0.0273 O.3       1 <0>        -0.4861
     23 H1          0.7971   -1.0371   -1.7094 H         1 <0>         0.1379
     24 H2          2.9075    0.2221   -1.7176 H         1 <0>         0.1421
     25 H3         -0.5155    1.1988    1.7108 H         1 <0>         0.1429
     26 H4         -5.5413   -5.0229   -0.0948 H         1 <0>         0.1515
     27 H5         -1.2805   -4.7174   -0.2903 H         1 <0>         0.1559
     28 H6         -3.3257   -6.6843   -1.2235 H         1 <0>         0.4050
     29 H7         -6.3751   -2.2160   -0.7224 H         1 <0>         0.4036
     30 H8         -3.3120    1.6729    0.3033 H         1 <0>         0.4079
     31 H9          1.3508    3.5370    1.6166 H         1 <0>         0.3905
     32 H10         3.5287    2.9137   -0.5647 H         1 <0>         0.3924
@<TRIPOS>BOND
     1    1    6 ar
     2    1    2 ar
     3    1   23 1
     4    2    3 ar
     5    2   24 1
     6    3    4 ar
     7    3   22 1
     8    4    5 ar
     9    4   21 1
    10    5    6 ar
    11    5   25 1
    12    6    7 1
    13    7   17 1
    14    7    8 2
    15    8    9 1
    16    8   20 1
    17    9   10 2
    18    9   11 1
    19   11   16 ar
    20   11   12 ar
    21   12   13 ar
    22   12   19 1
    23   13   14 ar
    24   13   26 1
    25   14   15 ar
    26   14   18 1
    27   15   16 ar
    28   15   27 1
    29   16   17 1
    30   18   28 1
    31   19   29 1
    32   20   30 1
    33   21   31 1
    34   22   32 1
@<TRIPOS>MOLECULE
ZINC03869685
   31    33     0     0     0
SMALL
USER_CHARGES

@<TRIPOS>ATOM
      1 C1          0.1390    1.1246   -0.8120 C.ar      1 <0>        -0.0626
      2 C2          1.3229    1.8301   -0.8179 C.ar      1 <0>        -0.1333
      3 C3          2.3812    1.4233   -0.0172 C.ar      1 <0>         0.0878
      4 C4          2.2522    0.2984    0.7970 C.ar      1 <0>         0.0757
      5 C5          1.0694   -0.4139    0.8086 C.ar      1 <0>        -0.0997
      6 C6          0.0021   -0.0041    0.0020 C.ar      1 <0>        -0.0194
      7 C7         -1.2620   -0.7597    0.0100 C.2       1 <0>         0.1007
      8 C8         -2.4587   -0.0763    0.1245 C.2       1 <0>        -0.0038
      9 C9         -3.6655   -0.7872    0.1324 C.2       1 <0>         0.3349
     10 C10        -3.6167   -2.1939    0.0219 C.2       1 <0>        -0.3331
     11 C11        -4.8018   -2.9593    0.0240 C.2       1 <0>         0.2664
     12 C12        -4.7326   -4.3182   -0.0844 C.2       1 <0>        -0.3749
     13 C13        -3.4871   -4.9570   -0.1979 C.2       1 <0>         0.3648
     14 O1         -3.4307   -6.2860   -0.3033 O.2       1 <0>        -0.6598
     15 C14        -2.3054   -4.2086   -0.2016 C.2       1 <0>        -0.3143
     16 C15        -2.3616   -2.8325   -0.0921 C.2       1 <0>         0.2118
     17 O2         -1.2290   -2.0988   -0.0996 O.3       1 <0>        -0.2018
     18 O3         -6.0073   -2.3463    0.1339 O.3       1 <0>        -0.4482
     19 O4         -4.8484   -0.1420    0.2437 O.3       1 <0>        -0.5747
     20 O5         -2.4638    1.2803    0.2294 O.3       1 <0>        -0.4649
     21 O6          3.2919   -0.0973    1.5794 O.3       1 <0>        -0.4856
     22 O7          3.5458    2.1225   -0.0269 O.3       1 <0>        -0.4881
     23 H1         -0.6843    1.4460   -1.4327 H         1 <0>         0.1397
     24 H2          1.4276    2.7014   -1.4473 H         1 <0>         0.1381
     25 H3          0.9685   -1.2854    1.4384 H         1 <0>         0.1410
     26 H4         -5.6395   -4.9047   -0.0825 H         1 <0>         0.1180
     27 H5         -1.3506   -4.7057   -0.2895 H         1 <0>         0.1230
     28 H6         -6.7597   -2.9537    0.1258 H         1 <0>         0.3847
     29 H7         -3.3475    1.6656    0.3047 H         1 <0>         0.4058
     30 H8          3.2925    0.2977    2.4620 H         1 <0>         0.3855
     31 H9          3.5825    2.8346    0.6263 H         1 <0>         0.3863
@<TRIPOS>BOND
     1    1    6 ar
     2    1    2 ar
     3    1   23 1
     4    2    3 ar
     5    2   24 1
     6    3    4 ar
     7    3   22 1
     8    4    5 ar
     9    4   21 1
    10    5    6 ar
    11    5   25 1
    12    6    7 1
    13    7   17 1
    14    7    8 2
    15    8    9 1
    16    8   20 1
    17    9   10 2
    18    9   19 1
    19   10   16 1
    20   10   11 1
    21   11   12 2
    22   11   18 1
    23   12   13 1
    24   12   26 1
    25   13   14 2
    26   13   15 1
    27   15   16 2
    28   15   27 1
    29   16   17 1
    30   18   28 1
    31   20   29 1
    32   21   30 1
    33   22   31 1
@<TRIPOS>MOLECULE
ZINC04533388
   47    50     0     0     0
SMALL
USER_CHARGES

@<TRIPOS>ATOM
      1 C1          0.4471    1.6625    0.5953 C.ar      1 <0>        -0.1086
      2 C2          1.6867    2.2755    0.5572 C.ar      1 <0>        -0.1042
      3 C3          2.8372    1.5212    0.4160 C.ar      1 <0>        -0.0758
      4 C4          2.7499    0.1355    0.3114 C.ar      1 <0>        -0.1044
      5 C5          1.4901   -0.4876    0.3502 C.ar      1 <0>        -0.1120
      6 C6          0.3420    0.2872    0.4928 C.ar      1 <0>        -0.0740
      7 C7          1.3881   -1.9579    0.2398 C.2       1 <0>         0.4452
      8 O1          0.2987   -2.4972    0.2731 O.2       1 <0>        -0.4668
      9 C8          2.6068   -2.7674    0.0893 C.ar      1 <0>        -0.1672
     10 C9          2.5234   -4.1597   -0.0168 C.ar      1 <0>         0.2174
     11 C10         3.6893   -4.9175   -0.1600 C.ar      1 <0>        -0.0331
     12 C11         4.9116   -4.3129   -0.1971 C.ar      1 <0>        -0.6566
     13 C12         5.0226   -2.9234   -0.0927 C.ar      1 <0>         0.3074
     14 C13         3.8712   -2.1419    0.0504 C.ar      1 <0>        -0.2021
     15 C14         3.9738   -0.6788    0.1598 C.2       1 <0>         0.4393
     16 O2          5.0637   -0.1403    0.1263 O.2       1 <0>        -0.4583
     17 N1          6.2709   -2.3212   -0.1308 N.pl3     1 <0>        -0.8398
     18 S1          6.3646   -5.2931   -0.3778 S.o2      1 <0>         2.6888
     19 O3          6.6951   -5.3013   -1.7944 O.2       1 <0>        -1.0559
     20 O4          7.4036   -4.6591    0.4189 O.2       1 <0>        -1.0492
     21 O5          6.0401   -6.6237    0.1122 O.3       1 <0>        -1.0551
     22 N2          1.2873   -4.7867    0.0203 N.pl3     1 <0>        -0.7208
     23 C15         1.1895   -6.2281   -0.2225 C.3       1 <0>         0.1386
     24 C16         1.4481   -6.9838    1.0825 C.3       1 <0>        -0.1388
     25 C17         1.3460   -8.4892    0.8289 C.3       1 <0>        -0.1199
     26 C18        -0.0549   -8.8257    0.3137 C.3       1 <0>        -0.1199
     27 C19        -0.3135   -8.0700   -0.9912 C.3       1 <0>        -0.1162
     28 C20        -0.2113   -6.5646   -0.7376 C.3       1 <0>        -0.1213
     29 H1         -0.4442    2.2614    0.7104 H         1 <0>         0.1327
     30 H2          1.7564    3.3503    0.6378 H         1 <0>         0.1332
     31 H3          3.8018    2.0061    0.3866 H         1 <0>         0.1415
     32 H4         -0.6288   -0.1849    0.5236 H         1 <0>         0.1398
     33 H5          3.6218   -5.9923   -0.2417 H         1 <0>         0.1479
     34 H6          6.9969   -2.7404   -0.6186 H         1 <0>         0.4071
     35 H7          6.4182   -1.4806    0.3303 H         1 <0>         0.4099
     36 H8          0.4873   -4.2709    0.2071 H         1 <0>         0.4133
     37 H9          1.9304   -6.5225   -0.9658 H         1 <0>         0.0821
     38 H10         2.4461   -6.7441    1.4495 H         1 <0>         0.0730
     39 H11         0.7072   -6.6894    1.8258 H         1 <0>         0.0639
     40 H12         2.0869   -8.7835    0.0856 H         1 <0>         0.0691
     41 H13         1.5302   -9.0276    1.7586 H         1 <0>         0.0650
     42 H14        -0.1276   -9.8981    0.1331 H         1 <0>         0.0615
     43 H15        -0.7958   -8.5313    1.0570 H         1 <0>         0.0597
     44 H16         0.4274   -8.3643   -1.7345 H         1 <0>         0.0665
     45 H17        -1.3115   -8.3097   -1.3582 H         1 <0>         0.0637
     46 H18        -0.9522   -6.2702    0.0057 H         1 <0>         0.0660
     47 H19        -0.3956   -6.0262   -1.6673 H         1 <0>         0.0676
@<TRIPOS>BOND
     1    1    6 ar
     2    1    2 ar
     3    1   29 1
     4    2    3 ar
     5    2   30 1
     6    3    4 ar
     7    3   31 1
     8    4   15 1
     9    4    5 ar
    10    5    6 ar
    11    5    7 1
    12    6   32 1
    13    7    8 2
    14    7    9 1
    15    9   14 ar
    16    9   10 ar
    17   10   11 ar
    18   10   22 1
    19   11   12 ar
    20   11   33 1
    21   12   13 ar
    22   12   18 1
    23   13   14 ar
    24   13   17 1
    25   14   15 1
    26   15   16 2
    27   17   34 1
    28   17   35 1
    29   18   19 2
    30   18   20 2
    31   18   21 1
    32   22   23 1
    33   22   36 1
    34   23   28 1
    35   23   24 1
    36   23   37 1
    37   24   25 1
    38   24   38 1
    39   24   39 1
    40   25   26 1
    41   25   40 1
    42   25   41 1
    43   26   27 1
    44   26   42 1
    45   26   43 1
    46   27   28 1
    47   27   44 1
    48   27   45 1
    49   28   46 1
    50   28   47 1
