@<TRIPOS>MOLECULE
ZINC03831612
   43    43     0     0     0
SMALL
USER_CHARGES
5-acetylamino-4-guanidino-6-(1,2,3-trihydroxypropyl)-5,6-dihydro-4H-pyran-2-carboxylic acid
@<TRIPOS>ATOM
      1 C1         -6.5828    3.1715   -0.0403 C.3       1 <0>        -0.1784
      2 C2         -5.6809    2.1241    0.5600 C.2       1 <0>         0.5093
      3 O1         -4.9691    2.4040    1.5013 O.2       1 <0>        -0.5510
      4 N1         -5.6652    0.8763    0.0508 N.am      1 <0>        -0.7142
      5 C3         -4.7884   -0.1420    0.6345 C.3       1 <0>         0.1066
      6 H1         -4.7264    0.0001    1.7134 H         1 <0>         0.1234
      7 C4         -3.3897   -0.0343    0.0180 C.3       1 <0>         0.1727
      8 H2         -2.6886   -0.6318    0.6009 H         1 <0>         0.1024
      9 C5         -3.4254   -0.5424   -1.3977 C.2       1 <0>        -0.3422
     10 C6         -4.4130   -1.2989   -1.8532 C.2       1 <0>         0.1321
     11 O2         -5.4700   -1.6712   -1.0913 O.3       1 <0>        -0.2554
     12 C7         -5.3423   -1.5401    0.3272 C.3       1 <0>         0.0495
     13 H3         -4.6575   -2.2988    0.7062 H         1 <0>         0.0937
     14 C8         -6.7131   -1.7078    0.9861 C.3       1 <0>         0.0904
     15 H4         -7.3920   -0.9414    0.6120 H         1 <0>         0.1130
     16 C9         -7.2731   -3.0920    0.6530 C.3       1 <0>         0.0801
     17 H5         -6.5941   -3.8582    1.0270 H         1 <0>         0.1044
     18 C10        -8.6438   -3.2597    1.3118 C.3       1 <0>         0.0471
     19 O3         -9.1150   -4.5917    1.0987 O.3       1 <0>        -0.5617
     20 O4         -7.4062   -3.2239   -0.7636 O.3       1 <0>        -0.5104
     21 O5         -6.5800   -1.5759    2.4028 O.3       1 <0>        -0.5406
     22 C11        -4.3595   -1.7571   -3.2527 C.2       1 <0>         0.4893
     23 O6         -3.4241   -1.4398   -3.9604 O.co2     1 <0>        -0.6085
     24 N2         -2.9599    1.3663    0.0236 N.pl3     1 <0>        -0.6698
     25 C12        -1.6200    1.6742    0.0189 C.cat     1 <0>         0.7399
     26 N3         -0.6834    0.6678    0.0090 N.pl3     1 <0>        -0.8064
     27 H6         -7.1416    2.7379   -0.8697 H         1 <0>         0.0847
     28 H7         -7.2784    3.5301    0.7184 H         1 <0>         0.1042
     29 H8         -5.9807    4.0043   -0.4039 H         1 <0>         0.0991
     30 H9         -6.2344    0.6524   -0.7019 H         1 <0>         0.4158
     31 H10        -2.6183   -0.2810   -2.0660 H         1 <0>         0.1416
     32 H11        -8.5580   -3.0714    2.3820 H         1 <0>         0.0588
     33 H12        -9.3467   -2.5511    0.8735 H         1 <0>         0.0476
     34 H13        -9.9811   -4.7699    1.4901 H         1 <0>         0.3800
     35 H14        -7.9973   -2.5726   -1.1655 H         1 <0>         0.3749
     36 H15        -5.9887   -2.2271    2.8045 H         1 <0>         0.3814
     37 H16        -3.6208    2.0763    0.0306 H         1 <0>         0.4276
     38 H17        -0.3156    3.2385    0.0211 H         1 <0>         0.4471
     39 H18        -0.9679   -0.2595    0.0053 H         1 <0>         0.4395
     40 H19         0.2619    0.8851    0.0016 H         1 <0>         0.4338
     41 O7         -5.3481   -2.5280   -3.7477 O.co2     1 <0>        -0.7032
     42 N4         -1.2968    2.9593    0.0243 N.pl3     1 <0>        -0.8017
     43 H20        -2.0339    3.6741    0.0318 H         1 <0>         0.4532
@<TRIPOS>BOND
     1    1    2 1
     2    1   27 1
     3    1   28 1
     4    1   29 1
     5    2    3 2
     6    2    4 am
     7    4    5 1
     8    4   30 1
     9    5    6 1
    10    5   12 1
    11    5    7 1
    12    7    8 1
    13    7    9 1
    14    7   24 1
    15    9   10 2
    16    9   31 1
    17   10   11 1
    18   10   22 1
    19   11   12 1
    20   12   13 1
    21   12   14 1
    22   14   15 1
    23   14   16 1
    24   14   21 1
    25   16   17 1
    26   16   18 1
    27   16   20 1
    28   18   19 1
    29   18   32 1
    30   18   33 1
    31   19   34 1
    32   20   35 1
    33   21   36 1
    34   22   23 2
    35   22   41 1
    36   24   25 1
    37   24   37 1
    38   25   26 1
    39   25   42 2
    40   26   39 1
    41   26   40 1
    42   38   42 1
    43   42   43 1
@<TRIPOS>MOLECULE
ZINC05884083
   38    38     0     0     0
SMALL
USER_CHARGES
5-acetylamino-4-amino-6-(1,2,3-trihydroxypropyl)-5,6-dihydro-4H-pyran-2-carboxylic acid
@<TRIPOS>ATOM
      1 C1         -2.5311    1.3966   -2.8583 C.3       1 <0>        -0.1770
      2 C2         -1.7909    0.8918   -1.6466 C.2       1 <0>         0.5163
      3 O1         -2.1476   -0.1306   -1.1004 O.2       1 <0>        -0.5525
      4 N1         -0.7324    1.5765   -1.1699 N.am      1 <0>        -0.7295
      5 H1         -0.4471    2.3943   -1.6068 H         1 <0>         0.4168
      6 C3         -0.0127    1.0858    0.0080 C.3       1 <0>         0.0763
      7 H2          0.0021   -0.0041    0.0020 H         1 <0>         0.1268
      8 C4         -0.7023    1.5863    1.2816 C.3       1 <0>         0.0889
      9 H3         -0.9146    2.6510    1.1854 H         1 <0>         0.1425
     10 C5          0.2016    1.3601    2.4629 C.2       1 <0>        -0.3718
     11 C6          1.4995    1.1317    2.3273 C.2       1 <0>         0.1635
     12 O2          2.1177    1.0761    1.1226 O.3       1 <0>        -0.2524
     13 C7          1.4249    1.6230   -0.0028 C.3       1 <0>         0.0534
     14 H4          1.4111    2.7107    0.0666 H         1 <0>         0.1038
     15 C8          2.1245    1.1977   -1.2954 C.3       1 <0>         0.0930
     16 H5          1.6351    1.6717   -2.1462 H         1 <0>         0.0783
     17 C9          3.5919    1.6279   -1.2463 C.3       1 <0>         0.1120
     18 H6          4.0813    1.1539   -0.3954 H         1 <0>         0.1347
     19 C10         4.2915    1.2027   -2.5389 C.3       1 <0>         0.0514
     20 O3          5.6862    1.4997   -2.4456 O.3       1 <0>        -0.5595
     21 O4          3.6676    3.0483   -1.1088 O.3       1 <0>        -0.5322
     22 O5          2.0488   -0.2226   -1.4329 O.3       1 <0>        -0.5358
     23 C11         2.3083    0.9294    3.5422 C.2       1 <0>         0.4866
     24 O6          1.7821    0.9735    4.6367 O.co2     1 <0>        -0.5968
     25 H7         -2.0691    2.3199   -3.2078 H         1 <0>         0.0848
     26 H8         -2.4883    0.6471   -3.6486 H         1 <0>         0.1084
     27 H9         -3.5714    1.5879   -2.5949 H         1 <0>         0.1056
     28 H10        -0.2224    1.3844    3.4559 H         1 <0>         0.1623
     29 H11         4.1574    0.1314   -2.6891 H         1 <0>         0.0662
     30 H12         3.8602    1.7444   -3.3806 H         1 <0>         0.0431
     31 H13         6.1937    1.2561   -3.2318 H         1 <0>         0.3812
     32 H14         3.2512    3.5362   -1.8325 H         1 <0>         0.3659
     33 H15         1.1458   -0.5666   -1.4707 H         1 <0>         0.3744
     34 H16        -2.4334    1.1641    2.3130 H         1 <0>         0.4360
     35 H17        -2.5574    0.9354    0.6703 H         1 <0>         0.4249
     36 O7          3.6317    0.6953    3.4396 O.co2     1 <0>        -0.6978
     37 N2         -1.9503    0.8285    1.4813 N.4       1 <0>        -0.6327
     38 H18        -1.7255   -0.1659    1.6028 H         1 <0>         0.4410
@<TRIPOS>BOND
     1    1    2 1
     2    1   25 1
     3    1   26 1
     4    1   27 1
     5    2    3 2
     6    2    4 am
     7    4    5 1
     8    4    6 1
     9    6    7 1
    10    6   13 1
    11    6    8 1
    12    8    9 1
    13    8   10 1
    14    8   37 1
    15   10   11 2
    16   10   28 1
    17   11   12 1
    18   11   23 1
    19   12   13 1
    20   13   14 1
    21   13   15 1
    22   15   16 1
    23   15   17 1
    24   15   22 1
    25   17   18 1
    26   17   19 1
    27   17   21 1
    28   19   20 1
    29   19   29 1
    30   19   30 1
    31   20   31 1
    32   21   32 1
    33   22   33 1
    34   23   24 2
    35   23   36 1
    36   34   37 1
    37   35   37 1
    38   37   38 1
@<TRIPOS>MOLECULE
ZINC12503116
   43    43     0     0     0
SMALL
USER_CHARGES
(4S,5R,6R)-5-acetamido-4-guanidino-6-[(1R,2R)-1,2,3-trihydroxypropyl]-5,6-dihydro-4H-pyran-2-carboxylic acid
@<TRIPOS>ATOM
      1 C1         -4.1414    4.7859    0.3505 C.3       1 <0>        -0.1767
      2 C2         -3.1218    3.9854   -0.4180 C.2       1 <0>         0.5136
      3 O1         -3.4332    3.4460   -1.4585 O.2       1 <0>        -0.5375
      4 N1         -1.8636    3.8690    0.0512 N.am      1 <0>        -0.7255
      5 C3         -0.8724    3.0908   -0.6959 C.3       1 <0>         0.1008
      6 H1         -1.0522    3.1969   -1.7658 H         1 <0>         0.1236
      7 C4         -0.9707    1.6140   -0.3056 C.3       1 <0>         0.1807
      8 H2         -1.0181    1.5313    0.7802 H         1 <0>         0.1073
      9 C5          0.2396    0.8778   -0.8125 C.2       1 <0>        -0.3310
     10 C6          1.3445    1.5057   -1.1868 C.2       1 <0>         0.1380
     11 O2          1.4773    2.8537   -1.1474 O.3       1 <0>        -0.2716
     12 C7          0.5391    3.5886   -0.3564 C.3       1 <0>         0.0502
     13 H3          0.7425    3.4242    0.7018 H         1 <0>         0.0950
     14 C8          0.6508    5.0803   -0.6772 C.3       1 <0>         0.0991
     15 H4         -0.0010    5.6451   -0.0109 H         1 <0>         0.1137
     16 C9          2.0981    5.5368   -0.4826 C.3       1 <0>         0.0757
     17 H5          2.7501    4.9719   -1.1490 H         1 <0>         0.1274
     18 C10         2.2099    7.0286   -0.8034 C.3       1 <0>         0.0494
     19 O3          3.5799    7.4292   -0.7348 O.3       1 <0>        -0.5602
     20 O4          2.4908    5.3104    0.8726 O.3       1 <0>        -0.5355
     21 O5          0.2583    5.3067   -2.0325 O.3       1 <0>        -0.5485
     22 C11         2.4811    0.7013   -1.6686 C.2       1 <0>         0.4903
     23 O6          2.3917   -0.5097   -1.7159 O.co2     1 <0>        -0.6012
     24 C12        -3.2091    0.5912   -0.2152 C.cat     1 <0>         0.7402
     25 N2         -3.2727    0.7955    1.1429 N.pl3     1 <0>        -0.8158
     26 N3         -4.2259   -0.0737   -0.8587 N.pl3     1 <0>        -0.8144
     27 H6         -4.1156    5.8232    0.0167 H         1 <0>         0.1013
     28 H7         -5.1347    4.3726    0.1756 H         1 <0>         0.0945
     29 H8         -3.9115    4.7409    1.4151 H         1 <0>         0.0817
     30 H9         -1.6145    4.3004    0.8835 H         1 <0>         0.4049
     31 H10         0.2048   -0.1997   -0.8778 H         1 <0>         0.1515
     32 H11         1.8270    7.2141   -1.8069 H         1 <0>         0.0634
     33 H12         1.6275    7.6003   -0.0809 H         1 <0>         0.0444
     34 H13         3.7260    8.3656   -0.9274 H         1 <0>         0.3802
     35 H14         1.9527    5.7831    1.5223 H         1 <0>         0.3653
     36 H15         0.7964    4.8340   -2.6821 H         1 <0>         0.3932
     37 H16        -2.6431    1.3950    1.5732 H         1 <0>         0.4314
     38 H17        -3.9472    0.3401    1.6708 H         1 <0>         0.4350
     39 H18        -4.1809   -0.2179   -1.8168 H         1 <0>         0.4368
     40 H19        -4.9882   -0.3987   -0.3545 H         1 <0>         0.4310
     41 O7          3.6199    1.3087   -2.0570 O.co2     1 <0>        -0.7082
     42 N4         -2.1868    1.0234   -0.9634 N.pl3     1 <0>        -0.6482
     43 H20        -2.2332    0.9516   -1.9866 H         1 <0>         0.4548
@<TRIPOS>BOND
     1    1    2 1
     2    1   27 1
     3    1   28 1
     4    1   29 1
     5    2    3 2
     6    2    4 am
     7    4    5 1
     8    4   30 1
     9    5    6 1
    10    5   12 1
    11    5    7 1
    12    7    8 1
    13    7    9 1
    14    7   42 1
    15    9   10 2
    16    9   31 1
    17   10   11 1
    18   10   22 1
    19   11   12 1
    20   12   13 1
    21   12   14 1
    22   14   15 1
    23   14   16 1
    24   14   21 1
    25   16   17 1
    26   16   18 1
    27   16   20 1
    28   18   19 1
    29   18   32 1
    30   18   33 1
    31   19   34 1
    32   20   35 1
    33   21   36 1
    34   22   23 2
    35   22   41 1
    36   24   25 1
    37   24   26 1
    38   24   42 2
    39   25   37 1
    40   25   38 1
    41   26   39 1
    42   26   40 1
    43   42   43 1
@<TRIPOS>MOLECULE
ZINC03870797
   36    36     0     0     0
SMALL
USER_CHARGES
5-acetylamino-4-hydroxy-6-(1,2,3-trihydroxypropyl)-5,6-dihydro-4H-pyran-2-carboxylic acid
@<TRIPOS>ATOM
      1 C1          3.6790    2.0342   -3.2667 C.3       1 <0>        -0.1695
      2 C2          2.2977    1.4331   -3.2251 C.2       1 <0>         0.5200
      3 O1          2.0696    0.3963   -3.8115 O.2       1 <0>        -0.5391
      4 N1          1.3158    2.0476   -2.5361 N.am      1 <0>        -0.7083
      5 C3         -0.0270    1.4632   -2.4956 C.3       1 <0>         0.1278
      6 H1          0.0447    0.3756   -2.4974 H         1 <0>         0.1072
      7 C4         -0.8298    1.9304   -3.7139 C.3       1 <0>         0.1399
      8 H2         -1.7355    1.3306   -3.8038 H         1 <0>         0.0584
      9 C5         -1.2019    3.3783   -3.5438 C.2       1 <0>        -0.3070
     10 C6         -1.1625    3.9855   -2.3670 C.2       1 <0>         0.0806
     11 O2         -0.7795    3.3617   -1.2266 O.3       1 <0>        -0.2649
     12 C7         -0.7573    1.9316   -1.2297 C.3       1 <0>         0.0490
     13 H3         -1.7777    1.5484   -1.2305 H         1 <0>         0.0812
     14 C8         -0.0173    1.4248    0.0099 C.3       1 <0>         0.0928
     15 H4          1.0053    1.8021    0.0021 H         1 <0>         0.1112
     16 C9         -0.7334    1.9182    1.2687 C.3       1 <0>         0.0809
     17 H5         -1.7560    1.5409    1.2764 H         1 <0>         0.1016
     18 C10         0.0066    1.4114    2.5082 C.3       1 <0>         0.0471
     19 O3         -0.7254    1.7731    3.6810 O.3       1 <0>        -0.5626
     20 O4         -0.7528    3.3470    1.2765 O.3       1 <0>        -0.5102
     21 O5          0.0021   -0.0041    0.0020 O.3       1 <0>        -0.5422
     22 C11        -1.5525    5.4046   -2.2949 C.2       1 <0>         0.4981
     23 O6         -1.9005    5.9909   -3.3008 O.co2     1 <0>        -0.6179
     24 O7         -0.0380    1.7774   -4.8936 O.3       1 <0>        -0.5425
     25 H6          3.6913    2.9569   -2.6866 H         1 <0>         0.0731
     26 H7          4.3949    1.3295   -2.8437 H         1 <0>         0.0890
     27 H8          3.9498    2.2511   -4.3000 H         1 <0>         0.0917
     28 H9          1.4982    2.8769   -2.0670 H         1 <0>         0.4012
     29 H10        -1.5116    3.9423   -4.4113 H         1 <0>         0.1329
     30 H11         0.0991    0.3265    2.4578 H         1 <0>         0.0584
     31 H12         0.9995    1.8593    2.5470 H         1 <0>         0.0472
     32 H13        -0.3137    1.4832    4.5066 H         1 <0>         0.3752
     33 H14         0.1251    3.7523    1.2703 H         1 <0>         0.3736
     34 H15        -0.8759   -0.4094    0.0082 H         1 <0>         0.3782
     35 H16        -0.4842    2.0546   -5.7055 H         1 <0>         0.3729
     36 O8         -1.5233    6.0524   -1.1133 O.co2     1 <0>        -0.7251
@<TRIPOS>BOND
     1    1    2 1
     2    1   25 1
     3    1   26 1
     4    1   27 1
     5    2    3 2
     6    2    4 am
     7    4    5 1
     8    4   28 1
     9    5    6 1
    10    5   12 1
    11    5    7 1
    12    7    8 1
    13    7    9 1
    14    7   24 1
    15    9   10 2
    16    9   29 1
    17   10   11 1
    18   10   22 1
    19   11   12 1
    20   12   13 1
    21   12   14 1
    22   14   15 1
    23   14   16 1
    24   14   21 1
    25   16   17 1
    26   16   18 1
    27   16   20 1
    28   18   19 1
    29   18   30 1
    30   18   31 1
    31   19   32 1
    32   20   33 1
    33   21   34 1
    34   22   23 2
    35   22   36 1
    36   24   35 1
@<TRIPOS>MOLECULE
ZINC03870798
   36    36     0     0     0
SMALL
USER_CHARGES
5-acetylamino-4-hydroxy-6-(1,2,3-trihydroxypropyl)-5,6-dihydro-4H-pyran-2-carboxylic acid
@<TRIPOS>ATOM
      1 C1          4.4808    4.9487   -0.7350 C.3       1 <0>        -0.1683
      2 C2          3.2557    4.1220   -1.0295 C.2       1 <0>         0.5099
      3 O1          3.1797    3.4986   -2.0670 O.2       1 <0>        -0.5268
      4 N1          2.2443    4.0755   -0.1398 N.am      1 <0>        -0.7087
      5 C3          1.0533    3.2720   -0.4260 C.3       1 <0>         0.1270
      6 H1          0.8309    3.3103   -1.4924 H         1 <0>         0.1044
      7 C4          1.2952    1.8199   -0.0005 C.3       1 <0>         0.1436
      8 H2          1.7301    1.8017    0.9988 H         1 <0>         0.0528
      9 C5         -0.0126    1.0758    0.0080 C.2       1 <0>        -0.3108
     10 C6         -1.1814    1.6994    0.0170 C.2       1 <0>         0.0832
     11 O2         -1.2982    3.0495    0.0232 O.3       1 <0>        -0.2600
     12 C7         -0.1406    3.8139    0.3715 C.3       1 <0>         0.0553
     13 H3          0.0562    3.7167    1.4392 H         1 <0>         0.0723
     14 C8         -0.3698    5.2854    0.0207 C.3       1 <0>         0.0919
     15 H4         -0.5762    5.3768   -1.0457 H         1 <0>         0.1141
     16 C9         -1.5608    5.8204    0.8183 C.3       1 <0>         0.0822
     17 H5         -1.3544    5.7290    1.8847 H         1 <0>         0.1009
     18 C10        -1.7899    7.2919    0.4675 C.3       1 <0>         0.0473
     19 O3         -2.8259    7.8234    1.2959 O.3       1 <0>        -0.5629
     20 O4         -2.7297    5.0655    0.4930 O.3       1 <0>        -0.5122
     21 O5          0.7991    6.0403    0.3460 O.3       1 <0>        -0.5382
     22 C11        -2.4110    0.8876    0.0272 C.2       1 <0>         0.4994
     23 O6         -2.3383   -0.3254    0.0272 O.co2     1 <0>        -0.6163
     24 O7          2.1920    1.1965   -0.9220 O.3       1 <0>        -0.5411
     25 H6          5.2139    4.3372   -0.2089 H         1 <0>         0.0874
     26 H7          4.9108    5.3070   -1.6704 H         1 <0>         0.0881
     27 H8          4.2040    5.7998   -0.1129 H         1 <0>         0.0773
     28 H9          2.3051    4.5742    0.6900 H         1 <0>         0.3945
     29 H10         0.0021   -0.0041    0.0020 H         1 <0>         0.1369
     30 H11        -0.8696    7.8523    0.6321 H         1 <0>         0.0583
     31 H12        -2.0833    7.3745   -0.5791 H         1 <0>         0.0476
     32 H13        -3.0249    8.7547    1.1280 H         1 <0>         0.3753
     33 H14        -2.9733    5.1013   -0.4422 H         1 <0>         0.3762
     34 H15         1.0428    6.0045    1.2811 H         1 <0>         0.3722
     35 H16         2.3905    0.2732   -0.7142 H         1 <0>         0.3720
     36 O8         -3.6165    1.4904    0.0366 O.co2     1 <0>        -0.7246
@<TRIPOS>BOND
     1    1    2 1
     2    1   25 1
     3    1   26 1
     4    1   27 1
     5    2    3 2
     6    2    4 am
     7    4    5 1
     8    4   28 1
     9    5    6 1
    10    5   12 1
    11    5    7 1
    12    7    8 1
    13    7    9 1
    14    7   24 1
    15    9   10 2
    16    9   29 1
    17   10   11 1
    18   10   22 1
    19   11   12 1
    20   12   13 1
    21   12   14 1
    22   14   15 1
    23   14   16 1
    24   14   21 1
    25   16   17 1
    26   16   18 1
    27   16   20 1
    28   18   19 1
    29   18   30 1
    30   18   31 1
    31   19   32 1
    32   20   33 1
    33   21   34 1
    34   22   23 2
    35   22   36 1
    36   24   35 1
@<TRIPOS>MOLECULE
ZINC03870799
   36    36     0     0     0
SMALL
USER_CHARGES
5-acetylamino-4-hydroxy-6-(1,2,3-trihydroxypropyl)-5,6-dihydro-4H-pyran-2-carboxylic acid
@<TRIPOS>ATOM
      1 C1         -1.1012    5.2702   -2.2607 C.3       1 <0>        -0.1739
      2 C2         -1.0042    3.7672   -2.3137 C.2       1 <0>         0.5133
      3 O1         -1.0556    3.1935   -3.3809 O.2       1 <0>        -0.5479
      4 N1         -0.8602    3.0607   -1.1750 N.am      1 <0>        -0.7124
      5 C3         -0.7659    1.5996   -1.2265 C.3       1 <0>         0.1268
      6 H1         -0.2389    1.2964   -2.1312 H         1 <0>         0.1122
      7 C4         -2.1728    0.9904   -1.2172 C.3       1 <0>         0.1413
      8 H2         -2.7978    1.5085   -1.9446 H         1 <0>         0.0643
      9 C5         -2.7735    1.1362    0.1546 C.2       1 <0>        -0.3170
     10 C6         -2.0373    1.3929    1.2257 C.2       1 <0>         0.0930
     11 O2         -0.6925    1.5522    1.1768 O.3       1 <0>        -0.2657
     12 C7         -0.0127    1.0858    0.0080 C.3       1 <0>         0.0515
     13 H3          0.0021   -0.0041    0.0020 H         1 <0>         0.0882
     14 C8          1.4206    1.6209   -0.0028 C.3       1 <0>         0.0910
     15 H4          1.4017    2.7107    0.0032 H         1 <0>         0.1087
     16 C9          2.1625    1.1169    1.2367 C.3       1 <0>         0.0805
     17 H5          2.1815    0.0270    1.2307 H         1 <0>         0.1019
     18 C10         3.5959    1.6519    1.2259 C.3       1 <0>         0.0474
     19 O3          4.3229    1.0886    2.3196 O.3       1 <0>        -0.5625
     20 O4          1.4919    1.5751    2.4124 O.3       1 <0>        -0.5106
     21 O5          2.0913    1.1627   -1.1785 O.3       1 <0>        -0.5431
     22 C11        -2.7119    1.5100    2.5305 C.2       1 <0>         0.4973
     23 O6         -3.9169    1.3721    2.6061 O.co2     1 <0>        -0.6169
     24 O7         -2.0939   -0.3951   -1.5579 O.3       1 <0>        -0.5651
     25 H6         -0.1955    5.6771   -1.8110 H         1 <0>         0.0876
     26 H7         -1.2131    5.6629   -3.2713 H         1 <0>         0.0911
     27 H8         -1.9652    5.5576   -1.6615 H         1 <0>         0.0900
     28 H9         -0.8191    3.5196   -0.3214 H         1 <0>         0.4070
     29 H10        -3.8418    1.0283    0.2700 H         1 <0>         0.1317
     30 H11         4.0792    1.3771    0.2884 H         1 <0>         0.0584
     31 H12         3.5791    2.7376    1.3215 H         1 <0>         0.0466
     32 H13         5.2419    1.3844    2.3750 H         1 <0>         0.3749
     33 H14         1.4376    2.5379    2.4842 H         1 <0>         0.3729
     34 H15         2.1456    0.1999   -1.2503 H         1 <0>         0.3797
     35 H16        -2.9491   -0.8461   -1.5716 H         1 <0>         0.3819
     36 O8         -1.9925    1.7700    3.6402 O.co2     1 <0>        -0.7241
@<TRIPOS>BOND
     1    1    2 1
     2    1   25 1
     3    1   26 1
     4    1   27 1
     5    2    3 2
     6    2    4 am
     7    4    5 1
     8    4   28 1
     9    5    6 1
    10    5   12 1
    11    5    7 1
    12    7    8 1
    13    7    9 1
    14    7   24 1
    15    9   10 2
    16    9   29 1
    17   10   11 1
    18   10   22 1
    19   11   12 1
    20   12   13 1
    21   12   14 1
    22   14   15 1
    23   14   16 1
    24   14   21 1
    25   16   17 1
    26   16   18 1
    27   16   20 1
    28   18   19 1
    29   18   30 1
    30   18   31 1
    31   19   32 1
    32   20   33 1
    33   21   34 1
    34   22   23 2
    35   22   36 1
    36   24   35 1
@<TRIPOS>MOLECULE
ZINC03870800
   36    36     0     0     0
SMALL
USER_CHARGES
5-acetylamino-4-hydroxy-6-(1,2,3-trihydroxypropyl)-5,6-dihydro-4H-pyran-2-carboxylic acid
@<TRIPOS>ATOM
      1 C1         -3.0028    7.4940   -0.5497 C.3       1 <0>        -0.1702
      2 C2         -2.2572    7.0872    0.6952 C.2       1 <0>         0.5122
      3 O1         -1.4930    7.8652    1.2258 O.2       1 <0>        -0.5556
      4 N1         -2.4396    5.8587    1.2188 N.am      1 <0>        -0.6931
      5 C3         -1.7148    5.4632    2.4289 C.3       1 <0>         0.1293
      6 H1         -0.7249    5.9194    2.4300 H         1 <0>         0.1063
      7 C4         -2.4941    5.9146    3.6687 C.3       1 <0>         0.1411
      8 H2         -2.4075    6.9955    3.7787 H         1 <0>         0.0669
      9 C5         -1.9293    5.2392    4.8888 C.2       1 <0>        -0.3191
     10 C6         -1.1614    4.1625    4.8100 C.2       1 <0>         0.0947
     11 O2         -0.8163    3.5861    3.6331 O.3       1 <0>        -0.2603
     12 C7         -1.5806    3.9351    2.4756 C.3       1 <0>         0.0537
     13 H3         -2.5697    3.4812    2.5373 H         1 <0>         0.0794
     14 C8         -0.8645    3.4417    1.2168 C.3       1 <0>         0.0897
     15 H4          0.1276    3.8901    1.1639 H         1 <0>         0.1120
     16 C9         -0.7334    1.9182    1.2687 C.3       1 <0>         0.0820
     17 H5         -1.7255    1.4698    1.3217 H         1 <0>         0.1009
     18 C10        -0.0173    1.4248    0.0099 C.3       1 <0>         0.0475
     19 O3          0.0021   -0.0041    0.0020 O.3       1 <0>        -0.5628
     20 O4          0.0207    1.5440    2.4234 O.3       1 <0>        -0.5122
     21 O5         -1.6186    3.8159    0.0622 O.3       1 <0>        -0.5399
     22 C11        -0.6599    3.5639    6.0595 C.2       1 <0>         0.4983
     23 O6         -0.9527    4.0581    7.1303 O.co2     1 <0>        -0.6159
     24 O7         -3.8704    5.5594    3.5217 O.3       1 <0>        -0.5645
     25 H6         -4.0756    7.4438   -0.3634 H         1 <0>         0.0849
     26 H7         -2.7283    8.5135   -0.8207 H         1 <0>         0.0877
     27 H8         -2.7437    6.8189   -1.3653 H         1 <0>         0.0876
     28 H9         -3.0509    5.2365    0.7943 H         1 <0>         0.4004
     29 H10        -2.1575    5.6465    5.8627 H         1 <0>         0.1349
     30 H11         1.0053    1.8021    0.0021 H         1 <0>         0.0471
     31 H12        -0.5445    1.7859   -0.8732 H         1 <0>         0.0581
     32 H13         0.4417   -0.3872   -0.7693 H         1 <0>         0.3749
     33 H14         0.9163    1.9083    2.4432 H         1 <0>         0.3752
     34 H15        -2.5142    3.4516    0.0423 H         1 <0>         0.3734
     35 H16        -4.4249    5.8153    4.2715 H         1 <0>         0.3788
     36 O8          0.1237    2.4682    6.0147 O.co2     1 <0>        -0.7238
@<TRIPOS>BOND
     1    1    2 1
     2    1   25 1
     3    1   26 1
     4    1   27 1
     5    2    3 2
     6    2    4 am
     7    4    5 1
     8    4   28 1
     9    5    6 1
    10    5   12 1
    11    5    7 1
    12    7    8 1
    13    7    9 1
    14    7   24 1
    15    9   10 2
    16    9   29 1
    17   10   11 1
    18   10   22 1
    19   11   12 1
    20   12   13 1
    21   12   14 1
    22   14   15 1
    23   14   16 1
    24   14   21 1
    25   16   17 1
    26   16   18 1
    27   16   20 1
    28   18   19 1
    29   18   30 1
    30   18   31 1
    31   19   32 1
    32   20   33 1
    33   21   34 1
    34   22   23 2
    35   22   36 1
    36   24   35 1
@<TRIPOS>MOLECULE
ZINC06777830
   44    44     0     0     0
SMALL
USER_CHARGES
4-acetylamino-5-amino-3-(1-ethylpropoxy)cyclohexene-1-carboxylic acid
@<TRIPOS>ATOM
      1 C1          6.4707    1.4984   -1.3020 C.3       1 <0>        -0.1589
      2 C2          6.6028    0.5129   -0.1391 C.3       1 <0>        -0.1433
      3 C3          5.2107    0.0623    0.3082 C.3       1 <0>         0.0876
      4 C4          5.3453   -1.0156    1.3856 C.3       1 <0>        -0.1218
      5 C5          3.9594   -1.5582    1.7401 C.3       1 <0>        -0.1526
      6 O1          4.4961    1.1800    0.8392 O.3       1 <0>        -0.3397
      7 C6          3.5787    1.7740   -0.0814 C.3       1 <0>         0.1171
      8 H1          4.0035    1.7440   -1.0848 H         1 <0>         0.0790
      9 C7          2.2902    1.0045   -0.0614 C.2       1 <0>        -0.1631
     10 C8          1.1007    1.5684   -0.0728 C.2       1 <0>        -0.1338
     11 C9          0.8811    3.0532   -0.0870 C.3       1 <0>        -0.0793
     12 C10         2.1623    3.7709   -0.5166 C.3       1 <0>         0.0253
     13 H2          2.3511    3.5820   -1.5734 H         1 <0>         0.1483
     14 C11         3.3279    3.2291    0.3199 C.3       1 <0>         0.1306
     15 H3          3.0728    3.2781    1.3785 H         1 <0>         0.1273
     16 N1          4.5305    4.0250    0.0622 N.am      1 <0>        -0.7547
     17 C12         5.5049    4.0939    0.9908 C.2       1 <0>         0.5114
     18 O2          5.3861    3.4969    2.0398 O.2       1 <0>        -0.4910
     19 C13         6.7420    4.9126    0.7256 C.3       1 <0>        -0.1769
     20 C14        -0.0803    0.6940   -0.0653 C.2       1 <0>         0.4784
     21 O3          0.0577   -0.5135   -0.0537 O.co2     1 <0>        -0.6149
     22 H4          5.8943    2.3655   -0.9796 H         1 <0>         0.0555
     23 H5          7.4624    1.8194   -1.6207 H         1 <0>         0.0554
     24 H6          5.9613    1.0124   -2.1341 H         1 <0>         0.0526
     25 H7          7.1122    0.9989    0.6930 H         1 <0>         0.0704
     26 H8          7.1792   -0.3543   -0.4615 H         1 <0>         0.0727
     27 H9          4.6683   -0.3433   -0.5458 H         1 <0>         0.0646
     28 H10         5.9686   -1.8277    1.0113 H         1 <0>         0.0727
     29 H11         5.8053   -0.5849    2.2750 H         1 <0>         0.0699
     30 H12         4.0619   -2.3865    2.4412 H         1 <0>         0.0543
     31 H13         3.3653   -0.7667    2.1972 H         1 <0>         0.0621
     32 H14         3.4635   -1.9078    0.8346 H         1 <0>         0.0556
     33 H15         2.3418   -0.0741   -0.0400 H         1 <0>         0.1371
     34 H16         0.0805    3.2934   -0.7865 H         1 <0>         0.1141
     35 H17         0.5979    3.3861    0.9115 H         1 <0>         0.0977
     36 H18         4.6255    4.5025   -0.7768 H         1 <0>         0.3952
     37 H19         6.4609    5.9529    0.5613 H         1 <0>         0.0873
     38 H20         7.4111    4.8483    1.5837 H         1 <0>         0.0978
     39 H21         7.2487    4.5290   -0.1599 H         1 <0>         0.0907
     40 H22         1.2458    5.5887   -0.8233 H         1 <0>         0.4428
     41 H23         1.9128    5.4196    0.6908 H         1 <0>         0.4375
     42 N2          2.0402    5.2234   -0.3006 N.4       1 <0>        -0.6385
     43 H24         2.8969    5.6863   -0.6263 H         1 <0>         0.4305
     44 O4         -1.3167    1.2309   -0.0767 O.co2     1 <0>        -0.7532
@<TRIPOS>BOND
     1    1    2 1
     2    1   22 1
     3    1   23 1
     4    1   24 1
     5    2    3 1
     6    2   25 1
     7    2   26 1
     8    3    4 1
     9    3    6 1
    10    3   27 1
    11    4    5 1
    12    4   28 1
    13    4   29 1
    14    5   30 1
    15    5   31 1
    16    5   32 1
    17    6    7 1
    18    7    8 1
    19    7   14 1
    20    7    9 1
    21    9   10 2
    22    9   33 1
    23   10   11 1
    24   10   20 1
    25   11   12 1
    26   11   34 1
    27   11   35 1
    28   12   13 1
    29   12   14 1
    30   12   42 1
    31   14   15 1
    32   14   16 1
    33   16   17 am
    34   16   36 1
    35   17   18 2
    36   17   19 1
    37   19   37 1
    38   19   38 1
    39   19   39 1
    40   20   21 2
    41   20   44 1
    42   40   42 1
    43   41   42 1
    44   42   43 1
@<TRIPOS>MOLECULE
ZINC03929509
   44    44     0     0     0
SMALL
USER_CHARGES
4-acetylamino-5-amino-3-(1-ethylpropoxy)cyclohexene-1-carboxylic acid
@<TRIPOS>ATOM
      1 C1         -1.1633   -0.1373    2.2080 C.3       1 <0>        -0.1531
      2 C2         -1.2332   -0.5349    0.7323 C.3       1 <0>        -0.1179
      3 C3          0.0021   -0.0041    0.0020 C.3       1 <0>         0.0869
      4 C4         -0.0048   -0.5063   -1.4432 C.3       1 <0>        -0.1462
      5 C5          1.2904   -0.0801   -2.1374 C.3       1 <0>        -0.1679
      6 O1         -0.0173    1.4248    0.0099 O.3       1 <0>        -0.3381
      7 C6          1.2801    2.0237    0.0007 C.3       1 <0>         0.1113
      8 H1          1.9754    1.3716   -0.5279 H         1 <0>         0.0858
      9 C7          1.7524    2.2095    1.4133 C.2       1 <0>        -0.1587
     10 C8          2.3580    3.2954    1.8457 C.2       1 <0>        -0.1351
     11 C9          2.6455    4.4901    0.9836 C.3       1 <0>        -0.0818
     12 C10         2.5376    4.1109   -0.4948 C.3       1 <0>         0.0249
     13 H2          3.3670    3.4580   -0.7668 H         1 <0>         0.1521
     14 C11         1.2098    3.3752   -0.7132 C.3       1 <0>         0.1276
     15 H3          0.3919    3.9655   -0.3000 H         1 <0>         0.1263
     16 N1          0.9895    3.1641   -2.1461 N.am      1 <0>        -0.7531
     17 C12        -0.2618    2.9975   -2.6181 C.2       1 <0>         0.5115
     18 O2         -1.2055    3.0224   -1.8567 O.2       1 <0>        -0.4912
     19 C13        -0.4884    2.7803   -4.0921 C.3       1 <0>        -0.1735
     20 C14         2.7767    3.3407    3.2535 C.2       1 <0>         0.4783
     21 O3          2.5611    2.3923    3.9824 O.co2     1 <0>        -0.6153
     22 H4         -0.2655   -0.5622    2.6567 H         1 <0>         0.0543
     23 H5         -1.1314    0.9492    2.2905 H         1 <0>         0.0636
     24 H6         -2.0434   -0.5154    2.7283 H         1 <0>         0.0543
     25 H7         -2.1311   -0.1099    0.2836 H         1 <0>         0.0701
     26 H8         -1.2651   -1.6213    0.6498 H         1 <0>         0.0732
     27 H9          0.9018   -0.3580    0.5054 H         1 <0>         0.0636
     28 H10        -0.0796   -1.5937   -1.4496 H         1 <0>         0.0723
     29 H11        -0.8575   -0.0803   -1.9718 H         1 <0>         0.0693
     30 H12         2.1431   -0.5061   -1.6087 H         1 <0>         0.0542
     31 H13         1.2855   -0.4379   -3.1670 H         1 <0>         0.0557
     32 H14         1.3652    1.0073   -2.1309 H         1 <0>         0.0618
     33 H15         1.5857    1.4060    2.1154 H         1 <0>         0.1356
     34 H16         3.6525    4.8517    1.1914 H         1 <0>         0.1144
     35 H17         1.9271    5.2787    1.2077 H         1 <0>         0.0976
     36 H18         1.7443    3.1442   -2.7550 H         1 <0>         0.3955
     37 H19         0.4694    2.7891   -4.6121 H         1 <0>         0.0747
     38 H20        -0.9770    1.8183   -4.2467 H         1 <0>         0.1001
     39 H21        -1.1217    3.5765   -4.4835 H         1 <0>         0.0982
     40 H22         3.4365    5.8270   -1.1915 H         1 <0>         0.4425
     41 H23         2.4197    5.1066   -2.2929 H         1 <0>         0.4283
     42 N2          2.5504    5.3386   -1.3096 N.4       1 <0>        -0.6389
     43 H24         1.7860    5.9532   -1.0060 H         1 <0>         0.4402
     44 O4          3.4000    4.4340    3.7366 O.co2     1 <0>        -0.7535
@<TRIPOS>BOND
     1    1    2 1
     2    1   22 1
     3    1   23 1
     4    1   24 1
     5    2    3 1
     6    2   25 1
     7    2   26 1
     8    3    4 1
     9    3    6 1
    10    3   27 1
    11    4    5 1
    12    4   28 1
    13    4   29 1
    14    5   30 1
    15    5   31 1
    16    5   32 1
    17    6    7 1
    18    7    8 1
    19    7   14 1
    20    7    9 1
    21    9   10 2
    22    9   33 1
    23   10   11 1
    24   10   20 1
    25   11   12 1
    26   11   34 1
    27   11   35 1
    28   12   13 1
    29   12   14 1
    30   12   42 1
    31   14   15 1
    32   14   16 1
    33   16   17 am
    34   16   36 1
    35   17   18 2
    36   17   19 1
    37   19   37 1
    38   19   38 1
    39   19   39 1
    40   20   21 2
    41   20   44 1
    42   40   42 1
    43   41   42 1
    44   42   43 1
@<TRIPOS>MOLECULE
ZINC06777826
   44    44     0     0     0
SMALL
USER_CHARGES
4-acetylamino-5-amino-3-(1-ethylpropoxy)cyclohexene-1-carboxylic acid
@<TRIPOS>ATOM
      1 C1         -1.4290   -0.5329   -0.1129 C.3       1 <0>        -0.1567
      2 C2          0.0021   -0.0041    0.0020 C.3       1 <0>        -0.1466
      3 C3         -0.0187    1.5258    0.0104 C.3       1 <0>         0.0885
      4 C4          1.4167    2.0553   -0.0004 C.3       1 <0>        -0.1179
      5 C5          1.3967    3.5807   -0.1178 C.3       1 <0>        -0.1516
      6 O1         -0.6875    1.9866    1.1861 O.3       1 <0>        -0.3395
      7 C6         -2.0962    2.1622    1.0224 C.3       1 <0>         0.1068
      8 H1         -2.4647    1.4542    0.2800 H         1 <0>         0.0906
      9 C7         -2.3723    3.5617    0.5553 C.2       1 <0>        -0.1515
     10 C8         -3.3500    4.3096    1.0220 C.2       1 <0>        -0.1394
     11 C9         -4.3077    3.8617    2.0874 C.3       1 <0>        -0.0851
     12 C10        -4.2632    2.3389    2.2293 C.3       1 <0>         0.0188
     13 H2         -4.7068    1.8759    1.3478 H         1 <0>         0.1605
     14 C11        -2.7978    1.9076    2.3581 C.3       1 <0>         0.1331
     15 H3         -2.7506    0.8459    2.6000 H         1 <0>         0.1144
     16 N1         -2.1447    2.6862    3.4133 N.am      1 <0>        -0.7363
     17 C12        -1.0578    2.1935    4.0398 C.2       1 <0>         0.5222
     18 O2         -0.6206    1.1055    3.7300 O.2       1 <0>        -0.5145
     19 C13        -0.3860    2.9944    5.1252 C.3       1 <0>        -0.1736
     20 C14        -3.5129    5.6609    0.4681 C.2       1 <0>         0.4782
     21 O3         -2.7564    6.0588   -0.3958 O.co2     1 <0>        -0.6158
     22 H4         -1.8771   -0.1705   -1.0381 H         1 <0>         0.0537
     23 H5         -1.4142   -1.6228   -0.1189 H         1 <0>         0.0573
     24 H6         -2.0153   -0.1821    0.7365 H         1 <0>         0.0522
     25 H7          0.5883   -0.3548   -0.8473 H         1 <0>         0.0715
     26 H8          0.4501   -0.3665    0.9272 H         1 <0>         0.0745
     27 H9         -0.5459    1.8868   -0.8726 H         1 <0>         0.0631
     28 H10         1.9168    1.7687    0.9247 H         1 <0>         0.0693
     29 H11         1.9535    1.6326   -0.8497 H         1 <0>         0.0740
     30 H12         0.8966    3.8674   -1.0429 H         1 <0>         0.0544
     31 H13         0.8598    4.0034    0.7315 H         1 <0>         0.0608
     32 H14         2.4193    3.9580   -0.1255 H         1 <0>         0.0537
     33 H15        -1.7316    3.9793   -0.2073 H         1 <0>         0.1329
     34 H16        -4.0326    4.3213    3.0368 H         1 <0>         0.0904
     35 H17        -5.3182    4.1681    1.8170 H         1 <0>         0.1137
     36 H18        -2.4944    3.5564    3.6610 H         1 <0>         0.4035
     37 H19        -0.9164    3.9367    5.2627 H         1 <0>         0.0761
     38 H20        -0.4023    2.4290    6.0570 H         1 <0>         0.0952
     39 H21         0.6467    3.1968    4.8411 H         1 <0>         0.1003
     40 H22        -5.9735    2.2229    3.3693 H         1 <0>         0.4423
     41 H23        -4.9390    0.9375    3.5775 H         1 <0>         0.4351
     42 N2         -4.9962    1.9460    3.4457 N.4       1 <0>        -0.6392
     43 H24        -4.5778    2.4143    4.2580 H         1 <0>         0.4350
     44 O4         -4.5015    6.4591    0.9183 O.co2     1 <0>        -0.7543
@<TRIPOS>BOND
     1    1    2 1
     2    1   22 1
     3    1   23 1
     4    1   24 1
     5    2    3 1
     6    2   25 1
     7    2   26 1
     8    3    4 1
     9    3    6 1
    10    3   27 1
    11    4    5 1
    12    4   28 1
    13    4   29 1
    14    5   30 1
    15    5   31 1
    16    5   32 1
    17    6    7 1
    18    7    8 1
    19    7   14 1
    20    7    9 1
    21    9   10 2
    22    9   33 1
    23   10   11 1
    24   10   20 1
    25   11   12 1
    26   11   34 1
    27   11   35 1
    28   12   13 1
    29   12   14 1
    30   12   42 1
    31   14   15 1
    32   14   16 1
    33   16   17 am
    34   16   36 1
    35   17   18 2
    36   17   19 1
    37   19   37 1
    38   19   38 1
    39   19   39 1
    40   20   21 2
    41   20   44 1
    42   40   42 1
    43   41   42 1
    44   42   43 1
@<TRIPOS>MOLECULE
ZINC04096465
   36    36     0     0     0
SMALL
USER_CHARGES
5-acetylamino-4-hydroxy-6-(1,2,3-trihydroxypropyl)-5,6-dihydro-4H-pyran-2-carboxylic acid
@<TRIPOS>ATOM
      1 C1          7.0340    4.9939    1.3546 C.3       1 <0>        -0.1688
      2 C2          6.0364    5.4540    0.3231 C.2       1 <0>         0.5070
      3 O1          6.4185    5.8276   -0.7657 O.2       1 <0>        -0.5174
      4 N1          4.7197    5.4505    0.6105 N.am      1 <0>        -0.7274
      5 C3          3.7499    5.8978   -0.3923 C.3       1 <0>         0.1141
      6 H1          4.0953    5.6200   -1.3881 H         1 <0>         0.1103
      7 C4          3.5840    7.4189   -0.3095 C.3       1 <0>         0.1476
      8 H2          3.4577    7.7138    0.7322 H         1 <0>         0.0553
      9 C5          2.3729    7.8353   -1.0991 C.2       1 <0>        -0.3118
     10 C6          1.4301    6.9752   -1.4549 C.2       1 <0>         0.0855
     11 O2          1.4793    5.6564   -1.1473 O.3       1 <0>        -0.2670
     12 C7          2.3858    5.2500   -0.1183 C.3       1 <0>         0.0528
     13 H3          2.0116    5.5781    0.8515 H         1 <0>         0.0853
     14 C8          2.5273    3.7266   -0.1278 C.3       1 <0>         0.0970
     15 H4          3.1558    3.4149    0.7064 H         1 <0>         0.0709
     16 C9          1.1449    3.0852    0.0077 C.3       1 <0>         0.1138
     17 H5          0.5164    3.3969   -0.8265 H         1 <0>         0.1329
     18 C10         1.2864    1.5618   -0.0018 C.3       1 <0>         0.0517
     19 O3         -0.0110    0.9628    0.0073 O.3       1 <0>        -0.5607
     20 O4          0.5456    3.5002    1.2368 O.3       1 <0>        -0.5333
     21 O5          3.1266    3.3116   -1.3569 O.3       1 <0>        -0.5450
     22 C11         0.2751    7.4755   -2.2209 C.2       1 <0>         0.4995
     23 O6          0.2030    8.6532   -2.5117 O.co2     1 <0>        -0.6142
     24 O7          4.7452    8.0549   -0.8473 O.3       1 <0>        -0.5433
     25 H6          6.5080    4.6987    2.2625 H         1 <0>         0.0725
     26 H7          7.5928    4.1428    0.9654 H         1 <0>         0.0927
     27 H8          7.7229    5.8074    1.5821 H         1 <0>         0.0933
     28 H9          4.4141    5.1518    1.4813 H         1 <0>         0.3968
     29 H10         2.2682    8.8714   -1.3855 H         1 <0>         0.1384
     30 H11         1.8401    1.2428    0.8812 H         1 <0>         0.0414
     31 H12         1.8231    1.2523   -0.8987 H         1 <0>         0.0659
     32 H13         0.0021   -0.0041    0.0020 H         1 <0>         0.3750
     33 H14         1.0519    3.2558    2.0235 H         1 <0>         0.3627
     34 H15         4.0072    3.6809   -1.5095 H         1 <0>         0.3803
     35 H16         4.7095    9.0210   -0.8268 H         1 <0>         0.3741
     36 O8         -0.7014    6.6270   -2.5991 O.co2     1 <0>        -0.7280
@<TRIPOS>BOND
     1    1    2 1
     2    1   25 1
     3    1   26 1
     4    1   27 1
     5    2    3 2
     6    2    4 am
     7    4    5 1
     8    4   28 1
     9    5    6 1
    10    5   12 1
    11    5    7 1
    12    7    8 1
    13    7    9 1
    14    7   24 1
    15    9   10 2
    16    9   29 1
    17   10   11 1
    18   10   22 1
    19   11   12 1
    20   12   13 1
    21   12   14 1
    22   14   15 1
    23   14   16 1
    24   14   21 1
    25   16   17 1
    26   16   18 1
    27   16   20 1
    28   18   19 1
    29   18   30 1
    30   18   31 1
    31   19   32 1
    32   20   33 1
    33   21   34 1
    34   22   23 2
    35   22   36 1
    36   24   35 1
