@<TRIPOS>MOLECULE
ZINC00009295
   33    37     0     0     0
SMALL
USER_CHARGES

@<TRIPOS>ATOM
      1 C1         -0.0165    1.3617    0.0018 C.ar      1 <0>        -0.1166
      2 C2          1.1670    2.0860    0.0184 C.ar      1 <0>        -0.1102
      3 C3          2.3845    1.4365    0.0139 C.ar      1 <0>        -0.0886
      4 C4          2.4235    0.0506   -0.0069 C.ar      1 <0>         0.0477
      5 C5          1.2253   -0.6845   -0.0233 C.ar      1 <0>         0.0671
      6 C6          0.0020   -0.0039   -0.0189 C.ar      1 <0>        -0.0707
      7 N1          1.5589   -1.9954   -0.0410 N.2       1 <0>        -0.4717
      8 C7          2.8671   -2.1252   -0.0368 C.2       1 <0>         0.3597
      9 N2          3.4512   -0.8811   -0.0157 N.am      1 <0>        -0.4750
     10 C8          4.7897   -0.7218   -0.0067 C.2       1 <0>         0.5811
     11 O1          5.2621    0.3982    0.0124 O.2       1 <0>        -0.4908
     12 C9          5.6842   -1.8884   -0.0191 C.ar      1 <0>        -0.1855
     13 C10         7.0648   -1.7546   -0.0097 C.ar      1 <0>        -0.0005
     14 C11         7.8775   -2.8821   -0.0216 C.ar      1 <0>        -0.1716
     15 C12         7.3478   -4.1414   -0.0427 C.ar      1 <0>        -0.0150
     16 C13         5.9572   -4.3167   -0.0532 C.ar      1 <0>        -0.0588
     17 C14         5.1192   -3.1838   -0.0409 C.ar      1 <0>         0.0057
     18 C15         3.7136   -3.3357   -0.0511 C.ar      1 <0>        -0.0918
     19 C16         3.1553   -4.6045   -0.0728 C.ar      1 <0>        -0.0099
     20 C17         3.9517   -5.7383   -0.0860 C.ar      1 <0>        -0.1235
     21 C18         5.3407   -5.6422   -0.0767 C.ar      1 <0>        -0.0496
     22 C19         6.1748   -6.8553   -0.0900 C.2       1 <0>         0.5213
     23 O2          5.6524   -7.9579    0.0012 O.co2     1 <0>        -0.6640
     24 O3          7.3903   -6.7609   -0.1924 O.co2     1 <0>        -0.6690
     25 H1         -0.9622    1.8832    0.0098 H         1 <0>         0.1325
     26 H2          1.1351    3.1654    0.0346 H         1 <0>         0.1328
     27 H3          3.3027    2.0049    0.0262 H         1 <0>         0.1327
     28 H4         -0.9253   -0.5575   -0.0313 H         1 <0>         0.1345
     29 H5          7.5099   -0.7707    0.0065 H         1 <0>         0.1371
     30 H6          8.9505   -2.7602   -0.0144 H         1 <0>         0.1360
     31 H7          8.0006   -5.0018   -0.0516 H         1 <0>         0.1874
     32 H8          2.0806   -4.7111   -0.0791 H         1 <0>         0.1408
     33 H9          3.4871   -6.7131   -0.1025 H         1 <0>         0.1466
@<TRIPOS>BOND
     1    1    6 ar
     2    1    2 ar
     3    1   25 1
     4    2    3 ar
     5    2   26 1
     6    3    4 ar
     7    3   27 1
     8    4    9 1
     9    4    5 ar
    10    5    6 ar
    11    5    7 1
    12    6   28 1
    13    7    8 2
    14    8   18 1
    15    8    9 1
    16    9   10 am
    17   10   11 2
    18   10   12 1
    19   12   17 ar
    20   12   13 ar
    21   13   14 ar
    22   13   29 1
    23   14   15 ar
    24   14   30 1
    25   15   16 ar
    26   15   31 1
    27   16   21 ar
    28   16   17 ar
    29   17   18 ar
    30   18   19 ar
    31   19   20 ar
    32   19   32 1
    33   20   21 ar
    34   20   33 1
    35   21   22 1
    36   22   23 2
    37   22   24 1
@<TRIPOS>MOLECULE
ZINC19862631
   37    40     0     0     0
SMALL
USER_CHARGES

@<TRIPOS>ATOM
      1 C1         -0.0166    1.3758    0.0096 C.ar      1 <0>        -0.1300
      2 C2          1.1693    2.0890    0.0021 C.ar      1 <0>        -0.1111
      3 C3          2.3818    1.4260   -0.0134 C.ar      1 <0>        -0.1469
      4 C4          2.4157    0.0409   -0.0212 C.ar      1 <0>         0.1159
      5 C5          1.2190   -0.6828   -0.0132 C.ar      1 <0>        -0.0577
      6 C6          0.0021   -0.0041    0.0020 C.ar      1 <0>        -0.0951
      7 C7          1.2450   -2.1649   -0.0218 C.ar      1 <0>        -0.0561
      8 C8          2.0287   -2.8432   -0.9554 C.ar      1 <0>        -0.1038
      9 C9          2.0531   -4.2201   -0.9637 C.ar      1 <0>        -0.1078
     10 C10         1.2936   -4.9368   -0.0380 C.ar      1 <0>        -0.0261
     11 C11         0.5096   -4.2580    0.8959 C.ar      1 <0>        -0.0250
     12 C12         0.4901   -2.8810    0.9073 C.ar      1 <0>        -0.1145
     13 C13         1.3192   -6.4178   -0.0469 C.2       1 <0>         0.0059
     14 C14         1.1281   -7.1032   -1.1974 C.2       1 <0>        -0.2104
     15 S1          1.2498   -8.8059   -0.6861 S.3       1 <0>         0.0636
     16 C15         1.5518   -8.5573    1.0465 C.2       1 <0>         0.1314
     17 C16         1.5576   -7.1668    1.1878 C.2       1 <0>        -0.2092
     18 C17         1.7865   -6.6559    2.4995 C.2       1 <0>         0.3893
     19 O1          1.8009   -5.3217    2.7157 O.3       1 <0>        -0.6278
     20 C18         1.9950   -7.5397    3.5586 C.2       1 <0>        -0.3806
     21 C19         1.9795   -8.9364    3.3323 C.2       1 <0>         0.5730
     22 O2          2.1616   -9.7099    4.2570 O.2       1 <0>        -0.5758
     23 N1          1.7515   -9.4065    2.0894 N.am      1 <0>        -0.5968
     24 C20         2.2258   -7.0323    4.8777 C.1       1 <0>         0.3414
     25 N2          2.4088   -6.6297    5.9241 N.1       1 <0>        -0.5207
     26 O3          3.6070   -0.6119   -0.0369 O.3       1 <0>        -0.4930
     27 H1         -0.9602    1.9010    0.0259 H         1 <0>         0.1237
     28 H2          1.1472    3.1687    0.0081 H         1 <0>         0.1231
     29 H3          3.3040    1.9882   -0.0199 H         1 <0>         0.1266
     30 H4         -0.9254   -0.5573    0.0082 H         1 <0>         0.1278
     31 H5          2.6162   -2.2885   -1.6720 H         1 <0>         0.1194
     32 H6          2.6596   -4.7452   -1.6868 H         1 <0>         0.1187
     33 H7         -0.0782   -4.8124    1.6124 H         1 <0>         0.1253
     34 H8         -0.1128   -2.3556    1.6331 H         1 <0>         0.1157
     35 H9          0.9453   -6.7125   -2.1875 H         1 <0>         0.1882
     36 H10         1.7414  -10.3641    1.9349 H         1 <0>         0.4069
     37 H11         3.9610   -0.8056    0.8419 H         1 <0>         0.3924
@<TRIPOS>BOND
     1    1    6 ar
     2    1    2 ar
     3    1   27 1
     4    2    3 ar
     5    2   28 1
     6    3    4 ar
     7    3   29 1
     8    4    5 ar
     9    4   26 1
    10    5    6 ar
    11    5    7 1
    12    6   30 1
    13    7   12 ar
    14    7    8 ar
    15    8    9 ar
    16    8   31 1
    17    9   10 ar
    18    9   32 1
    19   10   11 ar
    20   10   13 1
    21   11   12 ar
    22   11   33 1
    23   12   34 1
    24   13   17 1
    25   13   14 2
    26   14   15 1
    27   14   35 1
    28   15   16 1
    29   16   23 1
    30   16   17 2
    31   17   18 1
    32   18   19 1
    33   18   20 2
    34   20   21 1
    35   20   24 1
    36   21   22 2
    37   21   23 am
    38   23   36 1
    39   24   25 3
    40   26   37 1
