@<TRIPOS>MOLECULE
ZINC08582037
   45    47     0     0     0
SMALL
USER_CHARGES
N-[(1S)-1-methyl-3-[2-(4-phenoxyphenoxy)thiazol-5-yl]prop-2-ynyl]acetamide
@<TRIPOS>ATOM
      1 C1          1.5083   -5.2317   -1.5272 C.3       1 <0>        -0.1600
      2 C2          2.0948   -4.6207   -0.2531 C.3       1 <0>         0.2571
      3 H1          3.1766   -4.7545   -0.2505 H         1 <0>         0.1169
      4 C3          1.7780   -3.1839   -0.2071 C.1       1 <0>        -0.1294
      5 C4          1.5254   -2.0380   -0.1704 C.1       1 <0>        -0.0742
      6 C5          1.2172   -0.6403   -0.1257 C.2       1 <0>        -0.1238
      7 C6         -0.0026   -0.0118   -0.1126 C.2       1 <0>         0.0966
      8 N1         -0.0211    1.3015   -0.0695 N.2       1 <0>        -0.5517
      9 C7          1.0951    2.0049   -0.0395 C.2       1 <0>         0.2470
     10 S1          2.3146    0.7691   -0.0726 S.3       1 <0>         0.1990
     11 O1          1.2502    3.3497    0.0053 O.3       1 <0>        -0.1772
     12 C8          0.1363    4.1240   -0.0839 C.ar      1 <0>         0.0823
     13 C9          0.2555    5.5035   -0.1713 C.ar      1 <0>        -0.1074
     14 C10        -0.8759    6.2897   -0.2667 C.ar      1 <0>        -0.0970
     15 C11        -2.1321    5.7007   -0.2645 C.ar      1 <0>         0.0709
     16 C12        -2.2515    4.3216   -0.1717 C.ar      1 <0>        -0.1084
     17 C13        -1.1199    3.5351   -0.0817 C.ar      1 <0>        -0.1749
     18 O2         -3.2460    6.4750   -0.3536 O.3       1 <0>        -0.2568
     19 C14        -3.9784    6.6712    0.7739 C.ar      1 <0>         0.1198
     20 C15        -3.6446    6.0047    1.9443 C.ar      1 <0>        -0.1965
     21 C16        -4.3877    6.2100    3.0906 C.ar      1 <0>        -0.0819
     22 C17        -5.4696    7.0707    3.0697 C.ar      1 <0>        -0.1522
     23 C18        -5.8079    7.7318    1.9033 C.ar      1 <0>        -0.0824
     24 C19        -5.0650    7.5341    0.7556 C.ar      1 <0>        -0.1453
     25 N2          1.5178   -5.2857    0.9178 N.am      1 <0>        -0.7281
     26 C20         2.0567   -6.4334    1.3747 C.2       1 <0>         0.5152
     27 O3          3.0194   -6.9157    0.8166 O.2       1 <0>        -0.5413
     28 C21         1.4631   -7.1175    2.5792 C.3       1 <0>        -0.1714
     29 H2          1.7429   -6.2956   -1.5613 H         1 <0>         0.0752
     30 H3          0.4266   -5.0979   -1.5298 H         1 <0>         0.0641
     31 H4          1.9377   -4.7370   -2.3984 H         1 <0>         0.0738
     32 H5         -0.9208   -0.5800   -0.1366 H         1 <0>         0.1859
     33 H6          1.2332    5.9622   -0.1690 H         1 <0>         0.1447
     34 H7         -0.7830    7.3633   -0.3386 H         1 <0>         0.1448
     35 H8         -3.2293    3.8632   -0.1697 H         1 <0>         0.1369
     36 H9         -1.2128    2.4615   -0.0098 H         1 <0>         0.2075
     37 H10        -2.8024    5.3288    1.9600 H         1 <0>         0.1284
     38 H11        -4.1260    5.6943    4.0027 H         1 <0>         0.1258
     39 H12        -6.0518    7.2266    3.9659 H         1 <0>         0.1258
     40 H13        -6.6534    8.4035    1.8896 H         1 <0>         0.1319
     41 H14        -5.3298    8.0504   -0.1553 H         1 <0>         0.1328
     42 H15         0.7478   -4.9000    1.3643 H         1 <0>         0.4051
     43 H16         0.6118   -6.5412    2.9415 H         1 <0>         0.0769
     44 H17         1.1328   -8.1186    2.3024 H         1 <0>         0.0980
     45 H18         2.2154   -7.1873    3.3649 H         1 <0>         0.0977
@<TRIPOS>BOND
     1    1    2 1
     2    1   29 1
     3    1   30 1
     4    1   31 1
     5    2    3 1
     6    2    4 1
     7    2   25 1
     8    4    5 3
     9    5    6 1
    10    6   10 1
    11    6    7 2
    12    7    8 1
    13    7   32 1
    14    8    9 2
    15    9   10 1
    16    9   11 1
    17   11   12 1
    18   12   17 ar
    19   12   13 ar
    20   13   14 ar
    21   13   33 1
    22   14   15 ar
    23   14   34 1
    24   15   16 ar
    25   15   18 1
    26   16   17 ar
    27   16   35 1
    28   17   36 1
    29   18   19 1
    30   19   24 ar
    31   19   20 ar
    32   20   21 ar
    33   20   37 1
    34   21   22 ar
    35   21   38 1
    36   22   23 ar
    37   22   39 1
    38   23   24 ar
    39   23   40 1
    40   24   41 1
    41   25   26 am
    42   25   42 1
    43   26   27 2
    44   26   28 1
    45   28   43 1
    46   28   44 1
    47   28   45 1
@<TRIPOS>MOLECULE
ZINC08582038
   45    47     0     0     0
SMALL
USER_CHARGES
N-[(1R)-1-methyl-3-[2-(4-phenoxyphenoxy)thiazol-5-yl]prop-2-ynyl]acetamide
@<TRIPOS>ATOM
      1 C1          3.5137    6.1842    0.1783 C.3       1 <0>        -0.1599
      2 C2          2.0004    5.9613    0.2108 C.3       1 <0>         0.2570
      3 H1          1.5898    6.3885    1.1256 H         1 <0>         0.1165
      4 C3          1.7162    4.5175    0.1728 C.1       1 <0>        -0.1296
      5 C4          1.4895    3.3660    0.1426 C.1       1 <0>        -0.0742
      6 C5          1.2130    1.9614    0.1057 C.2       1 <0>        -0.1240
      7 C6          0.0080    1.3049    0.1165 C.2       1 <0>         0.0974
      8 N1          0.0192   -0.0085    0.0745 N.2       1 <0>        -0.5515
      9 C7          1.1506   -0.6859    0.0233 C.2       1 <0>         0.2472
     10 S1          2.3415    0.5777    0.0322 S.3       1 <0>         0.1977
     11 O1          1.3358   -2.0268   -0.0244 O.3       1 <0>        -0.1772
     12 C8          0.2421   -2.8266    0.0870 C.ar      1 <0>         0.0821
     13 C9          0.3950   -4.2030    0.1721 C.ar      1 <0>        -0.1081
     14 C10        -0.7157   -5.0151    0.2906 C.ar      1 <0>        -0.1109
     15 C11        -1.9850   -4.4554    0.3130 C.ar      1 <0>         0.0714
     16 C12        -2.1382   -3.0795    0.2227 C.ar      1 <0>        -0.0950
     17 C13        -1.0272   -2.2670    0.1099 C.ar      1 <0>        -0.1737
     18 O2         -3.0788   -5.2553    0.4240 O.3       1 <0>        -0.2566
     19 C14        -3.3555   -5.7923    1.6411 C.ar      1 <0>         0.1195
     20 C15        -2.4764   -5.6070    2.6986 C.ar      1 <0>        -0.1969
     21 C16        -2.7627   -6.1496    3.9363 C.ar      1 <0>        -0.0819
     22 C17        -3.9189   -6.8856    4.1192 C.ar      1 <0>        -0.1522
     23 C18        -4.7938   -7.0765    3.0656 C.ar      1 <0>        -0.0823
     24 C19        -4.5148   -6.5317    1.8272 C.ar      1 <0>        -0.1453
     25 N2          1.3862    6.6106   -0.9500 N.am      1 <0>        -0.7283
     26 C20         1.0645    7.9184   -0.8988 C.2       1 <0>         0.5153
     27 O3          1.2835    8.5577    0.1083 O.2       1 <0>        -0.5413
     28 C21         0.4327    8.5863   -2.0928 C.3       1 <0>        -0.1714
     29 H2          3.7242    7.2533    0.2064 H         1 <0>         0.0759
     30 H3          3.9707    5.7011    1.0420 H         1 <0>         0.0738
     31 H4          3.9244    5.7570   -0.7365 H         1 <0>         0.0638
     32 H5         -0.9225    1.8519    0.1538 H         1 <0>         0.1862
     33 H6          1.3828   -4.6389    0.1501 H         1 <0>         0.1435
     34 H7         -0.5965   -6.0862    0.3609 H         1 <0>         0.1429
     35 H8         -3.1263   -2.6438    0.2402 H         1 <0>         0.1389
     36 H9         -1.1464   -1.1958    0.0400 H         1 <0>         0.2083
     37 H10        -1.5710   -5.0360    2.5552 H         1 <0>         0.1284
     38 H11        -2.0807   -6.0025    4.7607 H         1 <0>         0.1260
     39 H12        -4.1389   -7.3124    5.0866 H         1 <0>         0.1258
     40 H13        -5.6962   -7.6518    3.2110 H         1 <0>         0.1320
     41 H14        -5.1983   -6.6814    1.0045 H         1 <0>         0.1328
     42 H15         1.2110    6.0992   -1.7554 H         1 <0>         0.4051
     43 H16         0.3148    7.8588   -2.8959 H         1 <0>         0.0769
     44 H17        -0.5443    8.9809   -1.8137 H         1 <0>         0.0978
     45 H18         1.0705    9.4023   -2.4325 H         1 <0>         0.0979
@<TRIPOS>BOND
     1    1    2 1
     2    1   29 1
     3    1   30 1
     4    1   31 1
     5    2    3 1
     6    2    4 1
     7    2   25 1
     8    4    5 3
     9    5    6 1
    10    6   10 1
    11    6    7 2
    12    7    8 1
    13    7   32 1
    14    8    9 2
    15    9   10 1
    16    9   11 1
    17   11   12 1
    18   12   17 ar
    19   12   13 ar
    20   13   14 ar
    21   13   33 1
    22   14   15 ar
    23   14   34 1
    24   15   16 ar
    25   15   18 1
    26   16   17 ar
    27   16   35 1
    28   17   36 1
    29   18   19 1
    30   19   24 ar
    31   19   20 ar
    32   20   21 ar
    33   20   37 1
    34   21   22 ar
    35   21   38 1
    36   22   23 ar
    37   22   39 1
    38   23   24 ar
    39   23   40 1
    40   24   41 1
    41   25   26 am
    42   25   42 1
    43   26   27 2
    44   26   28 1
    45   28   43 1
    46   28   44 1
    47   28   45 1
@<TRIPOS>MOLECULE
ZINC28951410
   41    43     0     0     0
SMALL
USER_CHARGES

@<TRIPOS>ATOM
      1 C1          0.5243    1.3906   -0.2432 C.3       1 <0>         0.0292
      2 O1          0.3867   -0.0311   -0.2003 O.3       1 <0>        -0.3022
      3 C2          0.8549   -0.7292   -1.2691 C.ar      1 <0>         0.1141
      4 C3          1.4389   -0.0583   -2.3321 C.ar      1 <0>        -0.1885
      5 C4          1.9154   -0.7631   -3.4191 C.ar      1 <0>        -0.0918
      6 C5          1.8110   -2.1525   -3.4504 C.ar      1 <0>        -0.0595
      7 C6          1.2249   -2.8296   -2.3829 C.ar      1 <0>        -0.1287
      8 C7          0.7522   -2.1193   -1.2919 C.ar      1 <0>         0.1544
      9 N1          0.1671   -2.7962   -0.2154 N.pl3     1 <0>        -1.0400
     10 S1         -0.7436   -4.1525   -0.4866 S.o2      1 <0>         2.7140
     11 O2          0.0632   -5.0372   -1.2518 O.2       1 <0>        -0.9864
     12 O3         -1.3036   -4.5228    0.7658 O.2       1 <0>        -0.9507
     13 C8         -2.0899   -3.6780   -1.5196 C.ar      1 <0>        -0.8011
     14 C9         -2.2002   -4.1995   -2.7946 C.ar      1 <0>         0.0463
     15 C10        -3.2565   -3.8273   -3.6066 C.ar      1 <0>        -0.1659
     16 C11        -4.2051   -2.9320   -3.1444 C.ar      1 <0>        -0.0191
     17 C12        -4.0985   -2.4080   -1.8699 C.ar      1 <0>        -0.1488
     18 C13        -3.0422   -2.7855   -1.0516 C.ar      1 <0>         0.3541
     19 O4         -2.9383   -2.2757    0.2044 O.3       1 <0>        -0.6458
     20 Cl1        -5.2882   -1.2845   -1.2901 Cl        1 <0>        -0.0882
     21 Cl2        -3.3919   -4.4838   -5.2080 Cl        1 <0>        -0.1039
     22 C14         2.3230   -2.9097   -4.6191 C.ar      1 <0>        -0.0299
     23 C15         2.2142   -4.2985   -4.6547 C.ar      1 <0>        -0.1099
     24 C16         2.6917   -4.9977   -5.7446 C.ar      1 <0>        -0.1154
     25 C17         3.2777   -4.3225   -6.8001 C.ar      1 <0>        -0.1269
     26 C18         3.3887   -2.9441   -6.7698 C.ar      1 <0>        -0.1214
     27 C19         2.9091   -2.2342   -5.6878 C.ar      1 <0>        -0.1159
     28 H1          1.5796    1.6512   -0.3238 H         1 <0>         0.0516
     29 H2         -0.0135    1.7817   -1.1069 H         1 <0>         0.0546
     30 H3          0.1117    1.8233    0.6682 H         1 <0>         0.0987
     31 H4          1.5208    1.0184   -2.3101 H         1 <0>         0.1316
     32 H5          2.3693   -0.2374   -4.2462 H         1 <0>         0.1269
     33 H6          1.1427   -3.9063   -2.4045 H         1 <0>         0.1705
     34 H7          0.2951   -2.4709    0.6894 H         1 <0>         0.4265
     35 H8         -1.4608   -4.8981   -3.1575 H         1 <0>         0.1289
     36 H9         -5.0288   -2.6423   -3.7799 H         1 <0>         0.1209
     37 H10         1.7575   -4.8267   -3.8308 H         1 <0>         0.1348
     38 H11         2.6080   -6.0741   -5.7732 H         1 <0>         0.1228
     39 H12         3.6504   -4.8737   -7.6508 H         1 <0>         0.1180
     40 H13         3.8475   -2.4220   -7.5965 H         1 <0>         0.1193
     41 H14         2.9918   -1.1575   -5.6673 H         1 <0>         0.1229
@<TRIPOS>BOND
     1    1    2 1
     2    1   28 1
     3    1   29 1
     4    1   30 1
     5    2    3 1
     6    3    8 ar
     7    3    4 ar
     8    4    5 ar
     9    4   31 1
    10    5    6 ar
    11    5   32 1
    12    6    7 ar
    13    6   22 1
    14    7    8 ar
    15    7   33 1
    16    8    9 1
    17    9   10 1
    18    9   34 1
    19   10   11 2
    20   10   12 2
    21   10   13 1
    22   13   18 ar
    23   13   14 ar
    24   14   15 ar
    25   14   35 1
    26   15   16 ar
    27   15   21 1
    28   16   17 ar
    29   16   36 1
    30   17   18 ar
    31   17   20 1
    32   18   19 1
    33   22   27 ar
    34   22   23 ar
    35   23   24 ar
    36   23   37 1
    37   24   25 ar
    38   24   38 1
    39   25   26 ar
    40   25   39 1
    41   26   27 ar
    42   26   40 1
    43   27   41 1
@<TRIPOS>MOLECULE
ZINC28951410
   42    44     0     0     0
SMALL
USER_CHARGES

@<TRIPOS>ATOM
      1 C1          0.6721    1.1157   -1.0400 C.3       1 <0>         0.0250
      2 O1          0.5215   -0.2796   -0.7707 O.3       1 <0>        -0.3125
      3 C2         -0.7365   -0.7903   -0.8446 C.ar      1 <0>         0.1164
      4 C3         -1.8002    0.0347   -1.1750 C.ar      1 <0>        -0.1746
      5 C4         -3.0789   -0.4797   -1.2511 C.ar      1 <0>        -0.0817
      6 C5         -3.3039   -1.8312   -0.9961 C.ar      1 <0>        -0.0419
      7 C6         -2.2363   -2.6630   -0.6642 C.ar      1 <0>        -0.1330
      8 C7         -0.9541   -2.1443   -0.5936 C.ar      1 <0>         0.1402
      9 N1          0.1216   -2.9775   -0.2652 N.pl3     1 <0>        -1.0439
     10 S1          0.1415   -4.5487   -0.7881 S.o2      1 <0>         2.6955
     11 O2         -0.2355   -4.5256   -2.1580 O.2       1 <0>        -0.9302
     12 O3          1.3704   -5.1084   -0.3455 O.2       1 <0>        -0.9203
     13 C8         -1.1386   -5.4004    0.0723 C.ar      1 <0>        -0.6915
     14 C9         -2.1954   -5.9500   -0.6284 C.ar      1 <0>        -0.0024
     15 C10        -3.2013   -6.6184    0.0462 C.ar      1 <0>        -0.0556
     16 C11        -3.1518   -6.7385    1.4239 C.ar      1 <0>        -0.0301
     17 C12        -2.0967   -6.1904    2.1286 C.ar      1 <0>        -0.0718
     18 C13        -1.0833   -5.5245    1.4522 C.ar      1 <0>         0.2283
     19 O4         -0.0416   -4.9893    2.1425 O.3       1 <0>        -0.4722
     20 Cl1        -2.0349   -6.3405    3.8570 Cl        1 <0>        -0.0240
     21 Cl2        -4.5278   -7.3072   -0.8369 Cl        1 <0>        -0.0312
     22 C14        -4.6784   -2.3836   -1.0775 C.ar      1 <0>        -0.0432
     23 C15        -4.9062   -3.7336   -0.8173 C.ar      1 <0>        -0.1142
     24 C16        -6.1870   -4.2420   -0.8940 C.ar      1 <0>        -0.1120
     25 C17        -7.2435   -3.4143   -1.2289 C.ar      1 <0>        -0.1164
     26 C18        -7.0231   -2.0737   -1.4887 C.ar      1 <0>        -0.1140
     27 C19        -5.7474   -1.5532   -1.4089 C.ar      1 <0>        -0.1090
     28 H1          1.7223    1.3924   -0.9471 H         1 <0>         0.1045
     29 H2          0.3281    1.3297   -2.0519 H         1 <0>         0.0597
     30 H3          0.0808    1.6893   -0.3263 H         1 <0>         0.0588
     31 H4         -1.6282    1.0824   -1.3730 H         1 <0>         0.1408
     32 H5         -3.9057    0.1658   -1.5080 H         1 <0>         0.1364
     33 H6         -2.4079   -3.7107   -0.4661 H         1 <0>         0.1328
     34 H7          0.8553   -2.6347    0.2686 H         1 <0>         0.4338
     35 H8         -2.2362   -5.8572   -1.7036 H         1 <0>         0.1695
     36 H9         -3.9383   -7.2604    1.9488 H         1 <0>         0.1615
     37 H10        -4.0819   -4.3808   -0.5564 H         1 <0>         0.1154
     38 H11        -6.3646   -5.2880   -0.6925 H         1 <0>         0.1235
     39 H12        -8.2441   -3.8164   -1.2882 H         1 <0>         0.1239
     40 H13        -7.8516   -1.4320   -1.7501 H         1 <0>         0.1259
     41 H14        -5.5771   -0.5053   -1.6071 H         1 <0>         0.1270
     42 H15        -0.1992   -4.0883    2.4563 H         1 <0>         0.4066
@<TRIPOS>BOND
     1    1    2 1
     2    1   28 1
     3    1   29 1
     4    1   30 1
     5    2    3 1
     6    3    8 ar
     7    3    4 ar
     8    4    5 ar
     9    4   31 1
    10    5    6 ar
    11    5   32 1
    12    6    7 ar
    13    6   22 1
    14    7    8 ar
    15    7   33 1
    16    8    9 1
    17    9   10 1
    18    9   34 1
    19   10   11 2
    20   10   12 2
    21   10   13 1
    22   13   18 ar
    23   13   14 ar
    24   14   15 ar
    25   14   35 1
    26   15   16 ar
    27   15   21 1
    28   16   17 ar
    29   16   36 1
    30   17   18 ar
    31   17   20 1
    32   18   19 1
    33   19   42 1
    34   22   27 ar
    35   22   23 ar
    36   23   24 ar
    37   23   37 1
    38   24   25 ar
    39   24   38 1
    40   25   26 ar
    41   25   39 1
    42   26   27 ar
    43   26   40 1
    44   27   41 1
