@<TRIPOS>MOLECULE
ZINC03872335
   31    31     0     0     0
SMALL
USER_CHARGES

@<TRIPOS>ATOM
      1 C1         -0.0167    1.3781    0.0096 C.ar      1 <0>        -0.1272
      2 C2          1.1709    2.0855    0.0021 C.ar      1 <0>        -0.1174
      3 C3          2.3773    1.4107   -0.0130 C.ar      1 <0>        -0.1135
      4 C4          2.3960    0.0285   -0.0201 C.ar      1 <0>        -0.0768
      5 C5          1.2084   -0.6789   -0.0117 C.ar      1 <0>        -0.1195
      6 C6          0.0021   -0.0041    0.0020 C.ar      1 <0>        -0.1201
      7 C7          3.7112   -0.7071   -0.0376 C.3       1 <0>        -0.0562
      8 C8          4.1714   -0.9633    1.3989 C.3       1 <0>        -0.0855
      9 H1          4.2087   -0.0191    1.9423 H         1 <0>         0.1072
     10 C9          3.1871   -1.9101    2.0886 C.3       1 <0>        -0.0744
     11 S1          3.6492   -2.0971    3.8327 S.3       1 <0>        -0.2155
     12 C10         5.5425   -1.5884    1.3832 C.2       1 <0>         0.5003
     13 O1          6.0971   -1.8074    0.3271 O.2       1 <0>        -0.5619
     14 N1          6.1525   -1.9040    2.5428 N.am      1 <0>        -0.6810
     15 C11         7.4855   -2.5117    2.5276 C.3       1 <0>         0.0474
     16 C12         7.9387   -2.7640    3.9425 C.2       1 <0>         0.4891
     17 O2          7.2154   -2.4640    4.8770 O.co2     1 <0>        -0.6823
     18 O3          9.0288   -3.2681    4.1527 O.co2     1 <0>        -0.6937
     19 H2         -0.9591    1.9053    0.0259 H         1 <0>         0.1184
     20 H3          1.1563    3.1654    0.0076 H         1 <0>         0.1207
     21 H4          3.3051    1.9634   -0.0196 H         1 <0>         0.1243
     22 H5          1.2231   -1.7588   -0.0176 H         1 <0>         0.1209
     23 H6         -0.9258   -0.5567    0.0082 H         1 <0>         0.1191
     24 H7          3.5884   -1.6586   -0.5549 H         1 <0>         0.0825
     25 H8          4.4573   -0.1052   -0.5563 H         1 <0>         0.0906
     26 H9          2.1799   -1.4989    2.0217 H         1 <0>         0.0963
     27 H10         3.2154   -2.8834    1.5988 H         1 <0>         0.0871
     28 H11         2.7241   -2.9397    4.3259 H         1 <0>         0.0791
     29 H12         5.7090   -1.7288    3.3875 H         1 <0>         0.4138
     30 H13         7.4482   -3.4558    1.9842 H         1 <0>         0.0641
     31 H14         8.1867   -1.8372    2.0363 H         1 <0>         0.0640
@<TRIPOS>BOND
     1    1    6 ar
     2    1    2 ar
     3    1   19 1
     4    2    3 ar
     5    2   20 1
     6    3    4 ar
     7    3   21 1
     8    4    5 ar
     9    4    7 1
    10    5    6 ar
    11    5   22 1
    12    6   23 1
    13    7    8 1
    14    7   24 1
    15    7   25 1
    16    8    9 1
    17    8   10 1
    18    8   12 1
    19   10   11 1
    20   10   26 1
    21   10   27 1
    22   11   28 1
    23   12   13 2
    24   12   14 am
    25   14   15 1
    26   14   29 1
    27   15   16 1
    28   15   30 1
    29   15   31 1
    30   16   17 2
    31   16   18 1
@<TRIPOS>MOLECULE
ZINC03872336
   31    31     0     0     0
SMALL
USER_CHARGES

@<TRIPOS>ATOM
      1 C1          2.6440   -5.2211    3.5972 C.ar      1 <0>        -0.1212
      2 C2          1.8857   -4.0804    3.7836 C.ar      1 <0>        -0.1206
      3 C3          2.0088   -3.0179    2.9080 C.ar      1 <0>        -0.1134
      4 C4          2.8905   -3.0957    1.8463 C.ar      1 <0>        -0.0882
      5 C5          3.6495   -4.2360    1.6604 C.ar      1 <0>        -0.1056
      6 C6          3.5254   -5.2991    2.5352 C.ar      1 <0>        -0.1162
      7 C7          3.0240   -1.9378    0.8911 C.3       1 <0>        -0.0676
      8 C8          4.0524   -0.9440    1.4350 C.3       1 <0>        -0.0844
      9 H1          3.7721   -0.6478    2.4458 H         1 <0>         0.0995
     10 C9          4.0930    0.2921    0.5342 C.3       1 <0>        -0.0511
     11 S1          2.5044    1.1626    0.6300 S.3       1 <0>        -0.2429
     12 C10         5.4126   -1.5921    1.4603 C.2       1 <0>         0.5147
     13 O1          5.9284   -1.9600    0.4261 O.2       1 <0>        -0.5596
     14 N1          6.0560   -1.7629    2.6322 N.am      1 <0>        -0.6892
     15 C11         7.3784   -2.3929    2.6568 C.3       1 <0>         0.0513
     16 C12         7.8746   -2.4640    4.0780 C.2       1 <0>         0.4902
     17 O2          7.1873   -2.0288    4.9861 O.co2     1 <0>        -0.6900
     18 O3          8.9633   -2.9568    4.3197 O.co2     1 <0>        -0.6896
     19 H2          2.5511   -6.0495    4.2839 H         1 <0>         0.1182
     20 H3          1.1968   -4.0196    4.6131 H         1 <0>         0.1193
     21 H4          1.4157   -2.1270    3.0532 H         1 <0>         0.1221
     22 H5          4.3382   -4.2970    0.8306 H         1 <0>         0.1208
     23 H6          4.1182   -6.1902    2.3897 H         1 <0>         0.1190
     24 H7          3.3524   -2.3048   -0.0813 H         1 <0>         0.0829
     25 H8          2.0595   -1.4411    0.7852 H         1 <0>         0.0933
     26 H9          4.8918    0.9562    0.8645 H         1 <0>         0.0885
     27 H10         4.2778   -0.0145   -0.4953 H         1 <0>         0.0961
     28 H11         2.6604    2.2156   -0.1921 H         1 <0>         0.0859
     29 H12         5.6435   -1.4686    3.4593 H         1 <0>         0.4084
     30 H13         7.3088   -3.3999    2.2454 H         1 <0>         0.0650
     31 H14         8.0730   -1.8032    2.0585 H         1 <0>         0.0645
@<TRIPOS>BOND
     1    1    6 ar
     2    1    2 ar
     3    1   19 1
     4    2    3 ar
     5    2   20 1
     6    3    4 ar
     7    3   21 1
     8    4    5 ar
     9    4    7 1
    10    5    6 ar
    11    5   22 1
    12    6   23 1
    13    7    8 1
    14    7   24 1
    15    7   25 1
    16    8    9 1
    17    8   10 1
    18    8   12 1
    19   10   11 1
    20   10   26 1
    21   10   27 1
    22   11   28 1
    23   12   13 2
    24   12   14 am
    25   14   15 1
    26   14   29 1
    27   15   16 1
    28   15   30 1
    29   15   31 1
    30   16   17 2
    31   16   18 1
@<TRIPOS>MOLECULE
ZINC26850590
   30    31     0     0     0
SMALL
USER_CHARGES
(2R,5S)-2-methyl-1,3-dioxo-2-(sulfanylmethyl)-5,6,7,8-tetrahydropyrazolo[1,2-a]pyridazine-5-carboxylic acid
@<TRIPOS>ATOM
      1 C1         -1.4993   -2.8762    0.9101 C.3       1 <0>        -0.1246
      2 C2         -0.5906   -2.2168   -0.1293 C.3       1 <0>        -0.1093
      3 C3         -1.0228   -0.7884   -0.3820 C.2       1 <0>         0.5335
      4 O1         -2.0842   -0.4221   -0.8405 O.2       1 <0>        -0.4832
      5 N1          0.0021   -0.0041    0.0020 N.am      1 <0>        -0.4204
      6 C4         -0.0179    1.4694    0.0101 C.3       1 <0>         0.1293
      7 C5          1.4285    1.9747   -0.0010 C.3       1 <0>        -0.1358
      8 C6          2.2106    1.2856    1.1216 C.3       1 <0>        -0.1108
      9 C7          2.4145   -0.1894    0.7603 C.3       1 <0>         0.1157
     10 H1          3.0913   -0.3030   -0.0994 H         1 <0>         0.0831
     11 N2          1.1064   -0.7684    0.4059 N.am      1 <0>        -0.4096
     12 C8          0.8189   -2.0838    0.4062 C.2       1 <0>         0.5410
     13 O2          1.5463   -2.9852    0.7656 O.2       1 <0>        -0.4428
     14 C9          2.9929   -0.9287    1.9392 C.2       1 <0>         0.4574
     15 O3          2.3819   -1.8447    2.4368 O.co2     1 <0>        -0.5917
     16 O4          4.1868   -0.5695    2.4366 O.co2     1 <0>        -0.7585
     17 C10        -0.5990   -3.0183   -1.4326 C.3       1 <0>        -0.0353
     18 S1         -2.2830   -3.0604   -2.1057 S.3       1 <0>        -0.1298
     19 H2         -2.5177   -2.9642    0.5037 H         1 <0>         0.0881
     20 H3         -1.5202   -2.2610    1.8218 H         1 <0>         0.0670
     21 H4         -1.1133   -3.8774    1.1521 H         1 <0>         0.0805
     22 H5         -0.5499    1.8338   -0.8811 H         1 <0>         0.0932
     23 H6         -0.5328    1.8242    0.9151 H         1 <0>         0.0758
     24 H7          1.8912    1.7407   -0.9711 H         1 <0>         0.0732
     25 H8          1.4378    3.0633    0.1566 H         1 <0>         0.0867
     26 H9          3.1883    1.7753    1.2414 H         1 <0>         0.0940
     27 H10         1.6452    1.3609    2.0621 H         1 <0>         0.0715
     28 H11         0.0749   -2.5423   -2.1601 H         1 <0>         0.0852
     29 H12        -0.2578   -4.0450   -1.2339 H         1 <0>         0.1033
     30 H13        -2.4865   -3.5946   -3.0455 H         1 <0>        -0.0267
@<TRIPOS>BOND
     1    1    2 1
     2    1   19 1
     3    1   20 1
     4    1   21 1
     5    2   12 1
     6    2    3 1
     7    2   17 1
     8    3    4 2
     9    3    5 am
    10    5   11 1
    11    5    6 1
    12    6    7 1
    13    6   22 1
    14    6   23 1
    15    7    8 1
    16    7   24 1
    17    7   25 1
    18    8    9 1
    19    8   26 1
    20    8   27 1
    21    9   10 1
    22    9   11 1
    23    9   14 1
    24   11   12 am
    25   12   13 2
    26   14   15 2
    27   14   16 1
    28   17   18 1
    29   17   28 1
    30   17   29 1
    31   18   30 1
@<TRIPOS>MOLECULE
ZINC26850597
   30    31     0     0     0
SMALL
USER_CHARGES
(2S,5S)-2-methyl-1,3-dioxo-2-(sulfanylmethyl)-5,6,7,8-tetrahydropyrazolo[1,2-a]pyridazine-5-carboxylic acid
@<TRIPOS>ATOM
      1 C1          1.7399    2.6283    1.2415 C.3       1 <0>        -0.1257
      2 C2          1.4288    1.7929   -0.0020 C.3       1 <0>        -0.1089
      3 C3         -0.0162    1.3423    0.0094 C.2       1 <0>         0.5338
      4 O1         -0.9979    2.0543    0.0182 O.2       1 <0>        -0.4834
      5 N1          0.0021   -0.0041    0.0020 N.am      1 <0>        -0.4206
      6 C4         -1.1912   -0.8648   -0.0820 C.3       1 <0>         0.1294
      7 C5         -0.8213   -2.2591    0.4345 C.3       1 <0>        -0.1356
      8 C6          0.4371   -2.7465   -0.2902 C.3       1 <0>        -0.1110
      9 C7          1.6416   -1.9291    0.1879 C.3       1 <0>         0.1160
     10 H1          1.8822   -2.1419    1.2400 H         1 <0>         0.0847
     11 N2          1.3132   -0.4977    0.0644 N.am      1 <0>        -0.4094
     12 C8          2.2160    0.5002    0.0167 C.2       1 <0>         0.5409
     13 O2          3.4231    0.3857   -0.0065 O.2       1 <0>        -0.4435
     14 C9          2.8417   -2.2488   -0.6656 C.2       1 <0>         0.4582
     15 O3          3.3726   -1.3772   -1.3124 O.co2     1 <0>        -0.5945
     16 O4          3.3209   -3.5020   -0.7073 O.co2     1 <0>        -0.7579
     17 C10         1.7327    2.5877   -1.2735 C.3       1 <0>        -0.0335
     18 S1          0.6900    4.0712   -1.3231 S.3       1 <0>        -0.1359
     19 H2          1.1596    3.5623    1.2103 H         1 <0>         0.0905
     20 H3          2.8140    2.8645    1.2652 H         1 <0>         0.0794
     21 H4          1.4698    2.0587    2.1429 H         1 <0>         0.0644
     22 H5         -1.9958   -0.4371    0.5342 H         1 <0>         0.0937
     23 H6         -1.5248   -0.9280   -1.1283 H         1 <0>         0.0746
     24 H7         -0.6289   -2.2102    1.5164 H         1 <0>         0.0744
     25 H8         -1.6516   -2.9541    0.2408 H         1 <0>         0.0865
     26 H9          0.6005   -3.8109   -0.0657 H         1 <0>         0.0944
     27 H10         0.3093   -2.6160   -1.3749 H         1 <0>         0.0704
     28 H11         2.7921    2.8839   -1.2763 H         1 <0>         0.1045
     29 H12         1.5242    1.9634   -2.1548 H         1 <0>         0.0887
     30 H13         0.7682    4.7704   -2.1687 H         1 <0>        -0.0246
@<TRIPOS>BOND
     1    1    2 1
     2    1   19 1
     3    1   20 1
     4    1   21 1
     5    2   12 1
     6    2    3 1
     7    2   17 1
     8    3    4 2
     9    3    5 am
    10    5   11 1
    11    5    6 1
    12    6    7 1
    13    6   22 1
    14    6   23 1
    15    7    8 1
    16    7   24 1
    17    7   25 1
    18    8    9 1
    19    8   26 1
    20    8   27 1
    21    9   10 1
    22    9   11 1
    23    9   14 1
    24   11   12 am
    25   12   13 2
    26   14   15 2
    27   14   16 1
    28   17   18 1
    29   17   28 1
    30   17   29 1
    31   18   30 1
@<TRIPOS>MOLECULE
ZINC26850605
   30    31     0     0     0
SMALL
USER_CHARGES
(2R,5R)-2-methyl-1,3-dioxo-2-(sulfanylmethyl)-5,6,7,8-tetrahydropyrazolo[1,2-a]pyridazine-5-carboxylic acid
@<TRIPOS>ATOM
      1 C1          3.0876    0.6916   -1.1572 C.3       1 <0>        -0.1254
      2 C2          2.1761    0.7263    0.0712 C.3       1 <0>        -0.1088
      3 C3          1.2302    1.9058    0.0005 C.2       1 <0>         0.5339
      4 O1          1.5356    3.0783   -0.0537 O.2       1 <0>        -0.4853
      5 N1         -0.0169    1.3981    0.0097 N.am      1 <0>        -0.4204
      6 C4         -1.2544    2.1976    0.0450 C.3       1 <0>         0.1292
      7 C5         -2.4106    1.3250   -0.4545 C.3       1 <0>        -0.1356
      8 C6         -2.4161    0.0047    0.3222 C.3       1 <0>        -0.1110
      9 C7         -1.2093   -0.8364   -0.1065 C.3       1 <0>         0.1159
     10 H1         -1.3048   -1.1787   -1.1475 H         1 <0>         0.0847
     11 N2          0.0021   -0.0041    0.0020 N.am      1 <0>        -0.4094
     12 C8          1.2596   -0.4782    0.0861 C.2       1 <0>         0.5408
     13 O2          1.5925   -1.6421    0.1587 O.2       1 <0>        -0.4433
     14 C9         -1.0818   -2.0363    0.7963 C.2       1 <0>         0.4583
     15 O3         -0.0860   -2.1871    1.4637 O.co2     1 <0>        -0.5945
     16 O4         -2.0746   -2.9374    0.8591 O.co2     1 <0>        -0.7578
     17 C10         3.0087    0.7826    1.3536 C.3       1 <0>        -0.0326
     18 S1          4.0952    2.2344    1.3060 S.3       1 <0>        -0.1380
     19 H2          3.7453    1.5733   -1.1508 H         1 <0>         0.0913
     20 H3          2.4735    0.6989   -2.0698 H         1 <0>         0.0642
     21 H4          3.6993   -0.2223   -1.1341 H         1 <0>         0.0799
     22 H5         -1.4498    2.5255    1.0767 H         1 <0>         0.0745
     23 H6         -1.1407    3.0782   -0.6043 H         1 <0>         0.0937
     24 H7         -3.3630    1.8516   -0.2947 H         1 <0>         0.0866
     25 H8         -2.2796    1.1218   -1.5276 H         1 <0>         0.0745
     26 H9         -2.3565    0.2134    1.4006 H         1 <0>         0.0704
     27 H10        -3.3445   -0.5442    0.1058 H         1 <0>         0.0944
     28 H11         2.3386    0.8545    2.2230 H         1 <0>         0.0881
     29 H12         3.6185   -0.1292    1.4352 H         1 <0>         0.1050
     30 H13         4.7727    2.4422    2.1473 H         1 <0>        -0.0235
@<TRIPOS>BOND
     1    1    2 1
     2    1   19 1
     3    1   20 1
     4    1   21 1
     5    2   12 1
     6    2    3 1
     7    2   17 1
     8    3    4 2
     9    3    5 am
    10    5   11 1
    11    5    6 1
    12    6    7 1
    13    6   22 1
    14    6   23 1
    15    7    8 1
    16    7   24 1
    17    7   25 1
    18    8    9 1
    19    8   26 1
    20    8   27 1
    21    9   10 1
    22    9   11 1
    23    9   14 1
    24   11   12 am
    25   12   13 2
    26   14   15 2
    27   14   16 1
    28   17   18 1
    29   17   28 1
    30   17   29 1
    31   18   30 1
@<TRIPOS>MOLECULE
ZINC26850611
   30    31     0     0     0
SMALL
USER_CHARGES
(2S,5R)-2-methyl-1,3-dioxo-2-(sulfanylmethyl)-5,6,7,8-tetrahydropyrazolo[1,2-a]pyridazine-5-carboxylic acid
@<TRIPOS>ATOM
      1 C1         -1.1630    4.4727   -1.0694 C.3       1 <0>        -0.1245
      2 C2         -0.6717    3.6653    0.1338 C.3       1 <0>        -0.1092
      3 C3          0.8389    3.5690    0.1271 C.2       1 <0>         0.5337
      4 O1          1.6248    4.4885    0.2151 O.2       1 <0>        -0.4832
      5 N1          1.1390    2.2622    0.0033 N.am      1 <0>        -0.4205
      6 C4          2.5007    1.7183   -0.1439 C.3       1 <0>         0.1292
      7 C5          2.4759    0.2359    0.2427 C.3       1 <0>        -0.1356
      8 C6          1.3598   -0.4682   -0.5353 C.3       1 <0>        -0.1110
      9 C7          0.0021   -0.0041    0.0020 C.3       1 <0>         0.1157
     10 H1         -0.1694   -0.3605    1.0284 H         1 <0>         0.0837
     11 N2         -0.0179    1.4694    0.0101 N.am      1 <0>        -0.4098
     12 C8         -1.1311    2.2267    0.0308 C.2       1 <0>         0.5407
     13 O2         -2.2771    1.8333   -0.0222 O.2       1 <0>        -0.4423
     14 C9         -1.0984   -0.5206   -0.8885 C.2       1 <0>         0.4571
     15 O3         -1.8273    0.2553   -1.4601 O.co2     1 <0>        -0.5917
     16 O4         -1.2689   -1.8426   -1.0468 O.co2     1 <0>        -0.7585
     17 C10        -1.1633    4.2931    1.4396 C.3       1 <0>        -0.0353
     18 S1         -0.5007    5.9752    1.5888 S.3       1 <0>        -0.1301
     19 H2         -0.8200    5.5138   -0.9771 H         1 <0>         0.0880
     20 H3         -2.2623    4.4503   -1.1018 H         1 <0>         0.0805
     21 H4         -0.7599    4.0345   -1.9943 H         1 <0>         0.0669
     22 H5          2.8287    1.8287   -1.1880 H         1 <0>         0.0754
     23 H6          3.1882    2.2672    0.5164 H         1 <0>         0.0933
     24 H7          3.4445   -0.2235   -0.0037 H         1 <0>         0.0866
     25 H8          2.2896    0.1417    1.3227 H         1 <0>         0.0734
     26 H9          1.4409   -0.2150   -1.6027 H         1 <0>         0.0713
     27 H10         1.4548   -1.5567   -0.4085 H         1 <0>         0.0941
     28 H11        -2.2626    4.3309    1.4371 H         1 <0>         0.1033
     29 H12        -0.8192    3.6866    2.2904 H         1 <0>         0.0853
     30 H13        -0.7475    6.5875    2.4687 H         1 <0>        -0.0266
@<TRIPOS>BOND
     1    1    2 1
     2    1   19 1
     3    1   20 1
     4    1   21 1
     5    2   12 1
     6    2    3 1
     7    2   17 1
     8    3    4 2
     9    3    5 am
    10    5   11 1
    11    5    6 1
    12    6    7 1
    13    6   22 1
    14    6   23 1
    15    7    8 1
    16    7   24 1
    17    7   25 1
    18    8    9 1
    19    8   26 1
    20    8   27 1
    21    9   10 1
    22    9   11 1
    23    9   14 1
    24   11   12 am
    25   12   13 2
    26   14   15 2
    27   14   16 1
    28   17   18 1
    29   17   28 1
    30   17   29 1
    31   18   30 1
@<TRIPOS>MOLECULE
ZINC03873144
   60    61     0     0     0
SMALL
USER_CHARGES

@<TRIPOS>ATOM
      1 C1          0.8139    2.2377    1.8298 C.ar      1 <0>        -0.1230
      2 C2          2.0721    2.7813    1.6496 C.ar      1 <0>        -0.1134
      3 C3          3.1394    1.9628    1.3307 C.ar      1 <0>        -0.1098
      4 C4          2.9487    0.6006    1.1925 C.ar      1 <0>        -0.0806
      5 C5          1.6907    0.0570    1.3736 C.ar      1 <0>        -0.1214
      6 C6          0.6231    0.8757    1.6911 C.ar      1 <0>        -0.1209
      7 C7          4.1121   -0.2916    0.8438 C.3       1 <0>        -0.0918
      8 C8          4.7869   -0.7753    2.1290 C.3       1 <0>        -0.1117
      9 C9          5.9680   -1.6811    1.7750 C.3       1 <0>        -0.0597
     10 H1          6.6430   -1.1519    1.1023 H         1 <0>         0.1480
     11 C10         6.7066   -2.0582    3.0333 C.2       1 <0>         0.4969
     12 O1          6.3868   -3.0597    3.6509 O.co2     1 <0>        -0.6926
     13 O2          7.6238   -1.3619    3.4338 O.co2     1 <0>        -0.6114
     14 N1          5.4725   -2.8964    1.1151 N.4       1 <0>        -0.4662
     15 C11         6.6112   -3.7100    0.6684 C.3       1 <0>         0.0129
     16 H2          7.2677   -3.9118    1.5147 H         1 <0>         0.1617
     17 C12         6.0989   -5.0321    0.0936 C.3       1 <0>        -0.1328
     18 C13         5.4388   -5.8500    1.2054 C.3       1 <0>        -0.1317
     19 C14         4.9266   -7.1721    0.6306 C.3       1 <0>        -0.1499
     20 C15         4.2665   -7.9899    1.7425 C.3       1 <0>        -0.0119
     21 N2          3.7746   -9.2594    1.1906 N.4       1 <0>        -0.6380
     22 C16         7.3761   -2.9632   -0.3938 C.2       1 <0>         0.5212
     23 O3          6.8049   -2.1604   -1.1010 O.2       1 <0>        -0.5276
     24 N3          8.6949   -3.1874   -0.5579 N.am      1 <0>        -0.5594
     25 C17         9.4870   -4.2101    0.1493 C.3       1 <0>         0.0890
     26 C18        10.6949   -4.4887   -0.7798 C.3       1 <0>        -0.1294
     27 C19        10.9891   -3.0725   -1.3411 C.3       1 <0>        -0.1125
     28 C20         9.5805   -2.4570   -1.4763 C.3       1 <0>         0.0629
     29 H3          9.2233   -2.5653   -2.5004 H         1 <0>         0.0746
     30 C21         9.6226   -0.9991   -1.0967 C.2       1 <0>         0.4911
     31 O4          9.4726   -0.6676    0.0669 O.co2     1 <0>        -0.6685
     32 O5          9.8066   -0.1512   -1.9533 O.co2     1 <0>        -0.6885
     33 H4         -0.0191    2.8767    2.0834 H         1 <0>         0.1215
     34 H5          2.2211    3.8455    1.7576 H         1 <0>         0.1247
     35 H6          4.1222    2.3875    1.1892 H         1 <0>         0.1278
     36 H7          1.5416   -1.0072    1.2653 H         1 <0>         0.1152
     37 H8         -0.3598    0.4510    1.8323 H         1 <0>         0.1199
     38 H9          3.7539   -1.1504    0.2761 H         1 <0>         0.0593
     39 H10         4.8309    0.2665    0.2438 H         1 <0>         0.0932
     40 H11         5.1450    0.0835    2.6967 H         1 <0>         0.1089
     41 H12         4.0681   -1.3333    2.7290 H         1 <0>         0.0782
     42 H13         4.9138   -3.4283    1.7655 H         1 <0>         0.4181
     43 H14         5.3692   -4.8291   -0.6903 H         1 <0>         0.0931
     44 H15         6.9340   -5.5944   -0.3242 H         1 <0>         0.1112
     45 H16         6.1685   -6.0530    1.9893 H         1 <0>         0.0999
     46 H17         4.6037   -5.2876    1.6232 H         1 <0>         0.0759
     47 H18         4.1969   -6.9691   -0.1532 H         1 <0>         0.0907
     48 H19         5.7616   -7.7344    0.2128 H         1 <0>         0.0944
     49 H20         4.9962   -8.1930    2.5263 H         1 <0>         0.1390
     50 H21         3.4314   -7.4276    2.1603 H         1 <0>         0.1361
     51 H22         3.0992   -9.0714    0.4650 H         1 <0>         0.4345
     52 H23         4.5477   -9.7799    0.8038 H         1 <0>         0.4357
     53 H24         9.8285   -3.8274    1.1111 H         1 <0>         0.0835
     54 H25         8.8983   -5.1169    0.2883 H         1 <0>         0.0657
     55 H26        11.5446   -4.8685   -0.2126 H         1 <0>         0.0855
     56 H27        10.4219   -5.1770   -1.5796 H         1 <0>         0.0718
     57 H28        11.5988   -2.4997   -0.6424 H         1 <0>         0.0812
     58 H29        11.4744   -3.1368   -2.3150 H         1 <0>         0.0809
     59 H30         3.3393   -9.7987    1.9238 H         1 <0>         0.4389
     60 H31         4.9088   -2.6405    0.3183 H         1 <0>         0.4099
@<TRIPOS>BOND
     1    1    6 ar
     2    1    2 ar
     3    1   33 1
     4    2    3 ar
     5    2   34 1
     6    3    4 ar
     7    3   35 1
     8    4    5 ar
     9    4    7 1
    10    5    6 ar
    11    5   36 1
    12    6   37 1
    13    7    8 1
    14    7   38 1
    15    7   39 1
    16    8    9 1
    17    8   40 1
    18    8   41 1
    19    9   10 1
    20    9   11 1
    21    9   14 1
    22   11   12 2
    23   11   13 1
    24   14   15 1
    25   14   42 1
    26   14   60 1
    27   15   16 1
    28   15   17 1
    29   15   22 1
    30   17   18 1
    31   17   43 1
    32   17   44 1
    33   18   19 1
    34   18   45 1
    35   18   46 1
    36   19   20 1
    37   19   47 1
    38   19   48 1
    39   20   21 1
    40   20   49 1
    41   20   50 1
    42   21   51 1
    43   21   52 1
    44   21   59 1
    45   22   23 2
    46   22   24 am
    47   24   28 1
    48   24   25 1
    49   25   26 1
    50   25   53 1
    51   25   54 1
    52   26   27 1
    53   26   55 1
    54   26   56 1
    55   27   28 1
    56   27   57 1
    57   27   58 1
    58   28   29 1
    59   28   30 1
    60   30   31 2
    61   30   32 1
@<TRIPOS>MOLECULE
ZINC03873145
   60    61     0     0     0
SMALL
USER_CHARGES

@<TRIPOS>ATOM
      1 C1          1.3623    2.3395   -1.0002 C.ar      1 <0>        -0.1191
      2 C2          2.7100    2.6134   -0.8604 C.ar      1 <0>        -0.1177
      3 C3          3.6194    1.5770   -0.7615 C.ar      1 <0>        -0.1199
      4 C4          3.1810    0.2666   -0.8020 C.ar      1 <0>        -0.0881
      5 C5          1.8332   -0.0073   -0.9408 C.ar      1 <0>        -0.1118
      6 C6          0.9240    1.0291   -1.0412 C.ar      1 <0>        -0.1136
      7 C7          4.1725   -0.8632   -0.6951 C.3       1 <0>        -0.0872
      8 C8          4.3596   -1.2402    0.7758 C.3       1 <0>        -0.1187
      9 C9          5.3662   -2.3873    0.8843 C.3       1 <0>        -0.0605
     10 H1          5.0379   -3.2190    0.2608 H         1 <0>         0.1284
     11 C10         5.4586   -2.8406    2.3185 C.2       1 <0>         0.4873
     12 O1          4.8239   -3.8119    2.6930 O.co2     1 <0>        -0.6212
     13 O2          6.1681   -2.2360    3.1044 O.co2     1 <0>        -0.6465
     14 N1          6.6850   -1.9261    0.4306 N.4       1 <0>        -0.4832
     15 C11         7.5941   -3.0747    0.3200 C.3       1 <0>         0.0202
     16 H2          7.1278   -3.8499   -0.2879 H         1 <0>         0.1528
     17 C12         8.9017   -2.6287   -0.3375 C.3       1 <0>        -0.1565
     18 C13         8.6163   -2.1355   -1.7574 C.3       1 <0>        -0.1301
     19 C14         9.9239   -1.6895   -2.4149 C.3       1 <0>        -0.1534
     20 C15         9.6384   -1.1963   -3.8348 C.3       1 <0>        -0.0102
     21 N2         10.8939   -0.7681   -4.4660 N.4       1 <0>        -0.6383
     22 C16         7.8836   -3.6203    1.6946 C.2       1 <0>         0.5249
     23 O3          7.4610   -4.7109    2.0154 O.2       1 <0>        -0.4743
     24 N3          8.6121   -2.8964    2.5673 N.am      1 <0>        -0.5488
     25 C17         9.1068   -1.5257    2.3442 C.3       1 <0>         0.1120
     26 C18         9.3044   -0.9394    3.7644 C.3       1 <0>        -0.1275
     27 C19         9.8247   -2.1767    4.5426 C.3       1 <0>        -0.1083
     28 C20         9.0396   -3.3406    3.9020 C.3       1 <0>         0.0792
     29 H3          8.1673   -3.5807    4.5099 H         1 <0>         0.0823
     30 C21         9.9306   -4.5497    3.7789 C.2       1 <0>         0.4995
     31 O4         10.6265   -4.6958    2.7885 O.co2     1 <0>        -0.7025
     32 O5          9.9554   -5.3819    4.6696 O.co2     1 <0>        -0.6847
     33 H4          0.6514    3.1492   -1.0730 H         1 <0>         0.1236
     34 H5          3.0525    3.6372   -0.8288 H         1 <0>         0.1227
     35 H6          4.6724    1.7910   -0.6530 H         1 <0>         0.1170
     36 H7          1.4908   -1.0311   -0.9728 H         1 <0>         0.1250
     37 H8         -0.1290    0.8150   -1.1501 H         1 <0>         0.1252
     38 H9          3.8005   -1.7265   -1.2470 H         1 <0>         0.0846
     39 H10         5.1284   -0.5487   -1.1140 H         1 <0>         0.0554
     40 H11         4.7316   -0.3770    1.3277 H         1 <0>         0.0850
     41 H12         3.4037   -1.5548    1.1947 H         1 <0>         0.1092
     42 H13         6.5940   -1.4812   -0.4705 H         1 <0>         0.3926
     43 H14         9.3445   -1.8211    0.2455 H         1 <0>         0.1037
     44 H15         9.5937   -3.4699   -0.3773 H         1 <0>         0.1248
     45 H16         8.1735   -2.9430   -2.3404 H         1 <0>         0.0912
     46 H17         7.9242   -1.2943   -1.7176 H         1 <0>         0.0663
     47 H18        10.3667   -0.8819   -1.8319 H         1 <0>         0.0951
     48 H19        10.6159   -2.5307   -2.4546 H         1 <0>         0.1001
     49 H20         9.1956   -2.0038   -4.4178 H         1 <0>         0.1357
     50 H21         8.9464   -0.3551   -3.7950 H         1 <0>         0.1332
     51 H22        11.3038   -0.0205   -3.9264 H         1 <0>         0.4362
     52 H23        11.5345   -1.5467   -4.5029 H         1 <0>         0.4378
     53 H24        10.0553   -1.5474    1.8075 H         1 <0>         0.0679
     54 H25         8.3706   -0.9419    1.7918 H         1 <0>         0.0339
     55 H26        10.0468   -0.1414    3.7578 H         1 <0>         0.0746
     56 H27         8.3587   -0.5877    4.1769 H         1 <0>         0.0854
     57 H28        10.8972   -2.3025    4.3945 H         1 <0>         0.0710
     58 H29         9.5881   -2.0926    5.6033 H         1 <0>         0.0783
     59 H30        10.7057   -0.4428   -5.4024 H         1 <0>         0.4382
     60 H31         7.0574   -1.2652    1.0959 H         1 <0>         0.4222
@<TRIPOS>BOND
     1    1    6 ar
     2    1    2 ar
     3    1   33 1
     4    2    3 ar
     5    2   34 1
     6    3    4 ar
     7    3   35 1
     8    4    5 ar
     9    4    7 1
    10    5    6 ar
    11    5   36 1
    12    6   37 1
    13    7    8 1
    14    7   38 1
    15    7   39 1
    16    8    9 1
    17    8   40 1
    18    8   41 1
    19    9   10 1
    20    9   11 1
    21    9   14 1
    22   11   12 2
    23   11   13 1
    24   14   15 1
    25   14   42 1
    26   14   60 1
    27   15   16 1
    28   15   17 1
    29   15   22 1
    30   17   18 1
    31   17   43 1
    32   17   44 1
    33   18   19 1
    34   18   45 1
    35   18   46 1
    36   19   20 1
    37   19   47 1
    38   19   48 1
    39   20   21 1
    40   20   49 1
    41   20   50 1
    42   21   51 1
    43   21   52 1
    44   21   59 1
    45   22   23 2
    46   22   24 am
    47   24   28 1
    48   24   25 1
    49   25   26 1
    50   25   53 1
    51   25   54 1
    52   26   27 1
    53   26   55 1
    54   26   56 1
    55   27   28 1
    56   27   57 1
    57   27   58 1
    58   28   29 1
    59   28   30 1
    60   30   31 2
    61   30   32 1
@<TRIPOS>MOLECULE
ZINC03873146
   60    61     0     0     0
SMALL
USER_CHARGES

@<TRIPOS>ATOM
      1 C1         -0.1187   -0.8169    4.5896 C.ar      1 <0>        -0.1235
      2 C2          0.3207   -1.9887    5.1766 C.ar      1 <0>        -0.1149
      3 C3          1.4556   -2.6175    4.6996 C.ar      1 <0>        -0.1111
      4 C4          2.1508   -2.0748    3.6352 C.ar      1 <0>        -0.0812
      5 C5          1.7109   -0.9034    3.0476 C.ar      1 <0>        -0.1209
      6 C6          0.5768   -0.2739    3.5255 C.ar      1 <0>        -0.1200
      7 C7          3.3886   -2.7597    3.1158 C.3       1 <0>        -0.0879
      8 C8          2.9991   -3.7562    2.0221 C.3       1 <0>        -0.1098
      9 C9          4.2558   -4.4516    1.4948 C.3       1 <0>        -0.0682
     10 H1          4.7948   -4.9069    2.3256 H         1 <0>         0.1582
     11 C10         3.8620   -5.5189    0.5064 C.2       1 <0>         0.5067
     12 O1          3.5589   -5.2118   -0.6339 O.co2     1 <0>        -0.6827
     13 O2          3.8466   -6.6895    0.8471 O.co2     1 <0>        -0.6284
     14 N1          5.1197   -3.4654    0.8322 N.4       1 <0>        -0.4714
     15 C11         6.4874   -3.9940    0.7430 C.3       1 <0>         0.0199
     16 H2          7.1214   -3.2756    0.2233 H         1 <0>         0.1454
     17 C12         6.4743   -5.3148   -0.0291 C.3       1 <0>        -0.1675
     18 C13         6.0997   -5.0488   -1.4885 C.3       1 <0>        -0.1286
     19 C14         5.9673   -6.3795   -2.2318 C.3       1 <0>        -0.1431
     20 C15         5.5928   -6.1134   -3.6912 C.3       1 <0>        -0.0041
     21 N2          5.4656   -7.3911   -4.4049 N.4       1 <0>        -0.6373
     22 C16         7.0268   -4.2286    2.1305 C.2       1 <0>         0.5173
     23 O3          6.3461   -3.9634    3.0986 O.2       1 <0>        -0.5145
     24 N3          8.2656   -4.7331    2.2955 N.am      1 <0>        -0.5630
     25 C17         9.1984   -5.0923    1.2119 C.3       1 <0>         0.0920
     26 C18        10.6048   -5.0114    1.8562 C.3       1 <0>        -0.1325
     27 C19        10.3254   -5.5530    3.2830 C.3       1 <0>        -0.1120
     28 C20         8.9130   -5.0103    3.5861 C.3       1 <0>         0.0630
     29 H3          8.9838   -4.0926    4.1700 H         1 <0>         0.0756
     30 C21         8.1215   -6.0442    4.3448 C.2       1 <0>         0.4960
     31 O4          7.4842   -6.8892    3.7395 O.co2     1 <0>        -0.6791
     32 O5          8.1184   -6.0356    5.5640 O.co2     1 <0>        -0.6852
     33 H4         -1.0079   -0.3281    4.9594 H         1 <0>         0.1212
     34 H5         -0.2225   -2.4128    6.0082 H         1 <0>         0.1237
     35 H6          1.7993   -3.5327    5.1588 H         1 <0>         0.1262
     36 H7          2.2542   -0.4792    2.2162 H         1 <0>         0.1168
     37 H8          0.2333    0.6415    3.0666 H         1 <0>         0.1206
     38 H9          4.0698   -2.0154    2.7034 H         1 <0>         0.0593
     39 H10         3.8801   -3.2895    3.9318 H         1 <0>         0.0970
     40 H11         2.3179   -4.5005    2.4345 H         1 <0>         0.1024
     41 H12         2.5075   -3.2264    1.2062 H         1 <0>         0.0782
     42 H13         4.7692   -3.2809   -0.0958 H         1 <0>         0.4223
     43 H14         7.4632   -5.7712    0.0148 H         1 <0>         0.1071
     44 H15         5.7429   -5.9890    0.4166 H         1 <0>         0.1342
     45 H16         5.1506   -4.5143   -1.5284 H         1 <0>         0.1079
     46 H17         6.8764   -4.4456   -1.9588 H         1 <0>         0.0637
     47 H18         6.9164   -6.9140   -2.1920 H         1 <0>         0.0791
     48 H19         5.1906   -6.9826   -1.7616 H         1 <0>         0.1064
     49 H20         4.6436   -5.5789   -3.7311 H         1 <0>         0.1371
     50 H21         6.3694   -5.5103   -4.1615 H         1 <0>         0.1260
     51 H22         6.3442   -7.8859   -4.3680 H         1 <0>         0.4321
     52 H23         4.7467   -7.9494   -3.9696 H         1 <0>         0.4390
     53 H24         8.9998   -6.1048    0.8605 H         1 <0>         0.0774
     54 H25         9.1164   -4.3815    0.3896 H         1 <0>         0.0689
     55 H26        11.3138   -5.6490    1.3281 H         1 <0>         0.0840
     56 H27        10.9595   -3.9813    1.8919 H         1 <0>         0.0750
     57 H28        10.3334   -6.6430    3.2902 H         1 <0>         0.0790
     58 H29        11.0494   -5.1563    3.9948 H         1 <0>         0.0815
     59 H30         5.2186   -7.2156   -5.3673 H         1 <0>         0.4332
     60 H31         5.1241   -2.6094    1.3664 H         1 <0>         0.4137
@<TRIPOS>BOND
     1    1    6 ar
     2    1    2 ar
     3    1   33 1
     4    2    3 ar
     5    2   34 1
     6    3    4 ar
     7    3   35 1
     8    4    5 ar
     9    4    7 1
    10    5    6 ar
    11    5   36 1
    12    6   37 1
    13    7    8 1
    14    7   38 1
    15    7   39 1
    16    8    9 1
    17    8   40 1
    18    8   41 1
    19    9   10 1
    20    9   11 1
    21    9   14 1
    22   11   12 2
    23   11   13 1
    24   14   15 1
    25   14   42 1
    26   14   60 1
    27   15   16 1
    28   15   17 1
    29   15   22 1
    30   17   18 1
    31   17   43 1
    32   17   44 1
    33   18   19 1
    34   18   45 1
    35   18   46 1
    36   19   20 1
    37   19   47 1
    38   19   48 1
    39   20   21 1
    40   20   49 1
    41   20   50 1
    42   21   51 1
    43   21   52 1
    44   21   59 1
    45   22   23 2
    46   22   24 am
    47   24   28 1
    48   24   25 1
    49   25   26 1
    50   25   53 1
    51   25   54 1
    52   26   27 1
    53   26   55 1
    54   26   56 1
    55   27   28 1
    56   27   57 1
    57   27   58 1
    58   28   29 1
    59   28   30 1
    60   30   31 2
    61   30   32 1
@<TRIPOS>MOLECULE
ZINC03873147
   60    61     0     0     0
SMALL
USER_CHARGES

@<TRIPOS>ATOM
      1 C1         -0.0167    1.3781    0.0096 C.ar      1 <0>        -0.1226
      2 C2          1.1709    2.0855    0.0021 C.ar      1 <0>        -0.1198
      3 C3          2.3773    1.4107   -0.0130 C.ar      1 <0>        -0.1209
      4 C4          2.3960    0.0285   -0.0201 C.ar      1 <0>        -0.0815
      5 C5          1.2084   -0.6789   -0.0117 C.ar      1 <0>        -0.1105
      6 C6          0.0021   -0.0041    0.0020 C.ar      1 <0>        -0.1140
      7 C7          3.7112   -0.7071   -0.0376 C.3       1 <0>        -0.0915
      8 C8          4.1714   -0.9633    1.3989 C.3       1 <0>        -0.1106
      9 C9          5.5066   -1.7102    1.3812 C.3       1 <0>        -0.0649
     10 H1          5.4065   -2.6193    0.7882 H         1 <0>         0.1548
     11 C10         5.8993   -2.0705    2.7908 C.2       1 <0>         0.4995
     12 O1          5.2738   -2.9220    3.3991 O.co2     1 <0>        -0.6300
     13 O2          6.8426   -1.5105    3.3228 O.co2     1 <0>        -0.6863
     14 N1          6.5405   -0.8508    0.7893 N.4       1 <0>        -0.4642
     15 C11         7.7929   -1.6080    0.6622 C.3       1 <0>         0.0118
     16 H2          8.0709   -2.0162    1.6340 H         1 <0>         0.1763
     17 C12         8.9018   -0.6797    0.1628 C.3       1 <0>        -0.1426
     18 C13         9.1825    0.3928    1.2173 C.3       1 <0>        -0.1274
     19 C14        10.2914    1.3211    0.7178 C.3       1 <0>        -0.1520
     20 C15        10.5721    2.3936    1.7723 C.3       1 <0>        -0.0109
     21 N2         11.6368    3.2850    1.2928 N.4       1 <0>        -0.6382
     22 C16         7.6010   -2.7350   -0.3197 C.2       1 <0>         0.5202
     23 O3          6.5268   -2.8919   -0.8604 O.2       1 <0>        -0.5206
     24 N3          8.6232   -3.5685   -0.5970 N.am      1 <0>        -0.5638
     25 C17         9.9736   -3.4971   -0.0099 C.3       1 <0>         0.0908
     26 C18        10.5362   -4.9351   -0.1330 C.3       1 <0>        -0.1333
     27 C19         9.9621   -5.3778   -1.5048 C.3       1 <0>        -0.1112
     28 C20         8.5743   -4.7035   -1.5302 C.3       1 <0>         0.0626
     29 H3          7.8098   -5.4124   -1.2121 H         1 <0>         0.0772
     30 C21         8.2726   -4.2102   -2.9218 C.2       1 <0>         0.5017
     31 O4          8.6335   -3.0976   -3.2658 O.co2     1 <0>        -0.6935
     32 O5          7.6675   -4.9237   -3.7037 O.co2     1 <0>        -0.6816
     33 H4         -0.9591    1.9053    0.0259 H         1 <0>         0.1218
     34 H5          1.1563    3.1654    0.0076 H         1 <0>         0.1205
     35 H6          3.3051    1.9634   -0.0196 H         1 <0>         0.1158
     36 H7          1.2231   -1.7588   -0.0176 H         1 <0>         0.1262
     37 H8         -0.9258   -0.5567    0.0082 H         1 <0>         0.1243
     38 H9          3.5884   -1.6586   -0.5549 H         1 <0>         0.0933
     39 H10         4.4573   -0.1052   -0.5563 H         1 <0>         0.0605
     40 H11         4.2941   -0.0118    1.9163 H         1 <0>         0.0748
     41 H12         3.4252   -1.5652    1.9176 H         1 <0>         0.1109
     42 H13         6.2398   -0.5425   -0.1232 H         1 <0>         0.4109
     43 H14         9.8075   -1.2591   -0.0162 H         1 <0>         0.1185
     44 H15         8.5861   -0.2030   -0.7652 H         1 <0>         0.0939
     45 H16         8.2767    0.9722    1.3963 H         1 <0>         0.0713
     46 H17         9.4982   -0.0839    2.1453 H         1 <0>         0.0992
     47 H18        11.1971    0.7418    0.5388 H         1 <0>         0.0956
     48 H19         9.9757    1.7978   -0.2102 H         1 <0>         0.0918
     49 H20         9.6663    2.9730    1.9513 H         1 <0>         0.1345
     50 H21        10.8878    1.9170    2.7003 H         1 <0>         0.1379
     51 H22        12.4752    2.7486    1.1271 H         1 <0>         0.4361
     52 H23        11.3445    3.7262    0.4337 H         1 <0>         0.4351
     53 H24        10.5943   -2.7977   -0.5701 H         1 <0>         0.0739
     54 H25         9.9168   -3.2003    1.0374 H         1 <0>         0.0733
     55 H26        11.6260   -4.9283   -0.1494 H         1 <0>         0.0842
     56 H27        10.1631   -5.5707    0.6701 H         1 <0>         0.0784
     57 H28        10.5870   -5.0133   -2.3201 H         1 <0>         0.0775
     58 H29         9.8623   -6.4623   -1.5492 H         1 <0>         0.0822
     59 H30        11.8219    3.9923    1.9882 H         1 <0>         0.4379
     60 H31         6.6912   -0.0486    1.3825 H         1 <0>         0.4168
@<TRIPOS>BOND
     1    1    6 ar
     2    1    2 ar
     3    1   33 1
     4    2    3 ar
     5    2   34 1
     6    3    4 ar
     7    3   35 1
     8    4    5 ar
     9    4    7 1
    10    5    6 ar
    11    5   36 1
    12    6   37 1
    13    7    8 1
    14    7   38 1
    15    7   39 1
    16    8    9 1
    17    8   40 1
    18    8   41 1
    19    9   10 1
    20    9   11 1
    21    9   14 1
    22   11   12 2
    23   11   13 1
    24   14   15 1
    25   14   42 1
    26   14   60 1
    27   15   16 1
    28   15   17 1
    29   15   22 1
    30   17   18 1
    31   17   43 1
    32   17   44 1
    33   18   19 1
    34   18   45 1
    35   18   46 1
    36   19   20 1
    37   19   47 1
    38   19   48 1
    39   20   21 1
    40   20   49 1
    41   20   50 1
    42   21   51 1
    43   21   52 1
    44   21   59 1
    45   22   23 2
    46   22   24 am
    47   24   28 1
    48   24   25 1
    49   25   26 1
    50   25   53 1
    51   25   54 1
    52   26   27 1
    53   26   55 1
    54   26   56 1
    55   27   28 1
    56   27   57 1
    57   27   58 1
    58   28   29 1
    59   28   30 1
    60   30   31 2
    61   30   32 1
@<TRIPOS>MOLECULE
ZINC03820336
   51    52     0     0     0
SMALL
USER_CHARGES
2-[2,2-dimethyl-7-oxo-6-(3-phenyl-2-sulfanyl-propanoyl)amino-azepan-1-yl]acetic acid
@<TRIPOS>ATOM
      1 C1          4.1493    3.6545    3.3466 C.3       1 <0>        -0.1630
      2 C2          4.1187    2.9220    1.9887 C.3       1 <0>         0.1739
      3 C3          3.3274    3.7835    1.0147 C.3       1 <0>        -0.1223
      4 C4          3.5857    3.4336   -0.4409 C.3       1 <0>        -0.1172
      5 C5          3.5476    1.9503   -0.7431 C.3       1 <0>        -0.1320
      6 C6          2.3943    1.2562   -0.0299 C.3       1 <0>         0.1467
      7 H1          2.1903    0.3082   -0.5620 H         1 <0>         0.1129
      8 C7          2.7473    0.9131    1.3810 C.2       1 <0>         0.5012
      9 O1          2.3006   -0.1375    1.8208 O.2       1 <0>        -0.5457
     10 N1          3.4946    1.6249    2.2100 N.am      1 <0>        -0.5541
     11 C8          3.7251    1.0233    3.5351 C.3       1 <0>         0.0462
     12 C9          4.9137    0.0995    3.4674 C.2       1 <0>         0.4588
     13 O2          5.5084   -0.0446    2.4255 O.co2     1 <0>        -0.6265
     14 N2          1.1738    2.0567   -0.0855 N.am      1 <0>        -0.7030
     15 C10        -0.0300    1.4506   -0.0875 C.2       1 <0>         0.5130
     16 O3         -0.0998    0.2407   -0.0431 O.2       1 <0>        -0.5094
     17 C11        -1.2891    2.2763   -0.1511 C.3       1 <0>        -0.0547
     18 H2         -1.0925    3.2702    0.2507 H         1 <0>         0.1349
     19 C12        -2.3849    1.5997    0.6750 C.3       1 <0>        -0.0675
     20 C13        -3.6042    2.4846    0.7126 C.ar      1 <0>        -0.0819
     21 C14        -3.7495    3.4185    1.7214 C.ar      1 <0>        -0.1119
     22 C15        -4.8654    4.2338    1.7529 C.ar      1 <0>        -0.1222
     23 C16        -5.8414    4.1073    0.7822 C.ar      1 <0>        -0.1207
     24 C17        -5.6986    3.1698   -0.2235 C.ar      1 <0>        -0.1216
     25 C18        -4.5800    2.3584   -0.2583 C.ar      1 <0>        -0.0898
     26 S1         -1.8327    2.4180   -1.8760 S.3       1 <0>        -0.1950
     27 C19         5.5639    2.7471    1.5287 C.3       1 <0>        -0.1537
     28 H3          4.8495    3.1526    4.0145 H         1 <0>         0.0713
     29 H4          4.4671    4.6862    3.1958 H         1 <0>         0.0642
     30 H5          3.1531    3.6421    3.7887 H         1 <0>         0.0591
     31 H6          2.2617    3.7187    1.2474 H         1 <0>         0.0635
     32 H7          3.6140    4.8382    1.1771 H         1 <0>         0.0781
     33 H8          2.8314    3.9407   -1.0659 H         1 <0>         0.0618
     34 H9          4.5559    3.8437   -0.7536 H         1 <0>         0.0735
     35 H10         4.4923    1.4703   -0.4818 H         1 <0>         0.0964
     36 H11         3.4167    1.8156   -1.8311 H         1 <0>         0.0738
     37 H12         3.9182    1.8112    4.2631 H         1 <0>         0.0885
     38 H13         2.8427    0.4587    3.8362 H         1 <0>         0.0869
     39 H14         1.2297    3.0244   -0.1210 H         1 <0>         0.4021
     40 H15        -2.6440    0.6433    0.2209 H         1 <0>         0.0842
     41 H16        -2.0246    1.4342    1.6903 H         1 <0>         0.0915
     42 H17        -2.9892    3.5140    2.4825 H         1 <0>         0.1216
     43 H18        -4.9768    4.9665    2.5385 H         1 <0>         0.1204
     44 H19        -6.7154    4.7413    0.8094 H         1 <0>         0.1187
     45 H20        -6.4612    3.0710   -0.9819 H         1 <0>         0.1200
     46 H21        -4.4686    1.6257   -1.0439 H         1 <0>         0.1185
     47 H22        -2.0415    1.1451   -2.2570 H         1 <0>         0.0941
     48 H23         5.5827    2.1811    0.5973 H         1 <0>         0.0641
     49 H24         6.0151    3.7262    1.3680 H         1 <0>         0.0516
     50 H25         6.1257    2.2090    2.2922 H         1 <0>         0.0750
     51 O4          5.3118   -0.5634    4.5646 O.co2     1 <0>        -0.7745
@<TRIPOS>BOND
     1    1    2 1
     2    1   28 1
     3    1   29 1
     4    1   30 1
     5    2   10 1
     6    2    3 1
     7    2   27 1
     8    3    4 1
     9    3   31 1
    10    3   32 1
    11    4    5 1
    12    4   33 1
    13    4   34 1
    14    5    6 1
    15    5   35 1
    16    5   36 1
    17    6    7 1
    18    6    8 1
    19    6   14 1
    20    8    9 2
    21    8   10 am
    22   10   11 1
    23   11   12 1
    24   11   37 1
    25   11   38 1
    26   12   13 2
    27   12   51 1
    28   14   15 am
    29   14   39 1
    30   15   16 2
    31   15   17 1
    32   17   18 1
    33   17   19 1
    34   17   26 1
    35   19   20 1
    36   19   40 1
    37   19   41 1
    38   20   25 ar
    39   20   21 ar
    40   21   22 ar
    41   21   42 1
    42   22   23 ar
    43   22   43 1
    44   23   24 ar
    45   23   44 1
    46   24   25 ar
    47   24   45 1
    48   25   46 1
    49   26   47 1
    50   27   48 1
    51   27   49 1
    52   27   50 1
@<TRIPOS>MOLECULE
ZINC03814167
   25    25     0     0     0
SMALL
USER_CHARGES
1-(3-sulfanylpropanoyl)pyrrolidine-2-carboxylic acid
@<TRIPOS>ATOM
      1 C1         -0.8250    1.6304   -1.1965 C.3       1 <0>        -0.1342
      2 C2         -0.0127    1.0858    0.0080 C.3       1 <0>        -0.1050
      3 C3         -0.7976    1.6145    1.2270 C.3       1 <0>         0.0920
      4 H1         -1.4676    0.8402    1.6007 H         1 <0>         0.0736
      5 N1         -1.5807    2.7750    0.7685 N.am      1 <0>        -0.5974
      6 C4         -1.2939    3.0056   -0.6591 C.3       1 <0>         0.0998
      7 C5         -2.4187    3.5066    1.5294 C.2       1 <0>         0.5366
      8 O1         -2.5791    3.2244    2.6980 O.2       1 <0>        -0.5292
      9 C6         -3.1565    4.6750    0.9283 C.3       1 <0>        -0.1165
     10 C7         -4.0341    5.3288    1.9975 C.3       1 <0>        -0.0444
     11 S1         -4.9222    6.7353    1.2738 S.3       1 <0>        -0.2622
     12 C8          0.1613    2.0337    2.3114 C.2       1 <0>         0.4621
     13 O2          0.1863    3.1826    2.6847 O.co2     1 <0>        -0.6195
     14 H2         -0.1898    1.7499   -2.0742 H         1 <0>         0.0792
     15 H3         -1.6762    0.9862   -1.4170 H         1 <0>         0.0721
     16 H4          0.0021   -0.0041    0.0020 H         1 <0>         0.0780
     17 H5          1.0020    1.4839    0.0005 H         1 <0>         0.0745
     18 H6         -0.5029    3.7469   -0.7723 H         1 <0>         0.0657
     19 H7         -2.1953    3.3290   -1.1797 H         1 <0>         0.0714
     20 H8         -2.4382    5.4037    0.5524 H         1 <0>         0.1009
     21 H9         -3.7830    4.3258    0.1076 H         1 <0>         0.0972
     22 H10        -4.7524    4.6001    2.3734 H         1 <0>         0.0906
     23 H11        -3.4075    5.6780    2.8182 H         1 <0>         0.0945
     24 H12        -5.6496    7.2213    2.2954 H         1 <0>         0.0913
     25 O3          0.9874    1.1308    2.8626 O.co2     1 <0>        -0.7711
@<TRIPOS>BOND
     1    1    6 1
     2    1    2 1
     3    1   14 1
     4    1   15 1
     5    2    3 1
     6    2   16 1
     7    2   17 1
     8    3    4 1
     9    3    5 1
    10    3   12 1
    11    5    6 1
    12    5    7 am
    13    6   18 1
    14    6   19 1
    15    7    8 2
    16    7    9 1
    17    9   10 1
    18    9   20 1
    19    9   21 1
    20   10   11 1
    21   10   22 1
    22   10   23 1
    23   11   24 1
    24   12   13 2
    25   12   25 1
@<TRIPOS>MOLECULE
ZINC03814177
   34    35     0     0     0
SMALL
USER_CHARGES
2-(2-hydroxyphenyl)-3-(3-sulfanylpropanoyl)thiazolidine-4-carboxylic acid
@<TRIPOS>ATOM
      1 C1         -0.3704    4.0427    3.0796 C.ar      1 <0>        -0.1339
      2 C2         -0.8023    5.2420    3.6157 C.ar      1 <0>        -0.1050
      3 C3         -0.4743    6.4335    2.9989 C.ar      1 <0>        -0.1563
      4 C4          0.2893    6.4264    1.8404 C.ar      1 <0>         0.1167
      5 C5          0.7213    5.2221    1.3046 C.ar      1 <0>        -0.0891
      6 C6          0.3861    4.0326    1.9225 C.ar      1 <0>        -0.0278
      7 C7          1.5504    5.2107    0.0462 C.3       1 <0>         0.2503
      8 H1          0.9449    5.4937   -0.8148 H         1 <0>         0.1042
      9 N1          2.1644    3.8854   -0.1614 N.am      1 <0>        -0.5857
     10 C8          3.6177    3.8245   -0.0331 C.3       1 <0>         0.0663
     11 H2          3.9988    3.0129   -0.6529 H         1 <0>         0.1025
     12 C9          4.2675    5.1671   -0.4896 C.3       1 <0>        -0.0676
     13 S1          3.0083    6.3258    0.2116 S.3       1 <0>        -0.2258
     14 C10         3.9778    3.5580    1.4058 C.2       1 <0>         0.4557
     15 O1          3.2266    3.8971    2.2893 O.co2     1 <0>        -0.5925
     16 C11         1.4269    2.7941   -0.4471 C.2       1 <0>         0.5340
     17 O2          0.2211    2.8845   -0.5404 O.2       1 <0>        -0.5442
     18 C12         2.1007    1.4615   -0.6507 C.3       1 <0>        -0.1275
     19 C13         1.0449    0.3983   -0.9602 C.3       1 <0>        -0.0454
     20 S2          1.8559   -1.2058   -1.2052 S.3       1 <0>        -0.2463
     21 O3          0.6130    7.5974    1.2314 O.3       1 <0>        -0.4854
     22 H3         -0.6279    3.1121    3.5634 H         1 <0>         0.1179
     23 H4         -1.3963    5.2470    4.5177 H         1 <0>         0.1193
     24 H5         -0.8121    7.3699    3.4178 H         1 <0>         0.1226
     25 H6          0.7188    3.0945    1.5035 H         1 <0>         0.1212
     26 H7          4.3209    5.2420   -1.5757 H         1 <0>         0.0921
     27 H8          5.2460    5.3131   -0.0320 H         1 <0>         0.1223
     28 H9          2.6401    1.1850    0.2552 H         1 <0>         0.1138
     29 H10         2.8006    1.5317   -1.4833 H         1 <0>         0.1059
     30 H11         0.5054    0.6748   -1.8660 H         1 <0>         0.0905
     31 H12         0.3450    0.3281   -0.1276 H         1 <0>         0.0914
     32 H13         0.8399   -2.0474   -1.4668 H         1 <0>         0.0863
     33 H14        -0.0301    7.8877    0.5701 H         1 <0>         0.3784
     34 O4          5.1330    2.9440    1.7059 O.co2     1 <0>        -0.7591
@<TRIPOS>BOND
     1    1    6 ar
     2    1    2 ar
     3    1   22 1
     4    2    3 ar
     5    2   23 1
     6    3    4 ar
     7    3   24 1
     8    4    5 ar
     9    4   21 1
    10    5    6 ar
    11    5    7 1
    12    6   25 1
    13    7    8 1
    14    7   13 1
    15    7    9 1
    16    9   10 1
    17    9   16 am
    18   10   11 1
    19   10   12 1
    20   10   14 1
    21   12   13 1
    22   12   26 1
    23   12   27 1
    24   14   15 2
    25   14   34 1
    26   16   17 2
    27   16   18 1
    28   18   19 1
    29   18   28 1
    30   18   29 1
    31   19   20 1
    32   19   30 1
    33   19   31 1
    34   20   32 1
    35   21   33 1
@<TRIPOS>MOLECULE
ZINC04632086
   34    35     0     0     0
SMALL
USER_CHARGES
2-(2-hydroxyphenyl)-3-(3-sulfanylpropanoyl)thiazolidine-4-carboxylic acid
@<TRIPOS>ATOM
      1 C1         -0.2548    5.3402    2.9239 C.ar      1 <0>        -0.1363
      2 C2         -0.5120    5.9383    4.1439 C.ar      1 <0>        -0.1022
      3 C3         -0.8938    5.1682    5.2251 C.ar      1 <0>        -0.1595
      4 C4         -1.0188    3.7933    5.0864 C.ar      1 <0>         0.1176
      5 C5         -0.7598    3.1957    3.8617 C.ar      1 <0>        -0.1027
      6 C6         -0.3731    3.9699    2.7846 C.ar      1 <0>        -0.0197
      7 C7         -0.8941    1.7026    3.7077 C.3       1 <0>         0.2587
      8 H1         -1.9427    1.4056    3.7234 H         1 <0>         0.1111
      9 N1         -0.2416    1.2460    2.4658 N.am      1 <0>        -0.5852
     10 C8          0.9544    0.4253    2.6338 C.3       1 <0>         0.0637
     11 H2          1.0583   -0.2375    1.7747 H         1 <0>         0.1041
     12 C9          0.8605   -0.4310    3.9310 C.3       1 <0>        -0.0469
     13 S1          0.0500    0.8217    5.0235 S.3       1 <0>        -0.2772
     14 C10         2.1631    1.3214    2.7175 C.2       1 <0>         0.4609
     15 O1          2.0326    2.5203    2.6438 O.co2     1 <0>        -0.6027
     16 C11        -0.7181    1.5718    1.2479 C.2       1 <0>         0.5385
     17 O2         -1.7145    2.2562    1.1498 O.2       1 <0>        -0.5430
     18 C12        -0.0127    1.0858    0.0080 C.3       1 <0>        -0.1264
     19 C13        -0.7527    1.5927   -1.2315 C.3       1 <0>        -0.0452
     20 S2          0.0964    1.0076   -2.7240 S.3       1 <0>        -0.2488
     21 O3         -1.3948    3.0334    6.1485 O.3       1 <0>        -0.4951
     22 H3          0.0437    5.9441    2.0797 H         1 <0>         0.1189
     23 H4         -0.4145    7.0085    4.2513 H         1 <0>         0.1199
     24 H5         -1.0952    5.6358    6.1775 H         1 <0>         0.1231
     25 H6         -0.1673    3.5046    1.8319 H         1 <0>         0.1288
     26 H7          0.2286   -1.3076    3.7882 H         1 <0>         0.0926
     27 H8          1.8475   -0.7087    4.3008 H         1 <0>         0.1319
     28 H9          0.0021   -0.0041    0.0020 H         1 <0>         0.1041
     29 H10         1.0099    1.4631    0.0003 H         1 <0>         0.1135
     30 H11        -1.7753    1.2154   -1.2238 H         1 <0>         0.0907
     31 H12        -0.7675    2.6825   -1.2255 H         1 <0>         0.0922
     32 H13        -0.6368    1.5101   -3.7335 H         1 <0>         0.0876
     33 H14        -0.6561    2.7132    6.6841 H         1 <0>         0.3882
     34 O4          3.3847    0.7877    2.8739 O.co2     1 <0>        -0.7553
@<TRIPOS>BOND
     1    1    6 ar
     2    1    2 ar
     3    1   22 1
     4    2    3 ar
     5    2   23 1
     6    3    4 ar
     7    3   24 1
     8    4    5 ar
     9    4   21 1
    10    5    6 ar
    11    5    7 1
    12    6   25 1
    13    7    8 1
    14    7   13 1
    15    7    9 1
    16    9   10 1
    17    9   16 am
    18   10   11 1
    19   10   12 1
    20   10   14 1
    21   12   13 1
    22   12   26 1
    23   12   27 1
    24   14   15 2
    25   14   34 1
    26   16   17 2
    27   16   18 1
    28   18   19 1
    29   18   28 1
    30   18   29 1
    31   19   20 1
    32   19   30 1
    33   19   31 1
    34   20   32 1
    35   21   33 1
@<TRIPOS>MOLECULE
ZINC05138967
   34    35     0     0     0
SMALL
USER_CHARGES
2-(2-hydroxyphenyl)-3-(3-sulfanylpropanoyl)thiazolidine-4-carboxylic acid
@<TRIPOS>ATOM
      1 C1         -1.3828   -1.5205   -4.0424 C.ar      1 <0>        -0.1250
      2 C2         -2.7505   -1.5764   -4.2391 C.ar      1 <0>        -0.0984
      3 C3         -3.6105   -1.1667   -3.2389 C.ar      1 <0>        -0.1452
      4 C4         -3.1011   -0.7032   -2.0343 C.ar      1 <0>         0.1255
      5 C5         -1.7288   -0.6432   -1.8415 C.ar      1 <0>        -0.1121
      6 C6         -0.8727   -1.0543   -2.8451 C.ar      1 <0>        -0.0794
      7 C7         -1.1721   -0.1360   -0.5362 C.3       1 <0>         0.2383
      8 H1         -1.7246    0.7395   -0.1950 H         1 <0>         0.1082
      9 N1          0.2646    0.1729   -0.6672 N.am      1 <0>        -0.5998
     10 C8          1.1763   -0.6849    0.0846 C.3       1 <0>         0.0826
     11 H2          1.4514   -1.5419   -0.5302 H         1 <0>         0.0824
     12 C9          0.5064   -1.1893    1.3967 C.3       1 <0>        -0.0475
     13 S1         -1.2004   -1.4642    0.7402 S.3       1 <0>        -0.2745
     14 C10         2.4181    0.0950    0.4319 C.2       1 <0>         0.4882
     15 O1          2.3248    1.2254    0.8484 O.co2     1 <0>        -0.6160
     16 C11         0.7090    1.1903   -1.4312 C.2       1 <0>         0.5212
     17 O2          1.8902    1.4648   -1.4483 O.2       1 <0>        -0.4760
     18 C12        -0.2627    1.9909   -2.2595 C.3       1 <0>        -0.1206
     19 C13         0.4724    3.1581   -2.9216 C.3       1 <0>        -0.0467
     20 S2         -0.6972    4.1217   -3.9186 S.3       1 <0>        -0.2590
     21 O3         -3.9453   -0.3047   -1.0467 O.3       1 <0>        -0.4907
     22 H3         -0.7120   -1.8414   -4.8257 H         1 <0>         0.1269
     23 H4         -3.1465   -1.9411   -5.1753 H         1 <0>         0.1262
     24 H5         -4.6785   -1.2108   -3.3929 H         1 <0>         0.1293
     25 H6          0.1958   -1.0116   -2.6940 H         1 <0>         0.1295
     26 H7          0.9567   -2.1187    1.7455 H         1 <0>         0.1205
     27 H8          0.5202   -0.4250    2.1737 H         1 <0>         0.1013
     28 H9         -0.6970    1.3520   -3.0285 H         1 <0>         0.1044
     29 H10        -1.0547    2.3772   -1.6180 H         1 <0>         0.0962
     30 H11         0.9068    3.7969   -2.1526 H         1 <0>         0.0941
     31 H12         1.2644    2.7717   -3.5630 H         1 <0>         0.0938
     32 H13         0.0555    5.1054   -4.4428 H         1 <0>         0.0925
     33 H14        -4.1801    0.6326   -1.0843 H         1 <0>         0.3885
     34 O4          3.6278   -0.4660    0.2786 O.co2     1 <0>        -0.7587
@<TRIPOS>BOND
     1    1    6 ar
     2    1    2 ar
     3    1   22 1
     4    2    3 ar
     5    2   23 1
     6    3    4 ar
     7    3   24 1
     8    4    5 ar
     9    4   21 1
    10    5    6 ar
    11    5    7 1
    12    6   25 1
    13    7    8 1
    14    7   13 1
    15    7    9 1
    16    9   10 1
    17    9   16 am
    18   10   11 1
    19   10   12 1
    20   10   14 1
    21   12   13 1
    22   12   26 1
    23   12   27 1
    24   14   15 2
    25   14   34 1
    26   16   17 2
    27   16   18 1
    28   18   19 1
    29   18   28 1
    30   18   29 1
    31   19   20 1
    32   19   30 1
    33   19   31 1
    34   20   32 1
    35   21   33 1
@<TRIPOS>MOLECULE
ZINC05138969
   34    35     0     0     0
SMALL
USER_CHARGES
2-(2-hydroxyphenyl)-3-(3-sulfanylpropanoyl)thiazolidine-4-carboxylic acid
@<TRIPOS>ATOM
      1 C1          4.3998    4.3854    4.6072 C.ar      1 <0>        -0.1243
      2 C2          5.6344    4.7936    5.0778 C.ar      1 <0>        -0.0990
      3 C3          6.6093    5.2097    4.1921 C.ar      1 <0>        -0.1449
      4 C4          6.3506    5.2133    2.8289 C.ar      1 <0>         0.1278
      5 C5          5.1096    4.8083    2.3598 C.ar      1 <0>        -0.1125
      6 C6          4.1378    4.3930    3.2498 C.ar      1 <0>        -0.0921
      7 C7          4.8236    4.8154    0.8802 C.3       1 <0>         0.2395
      8 H1          5.3944    4.0360    0.3753 H         1 <0>         0.1151
      9 N1          3.3795    4.6504    0.6277 N.am      1 <0>        -0.5998
     10 C8          2.6934    5.8027    0.0502 C.3       1 <0>         0.0827
     11 H2          2.3333    6.4455    0.8535 H         1 <0>         0.0828
     12 C9          3.6499    6.6199   -0.8628 C.3       1 <0>        -0.0400
     13 S1          5.1898    6.4673    0.1497 S.3       1 <0>        -0.2909
     14 C10         1.5188    5.3241   -0.7635 C.2       1 <0>         0.4866
     15 O1          1.6202    4.3315   -1.4450 O.co2     1 <0>        -0.6133
     16 C11         2.7327    3.5017    0.9082 C.2       1 <0>         0.5212
     17 O2          1.5481    3.3988    0.6690 O.2       1 <0>        -0.4763
     18 C12         3.4813    2.3452    1.5191 C.3       1 <0>        -0.1403
     19 C13         2.5513    1.1350    1.6259 C.3       1 <0>        -0.0466
     20 S2          3.4525   -0.2570    2.3612 S.3       1 <0>        -0.2565
     21 O3          7.3100    5.6169    1.9551 O.3       1 <0>        -0.4902
     22 H3          3.6389    4.0604    5.3013 H         1 <0>         0.1282
     23 H4          5.8367    4.7868    6.1386 H         1 <0>         0.1269
     24 H5          7.5734    5.5281    4.5601 H         1 <0>         0.1297
     25 H6          3.1728    4.0737    2.8848 H         1 <0>         0.1336
     26 H7          3.3310    7.6582   -0.9541 H         1 <0>         0.1220
     27 H8          3.7646    6.1520   -1.8406 H         1 <0>         0.1015
     28 H9          3.8312    2.6234    2.5132 H         1 <0>         0.1175
     29 H10         4.3354    2.0928    0.8907 H         1 <0>         0.0994
     30 H11         2.2014    0.8569    0.6318 H         1 <0>         0.0944
     31 H12         1.6972    1.3875    2.2543 H         1 <0>         0.0931
     32 H13         2.5435   -1.2475    2.4027 H         1 <0>         0.0912
     33 H14         7.2935    6.5645    1.7630 H         1 <0>         0.3920
     34 O4          0.3598    6.0005   -0.7313 O.co2     1 <0>        -0.7586
@<TRIPOS>BOND
     1    1    6 ar
     2    1    2 ar
     3    1   22 1
     4    2    3 ar
     5    2   23 1
     6    3    4 ar
     7    3   24 1
     8    4    5 ar
     9    4   21 1
    10    5    6 ar
    11    5    7 1
    12    6   25 1
    13    7    8 1
    14    7   13 1
    15    7    9 1
    16    9   10 1
    17    9   16 am
    18   10   11 1
    19   10   12 1
    20   10   14 1
    21   12   13 1
    22   12   26 1
    23   12   27 1
    24   14   15 2
    25   14   34 1
    26   16   17 2
    27   16   18 1
    28   18   19 1
    29   18   28 1
    30   18   29 1
    31   19   20 1
    32   19   30 1
    33   19   31 1
    34   20   32 1
    35   21   33 1
@<TRIPOS>MOLECULE
ZINC26022692
   22    22     0     0     0
SMALL
USER_CHARGES
2-[(3R)-2-oxo-3-(sulfanylmethyl)pyrrolidin-1-yl]acetic acid
@<TRIPOS>ATOM
      1 C1         -0.7981    1.6165   -1.2118 C.3       1 <0>        -0.1158
      2 C2         -0.0127    1.0858    0.0080 C.3       1 <0>         0.1079
      3 N1         -0.7366    1.5774    1.1863 N.am      1 <0>        -0.5905
      4 C3         -1.9810    1.9753    0.8616 C.2       1 <0>         0.5227
      5 O1         -2.7947    2.4175    1.6447 O.2       1 <0>        -0.5143
      6 C4         -2.2165    1.7919   -0.6215 C.3       1 <0>        -0.1066
      7 H1         -2.7684    2.6389   -1.0551 H         1 <0>         0.1183
      8 C5         -3.0619    0.5430   -0.8790 C.3       1 <0>        -0.0438
      9 S1         -4.7592    0.8335   -0.3084 S.3       1 <0>        -0.1540
     10 C6         -0.1762    1.6284    2.5389 C.3       1 <0>         0.0821
     11 C7          0.5002    2.9580    2.7527 C.2       1 <0>         0.4496
     12 O2          0.5128    3.7788    1.8662 O.co2     1 <0>        -0.6276
     13 O3          1.0885    3.2304    3.9280 O.co2     1 <0>        -0.7706
     14 H2         -0.8345    0.9021   -2.0474 H         1 <0>         0.0867
     15 H3         -0.4295    2.5871   -1.5751 H         1 <0>         0.0926
     16 H4          0.0089   -0.0136   -0.0199 H         1 <0>         0.0633
     17 H5          1.0163    1.4736   -0.0214 H         1 <0>         0.0811
     18 H6         -3.0701    0.3216   -1.9564 H         1 <0>         0.0906
     19 H7         -2.6323   -0.3097   -0.3327 H         1 <0>         0.0818
     20 H8         -5.5170    0.0428   -0.4114 H         1 <0>        -0.0223
     21 H9         -0.9840    1.5054    3.2753 H         1 <0>         0.0879
     22 H10         0.5586    0.8192    2.6621 H         1 <0>         0.0809
@<TRIPOS>BOND
     1    1    6 1
     2    1    2 1
     3    1   14 1
     4    1   15 1
     5    2    3 1
     6    2   16 1
     7    2   17 1
     8    3    4 am
     9    3   10 1
    10    4    5 2
    11    4    6 1
    12    6    7 1
    13    6    8 1
    14    8    9 1
    15    8   18 1
    16    8   19 1
    17    9   20 1
    18   10   11 1
    19   10   21 1
    20   10   22 1
    21   11   12 2
    22   11   13 1
@<TRIPOS>MOLECULE
ZINC26022698
   22    22     0     0     0
SMALL
USER_CHARGES
2-[(3S)-2-oxo-3-(sulfanylmethyl)pyrrolidin-1-yl]acetic acid
@<TRIPOS>ATOM
      1 C1         -0.0127    1.0858    0.0080 C.3       1 <0>        -0.1182
      2 C2         -0.8338    1.6341   -1.1801 C.3       1 <0>         0.1063
      3 N1         -1.5208    2.8244   -0.6651 N.am      1 <0>        -0.5896
      4 C3         -1.5287    2.8404    0.6789 C.2       1 <0>         0.5213
      5 O1         -2.0362    3.7059    1.3603 O.2       1 <0>        -0.5146
      6 C4         -0.8117    1.6218    1.2186 C.3       1 <0>        -0.1051
      7 H1         -0.1798    1.8691    2.0843 H         1 <0>         0.1160
      8 C5         -1.8202    0.5766    1.6996 C.3       1 <0>        -0.0473
      9 S1         -2.6365    1.1725    3.2060 S.3       1 <0>        -0.1554
     10 C6         -2.1205    3.8620   -1.5077 C.3       1 <0>         0.0824
     11 C7         -3.5565    3.5073   -1.7958 C.2       1 <0>         0.4499
     12 O2         -4.0304    2.4919   -1.3438 O.co2     1 <0>        -0.6288
     13 O3         -4.3092    4.3194   -2.5547 O.co2     1 <0>        -0.7710
     14 H2          1.0138    1.4796    0.0428 H         1 <0>         0.0877
     15 H3          0.0148   -0.0133    0.0444 H         1 <0>         0.0886
     16 H4         -0.1558    1.8881   -2.0082 H         1 <0>         0.0757
     17 H5         -1.5505    0.8695   -1.5144 H         1 <0>         0.0723
     18 H6         -2.5740    0.4069    0.9167 H         1 <0>         0.0914
     19 H7         -1.2965   -0.3665    1.9149 H         1 <0>         0.0887
     20 H8         -3.3985    0.5523    3.7007 H         1 <0>        -0.0198
     21 H9         -2.0795    4.8285   -0.9841 H         1 <0>         0.0881
     22 H10        -1.5636    3.9335   -2.4536 H         1 <0>         0.0813
@<TRIPOS>BOND
     1    1    6 1
     2    1    2 1
     3    1   14 1
     4    1   15 1
     5    2    3 1
     6    2   16 1
     7    2   17 1
     8    3    4 am
     9    3   10 1
    10    4    5 2
    11    4    6 1
    12    6    7 1
    13    6    8 1
    14    8    9 1
    15    8   18 1
    16    8   19 1
    17    9   20 1
    18   10   11 1
    19   10   21 1
    20   10   22 1
    21   11   12 2
    22   11   13 1
@<TRIPOS>MOLECULE
ZINC53164616
   69    71     0     0     0
SMALL
USER_CHARGES

@<TRIPOS>ATOM
      1 C1         13.4888   -4.7364   -5.9640 C.3       1 <0>        -0.1509
      2 C2         11.9605   -4.7865   -6.0168 C.3       1 <0>         0.0574
      3 O1         11.4984   -5.9534   -5.3335 O.3       1 <0>        -0.3519
      4 C3         10.1709   -6.1472   -5.2880 C.2       1 <0>         0.4280
      5 O2          9.4260   -5.3526   -5.8111 O.2       1 <0>        -0.4961
      6 C4          9.6096   -7.3561   -4.5846 C.3       1 <0>         0.0999
      7 H1          9.9092   -7.3383   -3.5367 H         1 <0>         0.1166
      8 C5         10.1463   -8.6265   -5.2470 C.3       1 <0>        -0.0920
      9 C6          9.6773   -9.8504   -4.4577 C.3       1 <0>        -0.0778
     10 C7         10.2059  -11.1018   -5.1101 C.ar      1 <0>        -0.0747
     11 C8          9.4671  -11.7338   -6.0928 C.ar      1 <0>        -0.1115
     12 C9          9.9520  -12.8816   -6.6913 C.ar      1 <0>        -0.1191
     13 C10        11.1758  -13.3972   -6.3074 C.ar      1 <0>        -0.1301
     14 C11        11.9150  -12.7647   -5.3254 C.ar      1 <0>        -0.1235
     15 C12        11.4321  -11.6144   -4.7299 C.ar      1 <0>        -0.1200
     16 N1          8.1435   -7.3384   -4.6751 N.3       1 <0>        -0.6322
     17 C13         7.5597   -6.5216   -3.6028 C.3       1 <0>         0.0653
     18 H2          8.1596   -6.6261   -2.6988 H         1 <0>         0.0902
     19 C14         7.5384   -5.0538   -4.0339 C.3       1 <0>        -0.1657
     20 C15         6.1522   -6.9849   -3.3281 C.2       1 <0>         0.5159
     21 O3          5.4015   -7.2237   -4.2502 O.2       1 <0>        -0.4546
     22 N2          5.7277   -7.1340   -2.0576 N.am      1 <0>        -0.5994
     23 C16         6.5651   -6.7342   -0.9218 C.3       1 <0>         0.1542
     24 C17         5.7300   -5.9858    0.0870 C.ar      1 <0>        -0.0960
     25 C18         6.3946   -5.3201    1.1088 C.ar      1 <0>        -0.1662
     26 C19         5.6864   -4.6246    2.0712 C.ar      1 <0>         0.0875
     27 C20         4.2959   -4.5943    2.0128 C.ar      1 <0>         0.1011
     28 C21         3.6396   -5.2547    0.9915 C.ar      1 <0>        -0.1758
     29 C22         4.3551   -5.9482    0.0220 C.ar      1 <0>        -0.0443
     30 C23         3.5706   -6.6200   -1.0744 C.3       1 <0>        -0.0750
     31 C24         4.4023   -7.6989   -1.7545 C.3       1 <0>         0.0769
     32 H3          4.5098   -8.5541   -1.0872 H         1 <0>         0.0641
     33 C25         3.7272   -8.1289   -3.0313 C.2       1 <0>         0.5201
     34 O4          4.1722   -9.0672   -3.6701 O.co2     1 <0>        -0.6778
     35 O5          2.7360   -7.5385   -3.4255 O.co2     1 <0>        -0.6964
     36 O6          3.5869   -3.9187    2.9563 O.3       1 <0>        -0.3100
     37 C26         2.1634   -3.9320    2.8312 C.3       1 <0>         0.0260
     38 O7          6.3439   -3.9747    3.0686 O.3       1 <0>        -0.3093
     39 C27         7.7708   -4.0515    3.0626 C.3       1 <0>         0.0276
     40 H4         13.8155   -4.7021   -4.9247 H         1 <0>         0.0657
     41 H5         13.8983   -5.6249   -6.4445 H         1 <0>         0.0664
     42 H6         13.8413   -3.8463   -6.4853 H         1 <0>         0.0768
     43 H7         11.5510   -3.8980   -5.5363 H         1 <0>         0.0650
     44 H8         11.6338   -4.8208   -7.0561 H         1 <0>         0.0660
     45 H9          9.7732   -8.6887   -6.2693 H         1 <0>         0.0719
     46 H10        11.2358   -8.5976   -5.2590 H         1 <0>         0.0778
     47 H11        10.0504   -9.7882   -3.4354 H         1 <0>         0.0703
     48 H12         8.5877   -9.8793   -4.4456 H         1 <0>         0.0976
     49 H13         8.5110  -11.3310   -6.3927 H         1 <0>         0.1269
     50 H14         9.3745  -13.3758   -7.4586 H         1 <0>         0.1197
     51 H15        11.5543  -14.2944   -6.7745 H         1 <0>         0.1165
     52 H16        12.8709  -13.1677   -5.0252 H         1 <0>         0.1171
     53 H17        12.0112  -11.1182   -3.9653 H         1 <0>         0.1193
     54 H18         7.8411   -7.0148   -5.5817 H         1 <0>         0.3665
     55 H19         6.9717   -4.4702   -3.3083 H         1 <0>         0.0579
     56 H20         8.5594   -4.6757   -4.0864 H         1 <0>         0.0629
     57 H21         7.0689   -4.9697   -5.0140 H         1 <0>         0.0729
     58 H22         6.9895   -7.6225   -0.4537 H         1 <0>         0.0735
     59 H23         7.3712   -6.0907   -1.2742 H         1 <0>         0.0837
     60 H24         7.4734   -5.3462    1.1522 H         1 <0>         0.1328
     61 H25         2.5608   -5.2319    0.9461 H         1 <0>         0.1350
     62 H26         2.6742   -7.0713   -0.6489 H         1 <0>         0.0769
     63 H27         3.2791   -5.8751   -1.8148 H         1 <0>         0.0912
     64 H28         1.7217   -3.3575    3.6455 H         1 <0>         0.0971
     65 H29         1.8784   -3.4885    1.8772 H         1 <0>         0.0552
     66 H30         1.8044   -4.9602    2.8756 H         1 <0>         0.0551
     67 H31         8.0789   -5.0942    3.1396 H         1 <0>         0.0532
     68 H32         8.1536   -3.6272    2.1345 H         1 <0>         0.0525
     69 H33         8.1684   -3.4917    3.9092 H         1 <0>         0.0962
@<TRIPOS>BOND
     1    1    2 1
     2    1   40 1
     3    1   41 1
     4    1   42 1
     5    2    3 1
     6    2   43 1
     7    2   44 1
     8    3    4 1
     9    4    5 2
    10    4    6 1
    11    6    7 1
    12    6    8 1
    13    6   16 1
    14    8    9 1
    15    8   45 1
    16    8   46 1
    17    9   10 1
    18    9   47 1
    19    9   48 1
    20   10   15 ar
    21   10   11 ar
    22   11   12 ar
    23   11   49 1
    24   12   13 ar
    25   12   50 1
    26   13   14 ar
    27   13   51 1
    28   14   15 ar
    29   14   52 1
    30   15   53 1
    31   16   17 1
    32   16   54 1
    33   17   18 1
    34   17   19 1
    35   17   20 1
    36   19   55 1
    37   19   56 1
    38   19   57 1
    39   20   21 2
    40   20   22 am
    41   22   31 1
    42   22   23 1
    43   23   24 1
    44   23   58 1
    45   23   59 1
    46   24   29 ar
    47   24   25 ar
    48   25   26 ar
    49   25   60 1
    50   26   27 ar
    51   26   38 1
    52   27   28 ar
    53   27   36 1
    54   28   29 ar
    55   28   61 1
    56   29   30 1
    57   30   31 1
    58   30   62 1
    59   30   63 1
    60   31   32 1
    61   31   33 1
    62   33   34 2
    63   33   35 1
    64   36   37 1
    65   37   64 1
    66   37   65 1
    67   37   66 1
    68   38   39 1
    69   39   67 1
    70   39   68 1
    71   39   69 1
@<TRIPOS>MOLECULE
ZINC05134411
   25    25     0     0     0
SMALL
USER_CHARGES
2-[2-oxo-3-(sulfanylmethyl)-1-piperidyl]acetic acid
@<TRIPOS>ATOM
      1 C1         -2.7013    1.5636   -2.6288 C.3       1 <0>        -0.1332
      2 C2         -1.8404    2.3386   -3.6336 C.3       1 <0>        -0.1102
      3 C3         -1.0288    3.3867   -2.8682 C.3       1 <0>        -0.0866
      4 H1         -1.6938    4.1783   -2.5230 H         1 <0>         0.1115
      5 C4         -0.3565    2.7492   -1.6863 C.2       1 <0>         0.5094
      6 O1          0.5673    3.3373   -1.1652 O.2       1 <0>        -0.5208
      7 N1         -0.7213    1.5711   -1.1789 N.am      1 <0>        -0.5775
      8 C5         -1.7767    0.7334   -1.7344 C.3       1 <0>         0.1181
      9 C6         -0.0127    1.0858    0.0080 C.3       1 <0>         0.0657
     10 C7         -0.7181    1.5718    1.2479 C.2       1 <0>         0.4539
     11 O2         -1.7108    2.2536    1.1502 O.co2     1 <0>        -0.6308
     12 C8          0.0319    3.9825   -3.7960 C.3       1 <0>        -0.0551
     13 S1          0.8900    5.3345   -2.9438 S.3       1 <0>        -0.1858
     14 H2         -3.2728    2.2642   -2.0200 H         1 <0>         0.0783
     15 H3         -3.3837    0.9035   -3.1644 H         1 <0>         0.0809
     16 H4         -2.4826    2.8325   -4.3629 H         1 <0>         0.0743
     17 H5         -1.1648    1.6526   -4.1447 H         1 <0>         0.0698
     18 H6         -1.3288   -0.0695   -2.3200 H         1 <0>         0.0564
     19 H7         -2.3587    0.3003   -0.9209 H         1 <0>         0.0750
     20 H8          0.0021   -0.0041    0.0020 H         1 <0>         0.0759
     21 H9          1.0099    1.4631    0.0003 H         1 <0>         0.0920
     22 H10         0.7513    3.2103   -4.0686 H         1 <0>         0.0806
     23 H11        -0.4473    4.3667   -4.6964 H         1 <0>         0.0868
     24 H12         1.7853    5.7722   -3.8470 H         1 <0>         0.0440
     25 O3         -0.2435    1.2473    2.4608 O.co2     1 <0>        -0.7726
@<TRIPOS>BOND
     1    1    8 1
     2    1    2 1
     3    1   14 1
     4    1   15 1
     5    2    3 1
     6    2   16 1
     7    2   17 1
     8    3    4 1
     9    3    5 1
    10    3   12 1
    11    5    6 2
    12    5    7 am
    13    7    8 1
    14    7    9 1
    15    8   18 1
    16    8   19 1
    17    9   10 1
    18    9   20 1
    19    9   21 1
    20   10   11 2
    21   10   25 1
    22   12   13 1
    23   12   22 1
    24   12   23 1
    25   13   24 1
@<TRIPOS>MOLECULE
ZINC05134600
   25    25     0     0     0
SMALL
USER_CHARGES
2-[2-oxo-3-(sulfanylmethyl)-1-piperidyl]acetic acid
@<TRIPOS>ATOM
      1 C1          0.1256    5.5364    1.1566 C.3       1 <0>        -0.1336
      2 C2          0.7786    6.3426    0.0274 C.3       1 <0>        -0.1100
      3 C3          0.5157    5.6210   -1.2968 C.3       1 <0>        -0.0865
      4 H1         -0.5366    5.7228   -1.5619 H         1 <0>         0.1117
      5 C4          0.8629    4.1660   -1.1619 C.2       1 <0>         0.5090
      6 O1          1.0306    3.5194   -2.1742 O.2       1 <0>        -0.5204
      7 N1          0.9914    3.5458    0.0116 N.am      1 <0>        -0.5774
      8 C5          0.8698    4.2087    1.3040 C.3       1 <0>         0.1181
      9 C6          1.2786    2.1093    0.0012 C.3       1 <0>         0.0657
     10 C7         -0.0161    1.3381    0.0094 C.2       1 <0>         0.4538
     11 O2         -1.0706    1.9279    0.0176 O.co2     1 <0>        -0.6308
     12 C8          1.3792    6.2443   -2.3953 C.3       1 <0>        -0.0555
     13 S1          0.9624    5.4914   -3.9922 S.3       1 <0>        -0.1848
     14 H2         -0.9193    5.3449    0.9122 H         1 <0>         0.0782
     15 H3          0.1886    6.0965    2.0895 H         1 <0>         0.0810
     16 H4          0.3460    7.3424   -0.0074 H         1 <0>         0.0745
     17 H5          1.8526    6.4127    0.2002 H         1 <0>         0.0698
     18 H6          0.3218    3.5628    1.9901 H         1 <0>         0.0756
     19 H7          1.8648    4.3995    1.7061 H         1 <0>         0.0559
     20 H8          1.8621    1.8490    0.8842 H         1 <0>         0.0757
     21 H9          1.8451    1.8585   -0.8956 H         1 <0>         0.0923
     22 H10         1.1921    7.3172   -2.4397 H         1 <0>         0.0866
     23 H11         2.4318    6.0679   -2.1741 H         1 <0>         0.0805
     24 H12         1.7748    6.1118   -4.8664 H         1 <0>         0.0432
     25 O3          0.0021   -0.0041    0.0020 O.co2     1 <0>        -0.7726
@<TRIPOS>BOND
     1    1    8 1
     2    1    2 1
     3    1   14 1
     4    1   15 1
     5    2    3 1
     6    2   16 1
     7    2   17 1
     8    3    4 1
     9    3    5 1
    10    3   12 1
    11    5    6 2
    12    5    7 am
    13    7    8 1
    14    7    9 1
    15    8   18 1
    16    8   19 1
    17    9   10 1
    18    9   20 1
    19    9   21 1
    20   10   11 2
    21   10   25 1
    22   12   13 1
    23   12   22 1
    24   12   23 1
    25   13   24 1
@<TRIPOS>MOLECULE
ZINC03812863
   60    61     0     0     0
SMALL
USER_CHARGES

@<TRIPOS>ATOM
      1 C1         -0.0167    1.3781    0.0096 C.ar      1 <0>        -0.1226
      2 C2          1.1709    2.0855    0.0021 C.ar      1 <0>        -0.1142
      3 C3          2.3773    1.4107   -0.0130 C.ar      1 <0>        -0.1110
      4 C4          2.3960    0.0285   -0.0201 C.ar      1 <0>        -0.0815
      5 C5          1.2084   -0.6789   -0.0117 C.ar      1 <0>        -0.1204
      6 C6          0.0021   -0.0041    0.0020 C.ar      1 <0>        -0.1197
      7 C7          3.7112   -0.7071   -0.0376 C.3       1 <0>        -0.0911
      8 C8          4.1714   -0.9633    1.3989 C.3       1 <0>        -0.1116
      9 C9          5.5066   -1.7102    1.3812 C.3       1 <0>        -0.0640
     10 H1          6.2284   -1.1499    0.7869 H         1 <0>         0.1541
     11 C10         6.0202   -1.8544    2.7906 C.2       1 <0>         0.4964
     12 O1          5.7155   -2.8312    3.4535 O.co2     1 <0>        -0.6834
     13 O2          6.7405   -0.9942    3.2679 O.co2     1 <0>        -0.6319
     14 N1          5.3150   -3.0418    0.7912 N.4       1 <0>        -0.4659
     15 C11         6.6156   -3.7127    0.6641 C.3       1 <0>         0.0163
     16 H2          7.1096   -3.7348    1.6355 H         1 <0>         0.1621
     17 C12         6.4045   -5.1442    0.1667 C.3       1 <0>        -0.1434
     18 C13         5.6383   -5.9433    1.2228 C.3       1 <0>        -0.1296
     19 C14         5.4273   -7.3747    0.7254 C.3       1 <0>        -0.1514
     20 C15         4.6611   -8.1738    1.7815 C.3       1 <0>        -0.0111
     21 N2          4.4584   -9.5481    1.3040 N.4       1 <0>        -0.6381
     22 C16         7.4748   -2.9608   -0.3195 C.2       1 <0>         0.5267
     23 O3          7.0459   -1.9640   -0.8612 O.2       1 <0>        -0.5136
     24 N3          8.7198   -3.3959   -0.5971 N.am      1 <0>        -0.5659
     25 C17         9.3614   -4.5905   -0.0185 C.3       1 <0>         0.0904
     26 C18        10.8822   -4.3203   -0.1369 C.3       1 <0>        -0.1346
     27 C19        10.9632   -3.5887   -1.5027 C.3       1 <0>        -0.1080
     28 C20         9.6606   -2.7615   -1.5319 C.3       1 <0>         0.0624
     29 H3          9.8658   -1.7391   -1.2145 H         1 <0>         0.0774
     30 C21         9.0805   -2.7628   -2.9228 C.2       1 <0>         0.5007
     31 O4          9.6205   -2.1230   -3.8091 O.co2     1 <0>        -0.6849
     32 O5          8.0713   -3.4037   -3.1617 O.co2     1 <0>        -0.6885
     33 H4         -0.9591    1.9053    0.0259 H         1 <0>         0.1218
     34 H5          1.1563    3.1654    0.0076 H         1 <0>         0.1242
     35 H6          3.3051    1.9634   -0.0196 H         1 <0>         0.1259
     36 H7          1.2231   -1.7588   -0.0176 H         1 <0>         0.1162
     37 H8         -0.9258   -0.5567    0.0082 H         1 <0>         0.1206
     38 H9          3.5884   -1.6586   -0.5549 H         1 <0>         0.0612
     39 H10         4.4573   -0.1052   -0.5563 H         1 <0>         0.0932
     40 H11         4.2941   -0.0118    1.9163 H         1 <0>         0.1068
     41 H12         3.4252   -1.5652    1.9176 H         1 <0>         0.0779
     42 H13         4.7108   -3.5892    1.3856 H         1 <0>         0.4180
     43 H14         5.8324   -5.1259   -0.7609 H         1 <0>         0.0971
     44 H15         7.3721   -5.6130   -0.0124 H         1 <0>         0.1187
     45 H16         6.2104   -5.9616    2.1504 H         1 <0>         0.0972
     46 H17         4.6707   -5.4745    1.4019 H         1 <0>         0.0731
     47 H18         4.8551   -7.3564   -0.2022 H         1 <0>         0.0925
     48 H19         6.3949   -7.8435    0.5463 H         1 <0>         0.0955
     49 H20         5.2332   -8.1921    2.7091 H         1 <0>         0.1379
     50 H21         3.6935   -7.7050    1.9606 H         1 <0>         0.1351
     51 H22         3.9288   -9.5312    0.4453 H         1 <0>         0.4352
     52 H23         5.3541   -9.9821    1.1382 H         1 <0>         0.4360
     53 H24         9.0767   -4.7050    1.0274 H         1 <0>         0.0721
     54 H25         9.0888   -5.4801   -0.5864 H         1 <0>         0.0717
     55 H26        11.2288   -3.6772    0.6720 H         1 <0>         0.0789
     56 H27        11.4442   -5.2540   -0.1598 H         1 <0>         0.0838
     57 H28        11.8369   -2.9380   -1.5404 H         1 <0>         0.0835
     58 H29        10.9791   -4.3054   -2.3238 H         1 <0>         0.0752
     59 H30         3.9531  -10.0751    2.0004 H         1 <0>         0.4381
     60 H31         4.8943   -2.9480   -0.1211 H         1 <0>         0.4129
@<TRIPOS>BOND
     1    1    6 ar
     2    1    2 ar
     3    1   33 1
     4    2    3 ar
     5    2   34 1
     6    3    4 ar
     7    3   35 1
     8    4    5 ar
     9    4    7 1
    10    5    6 ar
    11    5   36 1
    12    6   37 1
    13    7    8 1
    14    7   38 1
    15    7   39 1
    16    8    9 1
    17    8   40 1
    18    8   41 1
    19    9   10 1
    20    9   11 1
    21    9   14 1
    22   11   12 2
    23   11   13 1
    24   14   15 1
    25   14   42 1
    26   14   60 1
    27   15   16 1
    28   15   17 1
    29   15   22 1
    30   17   18 1
    31   17   43 1
    32   17   44 1
    33   18   19 1
    34   18   45 1
    35   18   46 1
    36   19   20 1
    37   19   47 1
    38   19   48 1
    39   20   21 1
    40   20   49 1
    41   20   50 1
    42   21   51 1
    43   21   52 1
    44   21   59 1
    45   22   23 2
    46   22   24 am
    47   24   28 1
    48   24   25 1
    49   25   26 1
    50   25   53 1
    51   25   54 1
    52   26   27 1
    53   26   55 1
    54   26   56 1
    55   27   28 1
    56   27   57 1
    57   27   58 1
    58   28   29 1
    59   28   30 1
    60   30   31 2
    61   30   32 1
@<TRIPOS>MOLECULE
ZINC00155905
   18    17     0     0     0
SMALL
USER_CHARGES
2-[[(2S)-2-sulfanylpropanoyl]amino]acetic acid
@<TRIPOS>ATOM
      1 C1          0.1042    2.0150    4.7615 C.3       1 <0>        -0.1348
      2 C2         -0.9273    1.7184    3.6711 C.3       1 <0>        -0.0641
      3 H1         -1.4834    2.6270    3.4402 H         1 <0>         0.1363
      4 C3         -0.2219    1.2324    2.4312 C.2       1 <0>         0.5065
      5 O1          0.7745    0.5480    2.5293 O.2       1 <0>        -0.5562
      6 N1         -0.6984    1.5583    1.2133 N.am      1 <0>        -0.6896
      7 C4         -0.0127    1.0858    0.0080 C.3       1 <0>         0.0745
      8 C5         -0.7416    1.5850   -1.2129 C.2       1 <0>         0.4597
      9 O2         -1.7322    2.2656   -1.0889 O.co2     1 <0>        -0.6334
     10 S1         -2.0738    0.4397    4.2550 S.3       1 <0>        -0.2086
     11 H2          0.7931    2.7833    4.4107 H         1 <0>         0.0710
     12 H3         -0.4060    2.3665    5.6583 H         1 <0>         0.0768
     13 H4          0.6602    1.1064    4.9924 H         1 <0>         0.0648
     14 H5         -1.4954    2.1056    1.1349 H         1 <0>         0.4109
     15 H6          0.0021   -0.0041    0.0020 H         1 <0>         0.0741
     16 H7          1.0099    1.4631    0.0003 H         1 <0>         0.0748
     17 H8         -1.2817   -0.6183    4.5044 H         1 <0>         0.0931
     18 O3         -0.2903    1.2736   -2.4381 O.co2     1 <0>        -0.7558
@<TRIPOS>BOND
     1    1    2 1
     2    1   11 1
     3    1   12 1
     4    1   13 1
     5    2    3 1
     6    2    4 1
     7    2   10 1
     8    4    5 2
     9    4    6 am
    10    6    7 1
    11    6   14 1
    12    7    8 1
    13    7   15 1
    14    7   16 1
    15    8    9 2
    16    8   18 1
    17   10   17 1
@<TRIPOS>MOLECULE
ZINC03831551
   18    17     0     0     0
SMALL
USER_CHARGES

@<TRIPOS>ATOM
      1 C1         -0.0187    1.5258    0.0104 C.3       1 <0>        -0.1439
      2 C2          0.0021   -0.0041    0.0020 C.3       1 <0>        -0.0711
      3 H1          0.5293   -0.3651    0.8851 H         1 <0>         0.1089
      4 C3          0.7074   -0.4901   -1.2379 C.2       1 <0>         0.5223
      5 O1          0.0664   -0.7818   -2.2252 O.2       1 <0>        -0.5351
      6 N1          2.0506   -0.6005   -1.2495 N.am      1 <0>        -0.6918
      7 C4          2.7363   -1.0730   -2.4548 C.3       1 <0>         0.0514
      8 C5          4.2225   -1.1049   -2.2074 C.2       1 <0>         0.4908
      9 O2          4.6677   -0.7645   -1.1245 O.co2     1 <0>        -0.6925
     10 O3          4.9798   -1.4711   -3.0900 O.co2     1 <0>        -0.6868
     11 S1         -1.6997   -0.6320    0.0149 S.3       1 <0>        -0.1811
     12 H2          1.0039    1.9031    0.0027 H         1 <0>         0.0766
     13 H3         -0.5459    1.8868   -0.8726 H         1 <0>         0.0772
     14 H4         -0.5289    1.8773    0.9072 H         1 <0>         0.0622
     15 H5          2.5633   -0.3672   -0.4598 H         1 <0>         0.4085
     16 H6          2.3875   -2.0757   -2.7018 H         1 <0>         0.0686
     17 H7          2.5204   -0.3987   -3.2836 H         1 <0>         0.0679
     18 H8         -2.2200   -0.1385    1.1528 H         1 <0>         0.0679
@<TRIPOS>BOND
     1    1    2 1
     2    1   12 1
     3    1   13 1
     4    1   14 1
     5    2    3 1
     6    2    4 1
     7    2   11 1
     8    4    5 2
     9    4    6 am
    10    6    7 1
    11    6   15 1
    12    7    8 1
    13    7   16 1
    14    7   17 1
    15    8    9 2
    16    8   10 1
    17   11   18 1
@<TRIPOS>MOLECULE
ZINC53230618
   54    55     0     0     0
SMALL
USER_CHARGES

@<TRIPOS>ATOM
      1 C1         -0.0725    1.5731   -0.0701 C.3       1 <0>        -0.1489
      2 C2         -0.0330    0.0436   -0.0653 C.3       1 <0>         0.0560
      3 O1         -1.3672   -0.4673   -0.0331 O.3       1 <0>        -0.3546
      4 C3         -1.5085   -1.8021   -0.0249 C.2       1 <0>         0.4205
      5 O2         -0.5319   -2.5132   -0.0445 O.2       1 <0>        -0.4850
      6 C4         -2.8854   -2.4138    0.0087 C.3       1 <0>         0.0983
      7 H1         -3.4461   -2.0950   -0.8699 H         1 <0>         0.1165
      8 C5         -3.6157   -1.9570    1.2732 C.3       1 <0>        -0.0929
      9 C6         -5.0548   -2.4758    1.2466 C.3       1 <0>        -0.0745
     10 C7         -5.7741   -2.0259    2.4921 C.ar      1 <0>        -0.0763
     11 C8         -5.7500   -2.8145    3.6272 C.ar      1 <0>        -0.1138
     12 C9         -6.4098   -2.4018    4.7696 C.ar      1 <0>        -0.1194
     13 C10        -7.0933   -1.2003    4.7772 C.ar      1 <0>        -0.1295
     14 C11        -7.1166   -0.4113    3.6424 C.ar      1 <0>        -0.1222
     15 C12        -6.4532   -0.8219    2.5012 C.ar      1 <0>        -0.1194
     16 N1         -2.7706   -3.8783    0.0116 N.3       1 <0>        -0.6354
     17 C13        -2.6415   -4.3989   -1.3560 C.3       1 <0>         0.0711
     18 H2         -2.0651   -3.6972   -1.9590 H         1 <0>         0.0596
     19 C14        -4.0325   -4.5747   -1.9683 C.3       1 <0>        -0.1328
     20 C15        -1.9356   -5.7300   -1.3223 C.2       1 <0>         0.5324
     21 O3         -1.9805   -6.4150   -0.3224 O.2       1 <0>        -0.5140
     22 N2         -1.2545   -6.1591   -2.4031 N.am      1 <0>        -0.5887
     23 C16        -1.0300   -5.3878   -3.6393 C.3       1 <0>         0.1006
     24 C17        -0.7851   -6.4559   -4.7342 C.3       1 <0>        -0.1321
     25 C18         0.0209   -7.5257   -3.9512 C.3       1 <0>        -0.1066
     26 C19        -0.6068   -7.4717   -2.5423 C.3       1 <0>         0.0659
     27 H3         -1.3483   -8.2638   -2.4382 H         1 <0>         0.0656
     28 C20         0.4649   -7.6280   -1.4944 C.2       1 <0>         0.4954
     29 O4          0.9952   -8.7122   -1.3218 O.co2     1 <0>        -0.7044
     30 O5          0.8017   -6.6703   -0.8193 O.co2     1 <0>        -0.6739
     31 H4          0.9451    1.9627   -0.0948 H         1 <0>         0.0770
     32 H5         -0.6157    1.9197   -0.9493 H         1 <0>         0.0649
     33 H6         -0.5752    1.9263    0.8302 H         1 <0>         0.0653
     34 H7          0.4697   -0.3097   -0.9657 H         1 <0>         0.0660
     35 H8          0.5102   -0.3031    0.8138 H         1 <0>         0.0667
     36 H9         -3.1035   -2.3511    2.1510 H         1 <0>         0.0724
     37 H10        -3.6228   -0.8679    1.3152 H         1 <0>         0.0786
     38 H11        -5.5669   -2.0817    0.3688 H         1 <0>         0.0707
     39 H12        -5.0476   -3.5650    1.2046 H         1 <0>         0.0934
     40 H13        -5.2159   -3.7532    3.6213 H         1 <0>         0.1254
     41 H14        -6.3915   -3.0183    5.6562 H         1 <0>         0.1196
     42 H15        -7.6093   -0.8782    5.6695 H         1 <0>         0.1171
     43 H16        -7.6509    0.5273    3.6481 H         1 <0>         0.1179
     44 H17        -6.4683   -0.2037    1.6158 H         1 <0>         0.1203
     45 H18        -1.9988   -4.1794    0.5875 H         1 <0>         0.3707
     46 H19        -3.9350   -4.8769   -3.0110 H         1 <0>         0.0605
     47 H20        -4.5778   -5.3410   -1.4174 H         1 <0>         0.0703
     48 H21        -4.5758   -3.6314   -1.9127 H         1 <0>         0.0632
     49 H22        -1.9107   -4.7925   -3.8802 H         1 <0>         0.0659
     50 H23        -0.1551   -4.7464   -3.5326 H         1 <0>         0.0622
     51 H24        -1.7274   -6.8655   -5.0981 H         1 <0>         0.0714
     52 H25        -0.1962   -6.0462   -5.5549 H         1 <0>         0.0768
     53 H26        -0.1114   -8.5113   -4.3973 H         1 <0>         0.0753
     54 H27         1.0769   -7.2587   -3.9094 H         1 <0>         0.0711
@<TRIPOS>BOND
     1    1    2 1
     2    1   31 1
     3    1   32 1
     4    1   33 1
     5    2    3 1
     6    2   34 1
     7    2   35 1
     8    3    4 1
     9    4    5 2
    10    4    6 1
    11    6    7 1
    12    6    8 1
    13    6   16 1
    14    8    9 1
    15    8   36 1
    16    8   37 1
    17    9   10 1
    18    9   38 1
    19    9   39 1
    20   10   15 ar
    21   10   11 ar
    22   11   12 ar
    23   11   40 1
    24   12   13 ar
    25   12   41 1
    26   13   14 ar
    27   13   42 1
    28   14   15 ar
    29   14   43 1
    30   15   44 1
    31   16   17 1
    32   16   45 1
    33   17   18 1
    34   17   19 1
    35   17   20 1
    36   19   46 1
    37   19   47 1
    38   19   48 1
    39   20   21 2
    40   20   22 am
    41   22   26 1
    42   22   23 1
    43   23   24 1
    44   23   49 1
    45   23   50 1
    46   24   25 1
    47   24   51 1
    48   24   52 1
    49   25   26 1
    50   25   53 1
    51   25   54 1
    52   26   27 1
    53   26   28 1
    54   28   29 2
    55   28   30 1
@<TRIPOS>MOLECULE
ZINC00057001
   28    28     0     0     0
SMALL
USER_CHARGES

@<TRIPOS>ATOM
      1 C1         -0.0187    1.5258    0.0104 C.3       1 <0>        -0.1499
      2 C2          0.0021   -0.0041    0.0020 C.3       1 <0>        -0.0861
      3 H1         -1.0205   -0.3814    0.0098 H         1 <0>         0.0991
      4 C3          0.7421   -0.5109    1.2415 C.3       1 <0>        -0.0413
      5 S1         -0.1871   -0.0517    2.7303 S.3       1 <0>        -0.2560
      6 C4          0.7074   -0.4901   -1.2379 C.2       1 <0>         0.5406
      7 O1          1.7039   -1.1744   -1.1398 O.2       1 <0>        -0.5341
      8 N1          0.2309   -0.1642   -2.4557 N.am      1 <0>        -0.5870
      9 C5         -0.9612    0.6622   -2.7190 C.3       1 <0>         0.1001
     10 C6         -1.4323    0.2395   -4.1329 C.3       1 <0>        -0.1344
     11 C7         -0.0792    0.0101   -4.8565 C.3       1 <0>        -0.1069
     12 C8          0.8176   -0.5687   -3.7417 C.3       1 <0>         0.0652
     13 H2          0.8397   -1.6561   -3.8134 H         1 <0>         0.0661
     14 C9          2.2140   -0.0156   -3.8646 C.2       1 <0>         0.4962
     15 O2          2.9386   -0.3858   -4.7726 O.co2     1 <0>        -0.7023
     16 O3          2.6192    0.8020   -3.0561 O.co2     1 <0>        -0.6788
     17 H3          1.0039    1.9031    0.0027 H         1 <0>         0.0664
     18 H4         -0.5459    1.8868   -0.8726 H         1 <0>         0.0680
     19 H5         -0.5289    1.8773    0.9072 H         1 <0>         0.0715
     20 H6          0.8346   -1.5958    1.1912 H         1 <0>         0.0908
     21 H7          1.7350   -0.0630    1.2804 H         1 <0>         0.0927
     22 H8          0.5521   -0.5447    3.7401 H         1 <0>         0.0864
     23 H9         -1.7373    0.4540   -1.9825 H         1 <0>         0.0699
     24 H10        -0.6995    1.7202   -2.7069 H         1 <0>         0.0682
     25 H11        -2.0144   -0.6812   -4.0917 H         1 <0>         0.0709
     26 H12        -2.0003    1.0379   -4.6104 H         1 <0>         0.0779
     27 H13        -0.1941   -0.7041   -5.6719 H         1 <0>         0.0749
     28 H14         0.3271    0.9530   -5.2227 H         1 <0>         0.0719
@<TRIPOS>BOND
     1    1    2 1
     2    1   17 1
     3    1   18 1
     4    1   19 1
     5    2    3 1
     6    2    4 1
     7    2    6 1
     8    4    5 1
     9    4   20 1
    10    4   21 1
    11    5   22 1
    12    6    7 2
    13    6    8 am
    14    8   12 1
    15    8    9 1
    16    9   10 1
    17    9   23 1
    18    9   24 1
    19   10   11 1
    20   10   25 1
    21   10   26 1
    22   11   12 1
    23   11   27 1
    24   11   28 1
    25   12   13 1
    26   12   14 1
    27   14   15 2
    28   14   16 1
@<TRIPOS>MOLECULE
ZINC22062078
   21    20     0     0     0
SMALL
USER_CHARGES
2-[[(2R)-2-methyl-3-sulfanyl-propanoyl]amino]acetic acid
@<TRIPOS>ATOM
      1 C1         -2.3627    1.1888    3.6820 C.3       1 <0>        -0.1488
      2 C2         -0.9273    1.7184    3.6711 C.3       1 <0>        -0.0872
      3 H1         -0.9345    2.8184    3.6635 H         1 <0>         0.1118
      4 C3         -0.1873    1.2116    4.9106 C.3       1 <0>        -0.0320
      5 S1         -0.9476    1.9165    6.3991 S.3       1 <0>        -0.1787
      6 C4         -0.2219    1.2324    2.4312 C.2       1 <0>         0.5143
      7 O1          0.7745    0.5480    2.5293 O.2       1 <0>        -0.5661
      8 N1         -0.6984    1.5583    1.2133 N.am      1 <0>        -0.7098
      9 C5         -0.0127    1.0858    0.0080 C.3       1 <0>         0.0782
     10 C6         -0.7416    1.5850   -1.2129 C.2       1 <0>         0.4604
     11 O2         -1.7322    2.2656   -1.0889 O.co2     1 <0>        -0.6348
     12 O3         -0.2903    1.2736   -2.4381 O.co2     1 <0>        -0.7580
     13 H2         -2.8947    1.5532    2.7908 H         1 <0>         0.0697
     14 H3         -2.8775    1.5436    4.5870 H         1 <0>         0.0802
     15 H4         -2.3478    0.0889    3.6760 H         1 <0>         0.0607
     16 H5         -0.2496    0.1141    4.9516 H         1 <0>         0.0883
     17 H6          0.8681    1.5172    4.8581 H         1 <0>         0.0902
     18 H7         -0.5482    1.6646    7.3926 H         1 <0>        -0.0119
     19 H8         -1.6021    2.1791    1.1243 H         1 <0>         0.4308
     20 H9          1.0193    1.4665    0.0002 H         1 <0>         0.0714
     21 H10         0.0022   -0.0141    0.0020 H         1 <0>         0.0713
@<TRIPOS>BOND
     1    1    2 1
     2    1   13 1
     3    1   14 1
     4    1   15 1
     5    2    3 1
     6    2    4 1
     7    2    6 1
     8    4    5 1
     9    4   16 1
    10    4   17 1
    11    5   18 1
    12    6    7 2
    13    6    8 am
    14    8    9 1
    15    8   19 1
    16    9   10 1
    17    9   20 1
    18    9   21 1
    19   10   11 2
    20   10   12 1
@<TRIPOS>MOLECULE
ZINC22062081
   21    20     0     0     0
SMALL
USER_CHARGES
2-[[(2S)-2-methyl-3-sulfanyl-propanoyl]amino]acetic acid
@<TRIPOS>ATOM
      1 C1         -2.5571   -0.0212   -1.2352 C.3       1 <0>        -0.1488
      2 C2         -2.4820    0.8526    0.0185 C.3       1 <0>        -0.0872
      3 H1         -2.5133    0.2199    0.9178 H         1 <0>         0.1118
      4 C3         -3.6583    1.8309    0.0294 C.3       1 <0>        -0.0320
      5 S1         -5.2120    0.9069    0.1808 S.3       1 <0>        -0.1788
      6 C4         -1.1873    1.6238    0.0165 C.2       1 <0>         0.5143
      7 O1         -1.2037    2.8365    0.0232 O.2       1 <0>        -0.5661
      8 N1         -0.0111    0.9658    0.0074 N.am      1 <0>        -0.7098
      9 C5          1.2475    1.7155   -0.0006 C.3       1 <0>         0.0782
     10 C6          2.4061    0.7519   -0.0169 C.2       1 <0>         0.4604
     11 O2          2.2015   -0.4389   -0.0213 O.co2     1 <0>        -0.6348
     12 O3          3.6654    1.2165   -0.0264 O.co2     1 <0>        -0.7580
     13 H2         -1.7114   -0.7246   -1.2431 H         1 <0>         0.0698
     14 H3         -2.5117    0.6169   -2.1301 H         1 <0>         0.0607
     15 H4         -3.5022   -0.5841   -1.2337 H         1 <0>         0.0802
     16 H5         -3.5558    2.5181    0.8822 H         1 <0>         0.0902
     17 H6         -3.6644    2.4075   -0.9074 H         1 <0>         0.0883
     18 H7         -6.1714    1.4444    0.2058 H         1 <0>        -0.0119
     19 H8          0.0039   -0.1341    0.0060 H         1 <0>         0.4308
     20 H9          1.2886    2.3535   -0.8958 H         1 <0>         0.0714
     21 H10         1.3058    2.3438    0.9004 H         1 <0>         0.0713
@<TRIPOS>BOND
     1    1    2 1
     2    1   13 1
     3    1   14 1
     4    1   15 1
     5    2    3 1
     6    2    4 1
     7    2    6 1
     8    4    5 1
     9    4   16 1
    10    4   17 1
    11    5   18 1
    12    6    7 2
    13    6    8 am
    14    8    9 1
    15    8   19 1
    16    9   10 1
    17    9   20 1
    18    9   21 1
    19   10   11 2
    20   10   12 1
@<TRIPOS>MOLECULE
ZINC27721564
   34    34     0     0     0
SMALL
USER_CHARGES
2-[[(2R)-2-methyl-3-sulfanyl-propanoyl]-(p-tolyl)amino]acetic acid
@<TRIPOS>ATOM
      1 C1          4.7329    4.3640    1.1695 C.3       1 <0>        -0.1059
      2 C2          3.4839    3.5349    1.0160 C.ar      1 <0>        -0.1273
      3 C3          2.2809    4.0007    1.5142 C.ar      1 <0>        -0.0989
      4 C4          1.1345    3.2432    1.3751 C.ar      1 <0>        -0.1415
      5 C5          1.1906    2.0127    0.7338 C.ar      1 <0>         0.1694
      6 C6          2.4012    1.5454    0.2393 C.ar      1 <0>        -0.1709
      7 C7          3.5431    2.3100    0.3769 C.ar      1 <0>        -0.1053
      8 N1          0.0309    1.2429    0.5912 N.am      1 <0>        -0.5157
      9 C8         -1.2688    1.7979    0.9772 C.3       1 <0>         0.0331
     10 C9         -1.4846    1.5912    2.4543 C.2       1 <0>         0.4484
     11 O1         -0.6394    1.0372    3.1166 O.co2     1 <0>        -0.6177
     12 O2         -2.6157    2.0227    3.0341 O.co2     1 <0>        -0.7593
     13 C10         0.1089   -0.0072    0.0936 C.2       1 <0>         0.5361
     14 O3          1.1708   -0.4357   -0.3062 O.2       1 <0>        -0.5345
     15 C11        -1.1234   -0.8727    0.0339 C.3       1 <0>        -0.0918
     16 H1         -1.6515   -0.7999    0.9961 H         1 <0>         0.1212
     17 C12        -2.0330   -0.3876   -1.0967 C.3       1 <0>        -0.1547
     18 C13        -0.7152   -2.3240   -0.2270 C.3       1 <0>        -0.0321
     19 S1         -2.1827   -3.3877   -0.1522 S.3       1 <0>        -0.1691
     20 H2          4.4907    5.2972    1.6991 H         1 <0>         0.0595
     21 H3          5.1398    4.6015    0.1755 H         1 <0>         0.0612
     22 H4          5.4798    3.7985    1.7460 H         1 <0>         0.0620
     23 H5          2.2379    4.9577    2.0128 H         1 <0>         0.1190
     24 H6          0.1953    3.6076    1.7644 H         1 <0>         0.1252
     25 H7          2.4490    0.5867   -0.2557 H         1 <0>         0.1803
     26 H8          4.4841    1.9490   -0.0110 H         1 <0>         0.1164
     27 H9         -1.2898    2.8741    0.7506 H         1 <0>         0.0919
     28 H10        -2.0661    1.2893    0.4154 H         1 <0>         0.1086
     29 H11        -2.9325   -1.0193   -1.1403 H         1 <0>         0.0872
     30 H12        -1.4940   -0.4505   -2.0535 H         1 <0>         0.0636
     31 H13        -2.3265    0.6558   -0.9091 H         1 <0>         0.0740
     32 H14        -0.2560   -2.4022   -1.2235 H         1 <0>         0.0916
     33 H15         0.0090   -2.6441    0.5366 H         1 <0>         0.0891
     34 H16        -2.0856   -4.4711   -0.3157 H         1 <0>        -0.0128
@<TRIPOS>BOND
     1    1    2 1
     2    1   20 1
     3    1   21 1
     4    1   22 1
     5    2    7 ar
     6    2    3 ar
     7    3    4 ar
     8    3   23 1
     9    4    5 ar
    10    4   24 1
    11    5    6 ar
    12    5    8 1
    13    6    7 ar
    14    6   25 1
    15    7   26 1
    16    8    9 1
    17    8   13 am
    18    9   10 1
    19    9   27 1
    20    9   28 1
    21   10   11 2
    22   10   12 1
    23   13   14 2
    24   13   15 1
    25   15   16 1
    26   15   17 1
    27   15   18 1
    28   17   29 1
    29   17   30 1
    30   17   31 1
    31   18   19 1
    32   18   32 1
    33   18   33 1
    34   19   34 1
@<TRIPOS>MOLECULE
ZINC27721572
   34    34     0     0     0
SMALL
USER_CHARGES
2-[[(2S)-2-methyl-3-sulfanyl-propanoyl]-(p-tolyl)amino]acetic acid
@<TRIPOS>ATOM
      1 C1          2.3544    5.8633    3.2622 C.3       1 <0>        -0.1061
      2 C2          1.7117    4.5996    2.7512 C.ar      1 <0>        -0.1272
      3 C3          2.4587    3.6908    2.0244 C.ar      1 <0>        -0.0977
      4 C4          1.8726    2.5317    1.5547 C.ar      1 <0>        -0.1454
      5 C5          0.5318    2.2793    1.8133 C.ar      1 <0>         0.1696
      6 C6         -0.2169    3.1963    2.5393 C.ar      1 <0>        -0.1638
      7 C7          0.3763    4.3512    3.0104 C.ar      1 <0>        -0.1038
      8 N1         -0.0651    1.1062    1.3385 N.am      1 <0>        -0.5189
      9 C8          0.7586    0.0622    0.7238 C.3       1 <0>         0.0412
     10 C9          0.8528    0.3054   -0.7604 C.2       1 <0>         0.4509
     11 O1          0.2896    1.2535   -1.2542 O.co2     1 <0>        -0.6145
     12 O2          1.5623   -0.5313   -1.5339 O.co2     1 <0>        -0.7589
     13 C10        -1.3978    0.9367    1.4465 C.2       1 <0>         0.5363
     14 O3         -2.0922    1.8398    1.8629 O.2       1 <0>        -0.5323
     15 C11        -2.0252   -0.3748    1.0499 C.3       1 <0>        -0.0867
     16 H1         -1.2789   -1.1734    1.1732 H         1 <0>         0.1095
     17 C12        -2.4748   -0.3040   -0.4108 C.3       1 <0>        -0.1509
     18 C13        -3.2360   -0.6517    1.9433 C.3       1 <0>        -0.0371
     19 S1         -3.9023   -2.2962    1.5660 S.3       1 <0>        -0.1663
     20 H2          3.4118    5.8851    2.9598 H         1 <0>         0.0597
     21 H3          2.2863    5.8914    4.3597 H         1 <0>         0.0613
     22 H4          1.8342    6.7358    2.8401 H         1 <0>         0.0623
     23 H5          3.5015    3.8877    1.8237 H         1 <0>         0.1195
     24 H6          2.4566    1.8223    0.9872 H         1 <0>         0.1261
     25 H7         -1.2609    3.0048    2.7386 H         1 <0>         0.1726
     26 H8         -0.2045    5.0630    3.5782 H         1 <0>         0.1169
     27 H9          1.7666    0.0840    1.1636 H         1 <0>         0.0934
     28 H10         0.3004   -0.9211    0.9059 H         1 <0>         0.0986
     29 H11        -2.9328   -1.2613   -0.7003 H         1 <0>         0.0795
     30 H12        -1.6043   -0.1049   -1.0531 H         1 <0>         0.0875
     31 H13        -3.2106    0.5051   -0.5291 H         1 <0>         0.0606
     32 H14        -2.9291   -0.6138    2.9989 H         1 <0>         0.0829
     33 H15        -4.0094    0.1085    1.7588 H         1 <0>         0.0951
     34 H16        -4.7802   -2.6724    2.1116 H         1 <0>        -0.0143
@<TRIPOS>BOND
     1    1    2 1
     2    1   20 1
     3    1   21 1
     4    1   22 1
     5    2    7 ar
     6    2    3 ar
     7    3    4 ar
     8    3   23 1
     9    4    5 ar
    10    4   24 1
    11    5    6 ar
    12    5    8 1
    13    6    7 ar
    14    6   25 1
    15    7   26 1
    16    8    9 1
    17    8   13 am
    18    9   10 1
    19    9   27 1
    20    9   28 1
    21   10   11 2
    22   10   12 1
    23   13   14 2
    24   13   15 1
    25   15   16 1
    26   15   17 1
    27   15   18 1
    28   17   29 1
    29   17   30 1
    30   17   31 1
    31   18   19 1
    32   18   32 1
    33   18   33 1
    34   19   34 1
@<TRIPOS>MOLECULE
ZINC00057000
   28    28     0     0     0
SMALL
USER_CHARGES

@<TRIPOS>ATOM
      1 C1          0.5658    1.3531   -0.4125 C.3       1 <0>        -0.1406
      2 C2          0.0004   -0.0068    0.0019 C.3       1 <0>        -0.0875
      3 H1         -1.0371    0.1111    0.3146 H         1 <0>         0.0958
      4 C3          0.0691   -0.9707   -1.1843 C.3       1 <0>        -0.0447
      5 S1         -1.0224   -0.3801   -2.5074 S.3       1 <0>        -0.2555
      6 C4          0.8101   -0.5599    1.1462 C.2       1 <0>         0.5393
      7 O1          1.8271   -1.1824    0.9243 O.2       1 <0>        -0.5275
      8 N1          0.4042   -0.3629    2.4162 N.am      1 <0>        -0.5887
      9 C5         -0.8593    0.2775    2.8248 C.3       1 <0>         0.0995
     10 C6         -0.5882    0.8144    4.2523 C.3       1 <0>        -0.1328
     11 C7          0.3107   -0.3051    4.8407 C.3       1 <0>        -0.1069
     12 C8          1.1450   -0.7568    3.6234 C.3       1 <0>         0.0647
     13 H2          2.1171   -0.2639    3.6391 H         1 <0>         0.0659
     14 C9          1.3253   -2.2528    3.6489 C.2       1 <0>         0.4968
     15 O2          2.0685   -2.7634    4.4696 O.co2     1 <0>        -0.7029
     16 O3          0.7279   -2.9525    2.8489 O.co2     1 <0>        -0.6790
     17 H3          1.6267    1.2511   -0.6411 H         1 <0>         0.0631
     18 H4          0.0370    1.7128   -1.2951 H         1 <0>         0.0765
     19 H5          0.4367    2.0642    0.4034 H         1 <0>         0.0600
     20 H6          1.0935   -1.0201   -1.5534 H         1 <0>         0.0948
     21 H7         -0.2505   -1.9628   -0.8654 H         1 <0>         0.0912
     22 H8         -0.8783   -1.2964   -3.4814 H         1 <0>         0.0875
     23 H9         -1.1038    1.0985    2.1508 H         1 <0>         0.0698
     24 H10        -1.6672   -0.4540    2.8417 H         1 <0>         0.0657
     25 H11        -0.0560    1.7650    4.2177 H         1 <0>         0.0710
     26 H12        -1.5157    0.9081    4.8172 H         1 <0>         0.0778
     27 H13         0.9540    0.0902    5.6268 H         1 <0>         0.0750
     28 H14        -0.2958   -1.1296    5.2153 H         1 <0>         0.0717
@<TRIPOS>BOND
     1    1    2 1
     2    1   17 1
     3    1   18 1
     4    1   19 1
     5    2    3 1
     6    2    4 1
     7    2    6 1
     8    4    5 1
     9    4   20 1
    10    4   21 1
    11    5   22 1
    12    6    7 2
    13    6    8 am
    14    8   12 1
    15    8    9 1
    16    9   10 1
    17    9   23 1
    18    9   24 1
    19   10   11 1
    20   10   25 1
    21   10   26 1
    22   11   12 1
    23   11   27 1
    24   11   28 1
    25   12   13 1
    26   12   14 1
    27   14   15 2
    28   14   16 1
@<TRIPOS>MOLECULE
ZINC00057002
   28    28     0     0     0
SMALL
USER_CHARGES

@<TRIPOS>ATOM
      1 C1         -0.0187    1.5258    0.0104 C.3       1 <0>        -0.1503
      2 C2          0.0021   -0.0041    0.0020 C.3       1 <0>        -0.0859
      3 H1         -1.0205   -0.3814    0.0098 H         1 <0>         0.1004
      4 C3          0.7182   -0.4975   -1.2568 C.3       1 <0>        -0.0423
      5 S1         -0.2391   -0.0225   -2.7225 S.3       1 <0>        -0.2547
      6 C4          0.7309   -0.5033    1.2229 C.2       1 <0>         0.5358
      7 O1          1.7253   -1.1865    1.0985 O.2       1 <0>        -0.5377
      8 N1          0.2778   -0.1906    2.4531 N.am      1 <0>        -0.5850
      9 C5         -0.9163    0.6222    2.7480 C.3       1 <0>         0.1005
     10 C6         -1.3537    0.1837    4.1679 C.3       1 <0>        -0.1331
     11 C7          0.0165   -0.0384    4.8612 C.3       1 <0>        -0.1100
     12 C8          0.8889   -0.6088    3.7232 C.3       1 <0>         0.0655
     13 H2          0.9134   -1.6969    3.7822 H         1 <0>         0.0667
     14 C9          2.2868   -0.0554    3.8262 C.2       1 <0>         0.4987
     15 O2          2.5659    1.0004    3.2842 O.co2     1 <0>        -0.6860
     16 O3          3.1387   -0.6636    4.4515 O.co2     1 <0>        -0.6982
     17 H3          1.0039    1.9031    0.0027 H         1 <0>         0.0659
     18 H4         -0.5459    1.8868   -0.8726 H         1 <0>         0.0725
     19 H5         -0.5289    1.8773    0.9072 H         1 <0>         0.0691
     20 H6          1.7103   -0.0491   -1.3098 H         1 <0>         0.0923
     21 H7          0.8116   -1.5829   -1.2198 H         1 <0>         0.0913
     22 H8          0.4806   -0.5045   -3.7515 H         1 <0>         0.0866
     23 H9         -0.6649    1.6828    2.7390 H         1 <0>         0.0707
     24 H10        -1.7056    0.4125    2.0262 H         1 <0>         0.0696
     25 H11        -1.9190    0.9728    4.6636 H         1 <0>         0.0784
     26 H12        -1.9277   -0.7421    4.1314 H         1 <0>         0.0708
     27 H13         0.4214    0.9054    5.2264 H         1 <0>         0.0743
     28 H14        -0.0746   -0.7601    5.6730 H         1 <0>         0.0740
@<TRIPOS>BOND
     1    1    2 1
     2    1   17 1
     3    1   18 1
     4    1   19 1
     5    2    3 1
     6    2    4 1
     7    2    6 1
     8    4    5 1
     9    4   20 1
    10    4   21 1
    11    5   22 1
    12    6    7 2
    13    6    8 am
    14    8   12 1
    15    8    9 1
    16    9   10 1
    17    9   23 1
    18    9   24 1
    19   10   11 1
    20   10   25 1
    21   10   26 1
    22   11   12 1
    23   11   27 1
    24   11   28 1
    25   12   13 1
    26   12   14 1
    27   14   15 2
    28   14   16 1
@<TRIPOS>MOLECULE
ZINC01532334
   48    49     0     0     0
SMALL
USER_CHARGES
(2R)-1-[(2S)-2-[[(1S)-1-carboxy-3-phenyl-propyl]amino]propanoyl]pyrrolidine-2-carboxylic acid
@<TRIPOS>ATOM
      1 C1         -1.3973   -4.3397    1.7157 C.3       1 <0>        -0.1604
      2 C2         -1.0147   -3.8618    0.3135 C.3       1 <0>         0.0231
      3 H1          0.0166   -4.1443    0.1022 H         1 <0>         0.1406
      4 C3         -1.9282   -4.4997   -0.7013 C.2       1 <0>         0.5244
      5 O1         -2.9317   -3.9218   -1.0617 O.2       1 <0>        -0.5212
      6 N1         -1.6300   -5.7123   -1.2082 N.am      1 <0>        -0.5773
      7 C4         -0.5071   -6.5683   -0.7844 C.3       1 <0>         0.0867
      8 C5         -0.9393   -8.0065   -1.1644 C.3       1 <0>        -0.1329
      9 C6         -1.6849   -7.7642   -2.5033 C.3       1 <0>        -0.1053
     10 C7         -2.3746   -6.4034   -2.2711 C.3       1 <0>         0.0901
     11 H2         -3.4077   -6.5576   -1.9598 H         1 <0>         0.0816
     12 C8         -2.3342   -5.5885   -3.5381 C.2       1 <0>         0.4650
     13 O2         -1.7444   -4.5342   -3.5598 O.co2     1 <0>        -0.6273
     14 C9          0.0690   -1.7371    0.7304 C.3       1 <0>        -0.0195
     15 H3          0.9416   -2.3309    0.4580 H         1 <0>         0.1357
     16 C10         0.1807   -0.3475    0.1000 C.3       1 <0>        -0.1171
     17 C11         0.3760   -0.4872   -1.4110 C.3       1 <0>        -0.0974
     18 C12         0.4860    0.8815   -2.0320 C.ar      1 <0>        -0.0792
     19 C13        -0.6497    1.5316   -2.4776 C.ar      1 <0>        -0.1148
     20 C14        -0.5493    2.7890   -3.0432 C.ar      1 <0>        -0.1177
     21 C15         0.6878    3.3924   -3.1715 C.ar      1 <0>        -0.1238
     22 C16         1.8240    2.7400   -2.7306 C.ar      1 <0>        -0.1190
     23 C17         1.7231    1.4845   -2.1611 C.ar      1 <0>        -0.1124
     24 C18         0.0000   -1.6044    2.2300 C.2       1 <0>         0.4627
     25 O3         -0.9632   -2.0198    2.8296 O.co2     1 <0>        -0.6090
     26 H4         -1.4285   -5.4291    1.7323 H         1 <0>         0.0833
     27 H5         -0.6578   -3.9863    2.4343 H         1 <0>         0.1096
     28 H6         -2.3781   -3.9441    1.9793 H         1 <0>         0.0862
     29 H7          0.4026   -6.2922   -1.3177 H         1 <0>         0.0739
     30 H8         -0.3542   -6.4882    0.2918 H         1 <0>         0.0775
     31 H9         -0.0714   -8.6493   -1.3114 H         1 <0>         0.0850
     32 H10        -1.6102   -8.4241   -0.4137 H         1 <0>         0.0765
     33 H11        -0.9798   -7.7067   -3.3325 H         1 <0>         0.0779
     34 H12        -2.4235   -8.5460   -2.6805 H         1 <0>         0.0837
     35 H13         1.0331    0.1788    0.5294 H         1 <0>         0.1170
     36 H14        -0.7313    0.2156    0.2980 H         1 <0>         0.0818
     37 H15        -0.4765   -1.0136   -1.8404 H         1 <0>         0.0709
     38 H16         1.2880   -1.0503   -1.6090 H         1 <0>         0.0864
     39 H17        -1.6157    1.0586   -2.3808 H         1 <0>         0.1226
     40 H18        -1.4370    3.2987   -3.3873 H         1 <0>         0.1219
     41 H19         0.7665    4.3736   -3.6158 H         1 <0>         0.1201
     42 H20         2.7905    3.2115   -2.8309 H         1 <0>         0.1216
     43 H21         2.6109    0.9749   -1.8167 H         1 <0>         0.1237
     44 O4         -2.9535   -6.0339   -4.6426 O.co2     1 <0>        -0.7580
     45 N2         -1.1556   -2.3955    0.2375 N.4       1 <0>        -0.4874
     46 H22        -1.9533   -2.1016    0.8132 H         1 <0>         0.4352
     47 H23        -1.3183   -2.1210   -0.7384 H         1 <0>         0.4229
     48 O5          1.0086   -1.0246    2.8996 O.co2     1 <0>        -0.7077
@<TRIPOS>BOND
     1    1    2 1
     2    1   26 1
     3    1   27 1
     4    1   28 1
     5    2    3 1
     6    2    4 1
     7    2   45 1
     8    4    5 2
     9    4    6 am
    10    6   10 1
    11    6    7 1
    12    7    8 1
    13    7   29 1
    14    7   30 1
    15    8    9 1
    16    8   31 1
    17    8   32 1
    18    9   10 1
    19    9   33 1
    20    9   34 1
    21   10   11 1
    22   10   12 1
    23   12   13 2
    24   12   44 1
    25   14   15 1
    26   14   16 1
    27   14   24 1
    28   14   45 1
    29   16   17 1
    30   16   35 1
    31   16   36 1
    32   17   18 1
    33   17   37 1
    34   17   38 1
    35   18   23 ar
    36   18   19 ar
    37   19   20 ar
    38   19   39 1
    39   20   21 ar
    40   20   40 1
    41   21   22 ar
    42   21   41 1
    43   22   23 ar
    44   22   42 1
    45   23   43 1
    46   24   25 2
    47   24   48 1
    48   45   46 1
    49   45   47 1
@<TRIPOS>MOLECULE
ZINC03812851
   48    49     0     0     0
SMALL
USER_CHARGES

@<TRIPOS>ATOM
      1 C1         -1.4456   -0.3077    0.0442 C.3       1 <0>        -0.1742
      2 C2          0.0722   -0.1534    0.1596 C.3       1 <0>         0.0100
      3 H1          0.3177    0.8911    0.3515 H         1 <0>         0.1708
      4 C3          0.5789   -1.0052    1.2949 C.2       1 <0>         0.5276
      5 O1          1.3873   -1.8834    1.0802 O.2       1 <0>        -0.5254
      6 N1          0.1335   -0.7910    2.5488 N.am      1 <0>        -0.5683
      7 C4         -0.8487    0.2330    2.9486 C.3       1 <0>         0.0882
      8 C5         -0.5618    0.4936    4.4484 C.3       1 <0>        -0.1335
      9 C6         -0.2014   -0.9302    4.9486 C.3       1 <0>        -0.1074
     10 C7          0.5421   -1.5442    3.7435 C.3       1 <0>         0.0637
     11 H2          1.6185   -1.4533    3.8889 H         1 <0>         0.0738
     12 C8          0.1636   -2.9947    3.5892 C.2       1 <0>         0.4996
     13 O2          0.5749   -3.8203    4.3866 O.co2     1 <0>        -0.6928
     14 O3         -0.5540   -3.3427    2.6670 O.co2     1 <0>        -0.6829
     15 N2          0.7048   -0.5827   -1.0948 N.4       1 <0>        -0.4643
     16 C9          2.1416   -0.2803   -1.0471 C.3       1 <0>        -0.0600
     17 H3          2.5739   -0.7118   -0.1443 H         1 <0>         0.1486
     18 C10         2.8293   -0.8764   -2.2771 C.3       1 <0>        -0.1097
     19 C11         2.7349   -2.4025   -2.2247 C.3       1 <0>        -0.0932
     20 C12         3.4122   -2.9896   -3.4361 C.ar      1 <0>        -0.0771
     21 C13         2.6890   -3.2102   -4.5934 C.ar      1 <0>        -0.1190
     22 C14         3.3103   -3.7487   -5.7046 C.ar      1 <0>        -0.1195
     23 C15         4.6549   -4.0662   -5.6587 C.ar      1 <0>        -0.1259
     24 C16         5.3783   -3.8448   -4.5018 C.ar      1 <0>        -0.1170
     25 C17         4.7580   -3.3023   -3.3919 C.ar      1 <0>        -0.1119
     26 C18         2.3404    1.2135   -1.0350 C.2       1 <0>         0.4980
     27 O4          1.3875    1.9566   -1.1964 O.co2     1 <0>        -0.6788
     28 O5          3.4543    1.6788   -0.8637 O.co2     1 <0>        -0.6404
     29 H4         -1.8224    0.3699   -0.7219 H         1 <0>         0.0871
     30 H5         -1.6867   -1.3350   -0.2289 H         1 <0>         0.0811
     31 H6         -1.9090   -0.0678    1.0012 H         1 <0>         0.1053
     32 H7         -0.7023    1.1453    2.3703 H         1 <0>         0.0765
     33 H8         -1.8634   -0.1424    2.8161 H         1 <0>         0.0757
     34 H9          0.2792    1.1758    4.5725 H         1 <0>         0.0762
     35 H10        -1.4488    0.8730    4.9557 H         1 <0>         0.0832
     36 H11         0.4498   -0.8791    5.8212 H         1 <0>         0.0800
     37 H12        -1.1032   -1.5003    5.1719 H         1 <0>         0.0746
     38 H13         0.5740   -1.5759   -1.2147 H         1 <0>         0.4113
     39 H14         2.3383   -0.5127   -3.1797 H         1 <0>         0.0758
     40 H15         3.8774   -0.5773   -2.2879 H         1 <0>         0.1081
     41 H16         3.2258   -2.7662   -1.3220 H         1 <0>         0.0921
     42 H17         1.6868   -2.7016   -2.2138 H         1 <0>         0.0645
     43 H18         1.6385   -2.9621   -4.6292 H         1 <0>         0.1194
     44 H19         2.7452   -3.9217   -6.6085 H         1 <0>         0.1204
     45 H20         5.1402   -4.4876   -6.5267 H         1 <0>         0.1196
     46 H21         6.4288   -4.0932   -4.4658 H         1 <0>         0.1219
     47 H22         5.3240   -3.1259   -2.4892 H         1 <0>         0.1250
     48 H23         0.2834   -0.0920   -1.8691 H         1 <0>         0.4233
@<TRIPOS>BOND
     1    1    2 1
     2    1   29 1
     3    1   30 1
     4    1   31 1
     5    2    3 1
     6    2    4 1
     7    2   15 1
     8    4    5 2
     9    4    6 am
    10    6   10 1
    11    6    7 1
    12    7    8 1
    13    7   32 1
    14    7   33 1
    15    8    9 1
    16    8   34 1
    17    8   35 1
    18    9   10 1
    19    9   36 1
    20    9   37 1
    21   10   11 1
    22   10   12 1
    23   12   13 2
    24   12   14 1
    25   15   16 1
    26   15   38 1
    27   15   48 1
    28   16   17 1
    29   16   18 1
    30   16   26 1
    31   18   19 1
    32   18   39 1
    33   18   40 1
    34   19   20 1
    35   19   41 1
    36   19   42 1
    37   20   25 ar
    38   20   21 ar
    39   21   22 ar
    40   21   43 1
    41   22   23 ar
    42   22   44 1
    43   23   24 ar
    44   23   45 1
    45   24   25 ar
    46   24   46 1
    47   25   47 1
    48   26   27 2
    49   26   28 1
@<TRIPOS>MOLECULE
ZINC01995314
   48    48     0     0     0
SMALL
USER_CHARGES
2-[cyclopentyl-[3-(2,2-dimethylpropanoylsulfanyl)-2-methyl-propanoyl]-amino]acetic acid
@<TRIPOS>ATOM
      1 C1          0.7877    3.0889    4.9499 C.3       1 <0>        -0.1343
      2 C2          1.0226    1.6380    4.5247 C.3       1 <0>        -0.0991
      3 H1          2.0583    1.5154    4.2078 H         1 <0>         0.1084
      4 C3          0.7370    0.7079    5.7055 C.3       1 <0>        -0.0881
      5 S1          1.9370    1.0208    7.0239 S.3       1 <0>        -0.1129
      6 C4          1.4051   -0.1180    8.1864 C.2       1 <0>         0.3311
      7 O1          0.4517   -0.8291    7.9469 O.2       1 <0>        -0.4512
      8 C5          2.1211   -0.2370    9.5071 C.3       1 <0>        -0.0907
      9 C6          1.4502   -1.3194   10.3551 C.3       1 <0>        -0.1301
     10 C7          3.5835   -0.6144    9.2622 C.3       1 <0>        -0.1417
     11 C8          2.0566    1.1019   10.2447 C.3       1 <0>        -0.1399
     12 C9          0.1033    1.2947    3.3810 C.2       1 <0>         0.5389
     13 O2         -0.9384    1.8990    3.2378 O.2       1 <0>        -0.5548
     14 N1          0.4388    0.3160    2.5172 N.am      1 <0>        -0.5752
     15 C10         1.7471   -0.3352    2.6203 C.3       1 <0>         0.0574
     16 C11         2.7767    0.4874    1.8894 C.2       1 <0>         0.4477
     17 O3          2.4511    1.5125    1.3388 O.co2     1 <0>        -0.6179
     18 C12        -0.5047   -0.0966    1.4752 C.3       1 <0>         0.1402
     19 C13        -0.8616   -1.5894    1.6304 C.3       1 <0>        -0.1374
     20 C14        -0.9742   -2.1656    0.2081 C.3       1 <0>        -0.1190
     21 C15        -0.6824   -1.0029   -0.7629 C.3       1 <0>        -0.1246
     22 C16         0.1572   -0.0084    0.0768 C.3       1 <0>        -0.1250
     23 H2         -0.2670    3.2326    5.1842 H         1 <0>         0.0670
     24 H3          1.3893    3.3111    5.8313 H         1 <0>         0.0662
     25 H4          1.0736    3.7565    4.1371 H         1 <0>         0.0661
     26 H5         -0.2700    0.8938    6.0791 H         1 <0>         0.0998
     27 H6          0.8179   -0.3289    5.3791 H         1 <0>         0.0971
     28 H7          1.4962   -2.2733    9.8296 H         1 <0>         0.0612
     29 H8          1.9681   -1.4055   11.3104 H         1 <0>         0.0648
     30 H9          0.4084   -1.0506   10.5296 H         1 <0>         0.0602
     31 H10         4.0614    0.1567    8.6580 H         1 <0>         0.0717
     32 H11         4.1014   -0.7005   10.2174 H         1 <0>         0.0702
     33 H12         3.6295   -1.5682    8.7366 H         1 <0>         0.0622
     34 H13         1.0147    1.3707   10.4192 H         1 <0>         0.0602
     35 H14         2.5744    1.0157   11.2000 H         1 <0>         0.0701
     36 H15         2.5345    1.8730    9.6405 H         1 <0>         0.0706
     37 H16         2.0287   -0.4208    3.6698 H         1 <0>         0.0780
     38 H17         1.6941   -1.3292    2.1761 H         1 <0>         0.0856
     39 H18        -1.4052    0.5166    1.5102 H         1 <0>         0.0996
     40 H19        -1.8131   -1.6935    2.1518 H         1 <0>         0.0637
     41 H20        -0.0757   -2.1059    2.1814 H         1 <0>         0.0690
     42 H21        -0.2423   -2.9612    0.0685 H         1 <0>         0.0630
     43 H22        -1.9803   -2.5495    0.0393 H         1 <0>         0.0607
     44 H23        -0.1098   -1.3565   -1.6203 H         1 <0>         0.0647
     45 H24        -1.6118   -0.5365   -1.0897 H         1 <0>         0.0629
     46 H25         1.1991   -0.3252    0.1227 H         1 <0>         0.0791
     47 H26         0.0792    1.0007   -0.3278 H         1 <0>         0.0703
     48 O4          4.0555    0.0813    1.8499 O.co2     1 <0>        -0.7655
@<TRIPOS>BOND
     1    1    2 1
     2    1   23 1
     3    1   24 1
     4    1   25 1
     5    2    3 1
     6    2    4 1
     7    2   12 1
     8    4    5 1
     9    4   26 1
    10    4   27 1
    11    5    6 1
    12    6    7 2
    13    6    8 1
    14    8    9 1
    15    8   10 1
    16    8   11 1
    17    9   28 1
    18    9   29 1
    19    9   30 1
    20   10   31 1
    21   10   32 1
    22   10   33 1
    23   11   34 1
    24   11   35 1
    25   11   36 1
    26   12   13 2
    27   12   14 am
    28   14   15 1
    29   14   18 1
    30   15   16 1
    31   15   37 1
    32   15   38 1
    33   16   17 2
    34   16   48 1
    35   18   22 1
    36   18   19 1
    37   18   39 1
    38   19   20 1
    39   19   40 1
    40   19   41 1
    41   20   21 1
    42   20   42 1
    43   20   43 1
    44   21   22 1
    45   21   44 1
    46   21   45 1
    47   22   46 1
    48   22   47 1
@<TRIPOS>MOLECULE
ZINC04217336
   48    48     0     0     0
SMALL
USER_CHARGES
2-[cyclopentyl-[3-(2,2-dimethylpropanoylsulfanyl)-2-methyl-propanoyl]-amino]acetic acid
@<TRIPOS>ATOM
      1 C1          1.3447    3.2710    1.1569 C.3       1 <0>        -0.1461
      2 C2          1.9923    3.4772   -0.2139 C.3       1 <0>        -0.0958
      3 H1          1.4136    4.2044   -0.7834 H         1 <0>         0.1026
      4 C3          2.0236    2.1466   -0.9685 C.3       1 <0>        -0.0761
      5 S1          0.3302    1.6095   -1.3148 S.3       1 <0>        -0.1391
      6 C4          0.6462    0.1429   -2.1396 C.2       1 <0>         0.3346
      7 O1          1.7907   -0.2189   -2.3170 O.2       1 <0>        -0.4412
      8 C5         -0.4970   -0.6987   -2.6454 C.3       1 <0>        -0.0900
      9 C6          0.0554   -1.9452   -3.3395 C.3       1 <0>        -0.1317
     10 C7         -1.3801   -1.1192   -1.4689 C.3       1 <0>        -0.1391
     11 C8         -1.3270    0.1140   -3.6412 C.3       1 <0>        -0.1404
     12 C9          3.3995    3.9854   -0.0333 C.2       1 <0>         0.5262
     13 O2          4.3331    3.2122   -0.0712 O.2       1 <0>        -0.5443
     14 N1          3.6205    5.2993    0.1703 N.am      1 <0>        -0.5747
     15 C10         4.9917    5.8132    0.2142 C.3       1 <0>         0.0702
     16 C11         5.4228    6.2134   -1.1733 C.2       1 <0>         0.4539
     17 O3          4.6627    6.0826   -2.1033 O.co2     1 <0>        -0.6233
     18 C12         2.4896    6.2134    0.3477 C.3       1 <0>         0.1331
     19 C13         2.5530    7.3425   -0.7016 C.3       1 <0>        -0.1426
     20 C14         2.0614    8.5978    0.0610 C.3       1 <0>        -0.1245
     21 C15         2.6801    8.4071    1.4681 C.3       1 <0>        -0.1228
     22 C16         2.5703    6.8903    1.7272 C.3       1 <0>        -0.1370
     23 H2          1.3304    4.2171    1.6980 H         1 <0>         0.0671
     24 H3          0.3240    2.9117    1.0262 H         1 <0>         0.0729
     25 H4          1.9184    2.5373    1.7231 H         1 <0>         0.0647
     26 H5          2.5257    1.3950   -0.3592 H         1 <0>         0.1038
     27 H6          2.5636    2.2736   -1.9068 H         1 <0>         0.1007
     28 H7          0.6467   -2.5242   -2.6301 H         1 <0>         0.0613
     29 H8         -0.7715   -2.5539   -3.7053 H         1 <0>         0.0652
     30 H9          0.6846   -1.6456   -4.1776 H         1 <0>         0.0620
     31 H10        -1.7737   -0.2311   -0.9744 H         1 <0>         0.0695
     32 H11        -2.2070   -1.7279   -1.8347 H         1 <0>         0.0699
     33 H12        -0.7889   -1.6981   -0.7594 H         1 <0>         0.0606
     34 H13        -0.6978    0.4136   -4.4793 H         1 <0>         0.0619
     35 H14        -2.1539   -0.4947   -4.0070 H         1 <0>         0.0701
     36 H15        -1.7205    1.0021   -3.1467 H         1 <0>         0.0699
     37 H16         5.0335    6.6812    0.8721 H         1 <0>         0.0794
     38 H17         5.6583    5.0382    0.5924 H         1 <0>         0.0867
     39 H18         1.5506    5.6679    0.2539 H         1 <0>         0.0885
     40 H19         3.5766    7.4835   -1.0487 H         1 <0>         0.1050
     41 H20         1.8919    7.1220   -1.5397 H         1 <0>         0.0645
     42 H21         0.9729    8.6143    0.1166 H         1 <0>         0.0614
     43 H22         2.4392    9.5068   -0.4071 H         1 <0>         0.0650
     44 H23         2.1117    8.9636    2.2134 H         1 <0>         0.0621
     45 H24         3.7242    8.7201    1.4713 H         1 <0>         0.0669
     46 H25         1.6702    6.6740    2.3026 H         1 <0>         0.0673
     47 H26         3.4510    6.5387    2.2647 H         1 <0>         0.0715
     48 O4          6.6513    6.7150   -1.3759 O.co2     1 <0>        -0.7698
@<TRIPOS>BOND
     1    1    2 1
     2    1   23 1
     3    1   24 1
     4    1   25 1
     5    2    3 1
     6    2    4 1
     7    2   12 1
     8    4    5 1
     9    4   26 1
    10    4   27 1
    11    5    6 1
    12    6    7 2
    13    6    8 1
    14    8    9 1
    15    8   10 1
    16    8   11 1
    17    9   28 1
    18    9   29 1
    19    9   30 1
    20   10   31 1
    21   10   32 1
    22   10   33 1
    23   11   34 1
    24   11   35 1
    25   11   36 1
    26   12   13 2
    27   12   14 am
    28   14   15 1
    29   14   18 1
    30   15   16 1
    31   15   37 1
    32   15   38 1
    33   16   17 2
    34   16   48 1
    35   18   22 1
    36   18   19 1
    37   18   39 1
    38   19   20 1
    39   19   40 1
    40   19   41 1
    41   20   21 1
    42   20   42 1
    43   20   43 1
    44   21   22 1
    45   21   44 1
    46   21   45 1
    47   22   46 1
    48   22   47 1
@<TRIPOS>MOLECULE
ZINC05395387
   25    25     0     0     0
SMALL
USER_CHARGES
1-(3-sulfanylpropanoyl)pyrrolidine-2-carboxylic acid
@<TRIPOS>ATOM
      1 C1          0.6506   -0.1157   -4.1559 C.3       1 <0>        -0.1343
      2 C2         -0.0560    1.0779   -4.8511 C.3       1 <0>        -0.1048
      3 C3         -0.8995    1.6905   -3.7132 C.3       1 <0>         0.0914
      4 H1         -1.9236    1.3218   -3.7710 H         1 <0>         0.0735
      5 N1         -0.2884    1.2723   -2.4431 N.am      1 <0>        -0.5968
      6 C4          0.9056    0.4595   -2.7379 C.3       1 <0>         0.0996
      7 C5         -0.7416    1.5850   -1.2129 C.2       1 <0>         0.5367
      8 O1         -1.7359    2.2682   -1.0884 O.2       1 <0>        -0.5291
      9 C6         -0.0127    1.0858    0.0080 C.3       1 <0>        -0.1164
     10 C7         -0.7288    1.5792    1.2668 C.3       1 <0>        -0.0444
     11 S1          0.1485    0.9783    2.7364 S.3       1 <0>        -0.2622
     12 C8         -0.8863    3.1938   -3.8178 C.2       1 <0>         0.4620
     13 O2         -0.4153    3.8575   -2.9247 O.co2     1 <0>        -0.6198
     14 H2         -0.0029   -0.9872   -4.1159 H         1 <0>         0.0724
     15 H3          1.5901   -0.3570   -4.6531 H         1 <0>         0.0789
     16 H4         -0.6966    0.7283   -5.6608 H         1 <0>         0.0782
     17 H5          0.6751    1.7974   -5.2196 H         1 <0>         0.0745
     18 H6          1.7995    1.0833   -2.7342 H         1 <0>         0.0661
     19 H7          1.0030   -0.3486   -2.0130 H         1 <0>         0.0714
     20 H8          0.0021   -0.0041    0.0020 H         1 <0>         0.0973
     21 H9          1.0099    1.4631    0.0003 H         1 <0>         0.1009
     22 H10        -0.7436    2.6691    1.2728 H         1 <0>         0.0945
     23 H11        -1.7514    1.2020    1.2746 H         1 <0>         0.0906
     24 H12        -0.5652    1.4698    3.7651 H         1 <0>         0.0913
     25 O3         -1.3979    3.7956   -4.9031 O.co2     1 <0>        -0.7714
@<TRIPOS>BOND
     1    1    6 1
     2    1    2 1
     3    1   14 1
     4    1   15 1
     5    2    3 1
     6    2   16 1
     7    2   17 1
     8    3    4 1
     9    3    5 1
    10    3   12 1
    11    5    6 1
    12    5    7 am
    13    6   18 1
    14    6   19 1
    15    7    8 2
    16    7    9 1
    17    9   10 1
    18    9   20 1
    19    9   21 1
    20   10   11 1
    21   10   22 1
    22   10   23 1
    23   11   24 1
    24   12   13 2
    25   12   25 1
@<TRIPOS>MOLECULE
ZINC00020226
   28    28     0     0     0
SMALL
USER_CHARGES

@<TRIPOS>ATOM
      1 C1          0.7365    1.2260    0.5359 C.3       1 <0>        -0.1390
      2 C2          0.0014   -0.0050    0.0020 C.3       1 <0>        -0.0869
      3 H1         -1.0491    0.2393   -0.1563 H         1 <0>         0.0981
      4 C3          0.1126   -1.1452    1.0162 C.3       1 <0>        -0.0452
      5 S1         -0.7609   -0.6875    2.5387 S.3       1 <0>        -0.2537
      6 C4          0.6200   -0.4323   -1.3041 C.2       1 <0>         0.5389
      7 O1          1.5840   -1.1683   -1.3064 O.2       1 <0>        -0.5381
      8 N1          0.1021    0.0035   -2.4695 N.am      1 <0>        -0.5867
      9 C5         -0.9902    0.9834   -2.6113 C.3       1 <0>         0.0999
     10 C6         -0.7940    1.5947   -4.0211 C.3       1 <0>        -0.1313
     11 C7         -0.3200    0.3603   -4.8328 C.3       1 <0>        -0.1102
     12 C8          0.5372   -0.4148   -3.8102 C.3       1 <0>         0.0655
     13 H2          1.5912   -0.1747   -3.9495 H         1 <0>         0.0674
     14 C9          0.3191   -1.8962   -3.9808 C.2       1 <0>         0.4981
     15 O2         -0.5898   -2.4509   -3.3870 O.co2     1 <0>        -0.6879
     16 O3          1.0516   -2.5399   -4.7126 O.co2     1 <0>        -0.6967
     17 H3          1.7596    0.9541    0.7952 H         1 <0>         0.0639
     18 H4          0.7496    2.0018   -0.2296 H         1 <0>         0.0595
     19 H5          0.2238    1.5992    1.4225 H         1 <0>         0.0747
     20 H6         -0.3336   -2.0477    0.5986 H         1 <0>         0.0912
     21 H7          1.1630   -1.3299    1.2414 H         1 <0>         0.0946
     22 H8         -0.5948   -1.7533    3.3421 H         1 <0>         0.0876
     23 H9         -1.9575    0.4854   -2.5451 H         1 <0>         0.0684
     24 H10        -0.9076    1.7567   -1.8476 H         1 <0>         0.0695
     25 H11        -1.7342    1.9826   -4.4131 H         1 <0>         0.0787
     26 H12        -0.0285    2.3706   -4.0074 H         1 <0>         0.0709
     27 H13        -1.1716   -0.2369   -5.1590 H         1 <0>         0.0743
     28 H14         0.2854    0.6684   -5.6852 H         1 <0>         0.0743
@<TRIPOS>BOND
     1    1    2 1
     2    1   17 1
     3    1   18 1
     4    1   19 1
     5    2    3 1
     6    2    4 1
     7    2    6 1
     8    4    5 1
     9    4   20 1
    10    4   21 1
    11    5   22 1
    12    6    7 2
    13    6    8 am
    14    8   12 1
    15    8    9 1
    16    9   10 1
    17    9   23 1
    18    9   24 1
    19   10   11 1
    20   10   25 1
    21   10   26 1
    22   11   12 1
    23   11   27 1
    24   11   28 1
    25   12   13 1
    26   12   14 1
    27   14   15 2
    28   14   16 1
@<TRIPOS>MOLECULE
ZINC03780852
   39    40     0     0     0
SMALL
USER_CHARGES
1-(2-methyl-3-sulfanyl-propanoyl)-4-phenylsulfanyl-pyrrolidine-2-carboxylic acid
@<TRIPOS>ATOM
      1 C1          1.5027   -0.0090    2.3752 C.3       1 <0>        -0.1514
      2 C2          1.2310    1.4677    2.6694 C.3       1 <0>        -0.0866
      3 H1          1.8507    2.0873    2.0212 H         1 <0>         0.0994
      4 C3          1.5656    1.7662    4.1322 C.3       1 <0>        -0.0426
      5 S1          3.3452    1.5424    4.4033 S.3       1 <0>        -0.2538
      6 C4         -0.2229    1.7714    2.4146 C.2       1 <0>         0.5438
      7 O1         -0.9225    2.1859    3.3144 O.2       1 <0>        -0.5215
      8 N1         -0.7456    1.5825    1.1868 N.am      1 <0>        -0.5930
      9 C5         -0.0127    1.0858    0.0080 C.3       1 <0>         0.1072
     10 C6         -0.8063    1.6209   -1.2100 C.3       1 <0>        -0.0992
     11 H2         -0.5471    2.6587   -1.4199 H         1 <0>         0.1067
     12 C7         -2.2686    1.5042   -0.7047 C.3       1 <0>        -0.0765
     13 C8         -2.1430    1.8370    0.7970 C.3       1 <0>         0.0971
     14 H3         -2.3896    2.8852    0.9663 H         1 <0>         0.0797
     15 C9         -3.0667    0.9547    1.5965 C.2       1 <0>         0.4637
     16 O2         -2.6142    0.1963    2.4211 O.co2     1 <0>        -0.6137
     17 S2         -0.5377    0.5784   -2.6700 S.3       1 <0>        -0.0868
     18 C10         1.1645    0.8177   -3.0573 C.ar      1 <0>        -0.0810
     19 C11         1.9421    1.6697   -2.2822 C.ar      1 <0>        -0.1385
     20 C12         3.2773    1.8496   -2.5847 C.ar      1 <0>        -0.0985
     21 C13         3.8379    1.1930   -3.6652 C.ar      1 <0>        -0.1304
     22 C14         3.0655    0.3491   -4.4425 C.ar      1 <0>        -0.1022
     23 C15         1.7313    0.1592   -4.1420 C.ar      1 <0>        -0.1029
     24 H4          2.5543   -0.2287    2.5596 H         1 <0>         0.0744
     25 H5          0.8830   -0.6286    3.0235 H         1 <0>         0.0681
     26 H6          1.2643   -0.2217    1.3331 H         1 <0>         0.0660
     27 H7          1.2890    2.7944    4.3657 H         1 <0>         0.0917
     28 H8          1.0113    1.0853    4.7780 H         1 <0>         0.0938
     29 H9          3.5145    1.8293    5.7064 H         1 <0>         0.0875
     30 H10         0.0021   -0.0041    0.0020 H         1 <0>         0.0828
     31 H11         1.0041    1.4783    0.0004 H         1 <0>         0.0789
     32 H12        -2.9095    2.2282   -1.2079 H         1 <0>         0.0917
     33 H13        -2.6464    0.4919   -0.8478 H         1 <0>         0.0879
     34 H14         1.5039    2.1864   -1.4412 H         1 <0>         0.1277
     35 H15         3.8835    2.5075   -1.9797 H         1 <0>         0.1246
     36 H16         4.8813    1.3394   -3.9024 H         1 <0>         0.1219
     37 H17         3.5067   -0.1622   -5.2853 H         1 <0>         0.1248
     38 H18         1.1289   -0.5004   -4.7490 H         1 <0>         0.1265
     39 O3         -4.3922    1.0112    1.3926 O.co2     1 <0>        -0.7668
@<TRIPOS>BOND
     1    1    2 1
     2    1   24 1
     3    1   25 1
     4    1   26 1
     5    2    3 1
     6    2    4 1
     7    2    6 1
     8    4    5 1
     9    4   27 1
    10    4   28 1
    11    5   29 1
    12    6    7 2
    13    6    8 am
    14    8   13 1
    15    8    9 1
    16    9   10 1
    17    9   30 1
    18    9   31 1
    19   10   11 1
    20   10   12 1
    21   10   17 1
    22   12   13 1
    23   12   32 1
    24   12   33 1
    25   13   14 1
    26   13   15 1
    27   15   16 2
    28   15   39 1
    29   17   18 1
    30   18   23 ar
    31   18   19 ar
    32   19   20 ar
    33   19   34 1
    34   20   21 ar
    35   20   35 1
    36   21   22 ar
    37   21   36 1
    38   22   23 ar
    39   22   37 1
    40   23   38 1
@<TRIPOS>MOLECULE
ZINC27875280
   34    34     0     0     0
SMALL
USER_CHARGES
(2S)-2-[cyclopentyl-[(2R)-2-sulfanylpropanoyl]amino]propanoic acid
@<TRIPOS>ATOM
      1 C1         -0.7345    1.9962    1.2691 C.3       1 <0>        -0.1438
      2 C2         -0.0184    1.5028    0.0103 C.3       1 <0>         0.0757
      3 H1          1.0102    1.8898   -0.0363 H         1 <0>         0.0908
      4 C3          0.0021   -0.0041    0.0020 C.2       1 <0>         0.4585
      5 O1         -0.7976   -0.6154   -0.6663 O.co2     1 <0>        -0.6163
      6 O2          0.9087   -0.6670    0.7371 O.co2     1 <0>        -0.7626
      7 N1         -0.7269    1.9881   -1.1766 N.am      1 <0>        -0.5756
      8 C4         -2.1267    1.6163   -1.3970 C.3       1 <0>         0.1604
      9 C5         -2.2747    0.8953   -2.7528 C.3       1 <0>        -0.1247
     10 C6         -3.6348    1.3955   -3.3017 C.3       1 <0>        -0.1198
     11 C7         -3.6517    2.8833   -2.8712 C.3       1 <0>        -0.1068
     12 C8         -3.0020    2.8796   -1.4720 C.3       1 <0>        -0.1253
     13 C9         -0.0910    2.7765   -2.0656 C.2       1 <0>         0.5341
     14 O3         -0.6776    3.1783   -3.0482 O.2       1 <0>        -0.5176
     15 C10         1.3489    3.1589   -1.8388 C.3       1 <0>        -0.0823
     16 H2          1.4655    3.1083   -0.7462 H         1 <0>         0.1134
     17 C11         2.2609    2.0581   -2.3842 C.3       1 <0>        -0.1542
     18 S1          1.7029    4.7176   -2.6966 S.3       1 <0>        -0.0852
     19 H3         -0.7494    3.0961    1.2751 H         1 <0>         0.0515
     20 H4         -0.2024    1.6318    2.1602 H         1 <0>         0.0716
     21 H5         -1.7665    1.6154    1.2769 H         1 <0>         0.0587
     22 H6         -2.3917    0.9729   -0.5451 H         1 <0>         0.0982
     23 H7         -1.4369    1.1732   -3.4092 H         1 <0>         0.0729
     24 H8         -2.2691   -0.1929   -2.5920 H         1 <0>         0.0743
     25 H9         -3.6581    1.2693   -4.3942 H         1 <0>         0.0579
     26 H10        -4.4500    0.8129   -2.8479 H         1 <0>         0.0579
     27 H11        -3.0747    3.4803   -3.5927 H         1 <0>         0.0751
     28 H12        -4.6901    3.2452   -2.8432 H         1 <0>         0.0507
     29 H13        -3.7684    2.8419   -0.6838 H         1 <0>         0.0577
     30 H14        -2.3729    3.7706   -1.3294 H         1 <0>         0.0663
     31 H15         3.3119    2.3372   -2.2186 H         1 <0>         0.0592
     32 H16         2.0802    1.9328   -3.4620 H         1 <0>         0.0765
     33 H17         2.0462    1.1129   -1.8641 H         1 <0>         0.0827
     34 H18         2.7099    5.1572   -2.6453 H         1 <0>        -0.0296
@<TRIPOS>BOND
     1    1    2 1
     2    1   19 1
     3    1   20 1
     4    1   21 1
     5    2    3 1
     6    2    4 1
     7    2    7 1
     8    4    5 2
     9    4    6 1
    10    7    8 1
    11    7   13 am
    12    8   12 1
    13    8    9 1
    14    8   22 1
    15    9   10 1
    16    9   23 1
    17    9   24 1
    18   10   11 1
    19   10   25 1
    20   10   26 1
    21   11   12 1
    22   11   27 1
    23   11   28 1
    24   12   29 1
    25   12   30 1
    26   13   14 2
    27   13   15 1
    28   15   16 1
    29   15   17 1
    30   15   18 1
    31   17   31 1
    32   17   32 1
    33   17   33 1
    34   18   34 1
@<TRIPOS>MOLECULE
ZINC27875287
   34    34     0     0     0
SMALL
USER_CHARGES
(2S)-2-[cyclopentyl-[(2S)-2-sulfanylpropanoyl]amino]propanoic acid
@<TRIPOS>ATOM
      1 C1          0.8972   -0.4355   -2.8697 C.3       1 <0>        -0.1388
      2 C2         -0.4745    0.1644   -3.1854 C.3       1 <0>         0.1110
      3 H1         -0.3974    0.9406   -3.9610 H         1 <0>         0.0821
      4 C3         -1.4060   -0.9270   -3.6461 C.2       1 <0>         0.4433
      5 O1         -2.4214   -1.1538   -3.0318 O.co2     1 <0>        -0.5931
      6 O2         -1.1077   -1.6471   -4.7389 O.co2     1 <0>        -0.7822
      7 N1         -1.0200    0.7961   -1.9815 N.am      1 <0>        -0.6393
      8 C4         -1.3333    2.2272   -1.9831 C.3       1 <0>         0.1607
      9 C5         -0.0316    3.0532   -1.9260 C.3       1 <0>        -0.1267
     10 C6         -0.3883    4.2611   -1.0231 C.3       1 <0>        -0.1072
     11 C7         -1.3030    3.6257    0.0534 C.3       1 <0>        -0.1256
     12 C8         -2.1416    2.5913   -0.7254 C.3       1 <0>        -0.2240
     13 C9         -1.2337    0.0608   -0.8724 C.2       1 <0>         0.5533
     14 O3         -1.8806   -0.9629   -0.9389 O.2       1 <0>        -0.4348
     15 C10        -0.6687    0.5105    0.4503 C.3       1 <0>        -0.1075
     16 H2         -0.4697   -0.4301    0.9848 H         1 <0>         0.1062
     17 C11        -1.7642    1.2024    1.2640 C.3       1 <0>        -0.2692
     18 S1          0.6949    1.6715    0.1620 S.3       1 <0>        -0.0552
     19 H3          1.5772    0.3611   -2.5334 H         1 <0>         0.0513
     20 H4          1.3068   -0.9098   -3.7737 H         1 <0>         0.0700
     21 H5          0.7937   -1.1890   -2.0750 H         1 <0>         0.0445
     22 H6         -1.9012    2.3969   -2.9098 H         1 <0>         0.0756
     23 H7          0.7735    2.4394   -1.4958 H         1 <0>         0.1033
     24 H8          0.2491    3.3660   -2.9426 H         1 <0>         0.0647
     25 H9          0.5332    4.6871   -0.5997 H         1 <0>         0.0590
     26 H10        -0.9047    5.0262   -1.6213 H         1 <0>         0.0609
     27 H11        -0.6826    3.1539    0.8296 H         1 <0>         0.0871
     28 H12        -1.9298    4.4063    0.5092 H         1 <0>         0.0542
     29 H13        -3.1113    3.0168   -1.0232 H         1 <0>         0.0725
     30 H14        -2.3079    1.6868   -0.1218 H         1 <0>         0.1639
     31 H15        -1.3518    1.5307    2.2295 H         1 <0>         0.0531
     32 H16        -2.5911    0.4984    1.4388 H         1 <0>         0.0711
     33 H17        -2.1372    2.0756    0.7087 H         1 <0>         0.1899
     34 H18         1.2340    2.1095    1.0150 H         1 <0>        -0.0740
@<TRIPOS>BOND
     1    1    2 1
     2    1   19 1
     3    1   20 1
     4    1   21 1
     5    2    3 1
     6    2    4 1
     7    2    7 1
     8    4    5 2
     9    4    6 1
    10    7    8 1
    11    7   13 am
    12    8   12 1
    13    8    9 1
    14    8   22 1
    15    9   10 1
    16    9   23 1
    17    9   24 1
    18   10   11 1
    19   10   25 1
    20   10   26 1
    21   11   12 1
    22   11   27 1
    23   11   28 1
    24   12   29 1
    25   12   30 1
    26   13   14 2
    27   13   15 1
    28   15   16 1
    29   15   17 1
    30   15   18 1
    31   17   31 1
    32   17   32 1
    33   17   33 1
    34   18   34 1
@<TRIPOS>MOLECULE
ZINC27875294
   34    34     0     0     0
SMALL
USER_CHARGES
(2R)-2-[cyclopentyl-[(2R)-2-sulfanylpropanoyl]amino]propanoic acid
@<TRIPOS>ATOM
      1 C1         -1.4054    2.5210   -1.0869 C.3       1 <0>        -0.1798
      2 C2         -1.0285    1.8391    0.2299 C.3       1 <0>         0.0867
      3 H1         -0.6316    2.5673    0.9525 H         1 <0>         0.0898
      4 C3          0.0001    0.7699   -0.0345 C.2       1 <0>         0.4529
      5 O1         -0.2860   -0.3942    0.1170 O.co2     1 <0>        -0.6171
      6 O2          1.2323    1.1105   -0.4436 O.co2     1 <0>        -0.7507
      7 N1         -2.2220    1.2323    0.8246 N.am      1 <0>        -0.5850
      8 C4         -2.6772    1.6585    2.1502 C.3       1 <0>         0.1453
      9 C5         -2.7288    0.4483    3.1056 C.3       1 <0>        -0.1373
     10 C6         -3.9824    0.7078    3.9788 C.3       1 <0>        -0.1163
     11 C7         -4.9839    1.3187    2.9674 C.3       1 <0>        -0.1080
     12 C8         -4.1103    2.2120    2.0626 C.3       1 <0>        -0.1220
     13 C9         -2.9010    0.2820    0.1522 C.2       1 <0>         0.5754
     14 O3         -3.8423   -0.2757    0.6755 O.2       1 <0>        -0.5371
     15 C10        -2.4908   -0.0876   -1.2500 C.3       1 <0>        -0.0995
     16 H2         -1.3950    0.0077   -1.2371 H         1 <0>         0.1634
     17 C11        -2.7547   -1.5766   -1.4829 C.3       1 <0>        -0.1332
     18 S1         -3.4514    0.8897   -2.4386 S.3       1 <0>        -0.1305
     19 H3         -2.1562    3.3014   -0.8939 H         1 <0>         0.0550
     20 H4         -1.8216    1.7751   -1.7800 H         1 <0>         0.0905
     21 H5         -0.5093    2.9767   -1.5334 H         1 <0>         0.0669
     22 H6         -1.9525    2.4207    2.4724 H         1 <0>         0.0833
     23 H7         -2.8183   -0.4781    2.5193 H         1 <0>         0.0905
     24 H8         -1.8073    0.4150    3.7054 H         1 <0>         0.0576
     25 H9         -4.3357   -0.2429    4.4047 H         1 <0>         0.0607
     26 H10        -3.7250    1.4012    4.7930 H         1 <0>         0.0581
     27 H11        -5.4727    0.5114    2.4023 H         1 <0>         0.0763
     28 H12        -5.7447    1.8992    3.5098 H         1 <0>         0.0539
     29 H13        -4.1225    3.2550    2.4119 H         1 <0>         0.0615
     30 H14        -4.4562    2.1707    1.0192 H         1 <0>         0.0731
     31 H15        -2.4553   -1.8463   -2.5064 H         1 <0>         0.0462
     32 H16        -3.8263   -1.7846   -1.3475 H         1 <0>         0.0697
     33 H17        -2.1722   -2.1693   -0.7622 H         1 <0>         0.0773
     34 H18        -3.2892    0.7567   -3.5184 H         1 <0>        -0.0174
@<TRIPOS>BOND
     1    1    2 1
     2    1   19 1
     3    1   20 1
     4    1   21 1
     5    2    3 1
     6    2    4 1
     7    2    7 1
     8    4    5 2
     9    4    6 1
    10    7    8 1
    11    7   13 am
    12    8   12 1
    13    8    9 1
    14    8   22 1
    15    9   10 1
    16    9   23 1
    17    9   24 1
    18   10   11 1
    19   10   25 1
    20   10   26 1
    21   11   12 1
    22   11   27 1
    23   11   28 1
    24   12   29 1
    25   12   30 1
    26   13   14 2
    27   13   15 1
    28   15   16 1
    29   15   17 1
    30   15   18 1
    31   17   31 1
    32   17   32 1
    33   17   33 1
    34   18   34 1
@<TRIPOS>MOLECULE
ZINC27875302
   34    34     0     0     0
SMALL
USER_CHARGES
(2R)-2-[cyclopentyl-[(2S)-2-sulfanylpropanoyl]amino]propanoic acid
@<TRIPOS>ATOM
      1 C1          3.0430    2.0558    1.5899 C.3       1 <0>        -0.1368
      2 C2          2.4133    1.4331    0.3422 C.3       1 <0>         0.0795
      3 H1          2.2843    0.3476    0.4645 H         1 <0>         0.0916
      4 C3          3.2868    1.7118   -0.8537 C.2       1 <0>         0.4520
      5 O1          2.8460    2.3317   -1.7925 O.co2     1 <0>        -0.6201
      6 O2          4.5546    1.2713   -0.8761 O.co2     1 <0>        -0.7627
      7 N1          1.0862    2.0137    0.1235 N.am      1 <0>        -0.5662
      8 C4          0.9281    3.4675    0.0353 C.3       1 <0>         0.1572
      9 C5          0.0305    3.9721    1.1840 C.3       1 <0>        -0.1358
     10 C6         -0.8060    5.1070    0.5409 C.3       1 <0>        -0.1158
     11 C7         -1.0895    4.5605   -0.8803 C.3       1 <0>        -0.1108
     12 C8          0.2166    3.8417   -1.2768 C.3       1 <0>        -0.1066
     13 C9          0.0107    1.2104    0.0034 C.2       1 <0>         0.5418
     14 O3         -1.0993    1.6917   -0.0820 O.2       1 <0>        -0.5271
     15 C10         0.1867   -0.2861   -0.0187 C.3       1 <0>        -0.0767
     16 H2          1.1490   -0.4302   -0.5318 H         1 <0>         0.1120
     17 C11        -0.8545   -0.9084   -0.9512 C.3       1 <0>        -0.1424
     18 S1         -0.0316   -0.9454    1.6571 S.3       1 <0>        -0.1071
     19 H3          2.4054    1.8524    2.4629 H         1 <0>         0.0539
     20 H4          3.1368    3.1428    1.4497 H         1 <0>         0.0529
     21 H5          4.0395    1.6199    1.7541 H         1 <0>         0.0748
     22 H6          1.9495    3.8723    0.0882 H         1 <0>         0.0888
     23 H7         -0.6012    3.1471    1.5452 H         1 <0>         0.0809
     24 H8          0.6606    4.3391    2.0076 H         1 <0>         0.0574
     25 H9         -1.7239    5.2631    1.1267 H         1 <0>         0.0590
     26 H10        -0.2163    6.0355    0.5290 H         1 <0>         0.0590
     27 H11        -1.9456    3.8707   -0.8439 H         1 <0>         0.0730
     28 H12        -1.3214    5.3974   -1.5555 H         1 <0>         0.0518
     29 H13         0.8647    4.5043   -1.8692 H         1 <0>         0.0636
     30 H14         0.0028    2.9284   -1.8514 H         1 <0>         0.0687
     31 H15        -0.7260   -2.0007   -0.9673 H         1 <0>         0.0539
     32 H16        -0.7221   -0.5086   -1.9674 H         1 <0>         0.0716
     33 H17        -1.8639   -0.6632   -0.5893 H         1 <0>         0.0828
     34 H18         0.0607   -2.0263    1.8392 H         1 <0>        -0.0181
@<TRIPOS>BOND
     1    1    2 1
     2    1   19 1
     3    1   20 1
     4    1   21 1
     5    2    3 1
     6    2    4 1
     7    2    7 1
     8    4    5 2
     9    4    6 1
    10    7    8 1
    11    7   13 am
    12    8   12 1
    13    8    9 1
    14    8   22 1
    15    9   10 1
    16    9   23 1
    17    9   24 1
    18   10   11 1
    19   10   25 1
    20   10   26 1
    21   11   12 1
    22   11   27 1
    23   11   28 1
    24   12   29 1
    25   12   30 1
    26   13   14 2
    27   13   15 1
    28   15   16 1
    29   15   17 1
    30   15   18 1
    31   17   31 1
    32   17   32 1
    33   17   33 1
    34   18   34 1
@<TRIPOS>MOLECULE
ZINC27861796
   31    31     0     0     0
SMALL
USER_CHARGES
2-[cyclopentyl-[(2R)-2-sulfanylpropanoyl]amino]acetic acid
@<TRIPOS>ATOM
      1 C1          1.9582    4.8842    0.8597 C.3       1 <0>        -0.1182
      2 C2          1.2182    3.5531    0.7128 C.3       1 <0>        -0.0626
      3 H1          0.1714    3.8304    0.5193 H         1 <0>         0.1047
      4 C3          1.1657    2.8575    2.0486 C.2       1 <0>         0.5030
      5 O1          2.0561    3.0248    2.8549 O.2       1 <0>        -0.5209
      6 N1          0.1293    2.0494    2.3473 N.am      1 <0>        -0.5861
      7 C4          0.0218    1.4596    3.6841 C.3       1 <0>         0.0681
      8 C5          0.7362    0.1329    3.7067 C.2       1 <0>         0.4548
      9 O2          1.2793   -0.2779    2.7087 O.co2     1 <0>        -0.6254
     10 O3          0.7690   -0.5924    4.8357 O.co2     1 <0>        -0.7711
     11 C6         -0.8898    1.7607    1.3353 C.3       1 <0>         0.1270
     12 C7         -2.2503    2.3554    1.7540 C.3       1 <0>        -0.1372
     13 C8         -3.3256    1.3434    1.3212 C.3       1 <0>        -0.1203
     14 C9         -2.5816    0.1684    0.6536 C.3       1 <0>        -0.1193
     15 C10        -1.1531    0.2360    1.2486 C.3       1 <0>        -0.1228
     16 S1          2.0922    2.5040   -0.4813 S.3       1 <0>        -0.0959
     17 H2          1.9965    5.3919   -0.1154 H         1 <0>         0.0760
     18 H3          2.9819    4.6972    1.2162 H         1 <0>         0.0820
     19 H4          1.4282    5.5204    1.5838 H         1 <0>         0.0782
     20 H5          0.4802    2.1355    4.4210 H         1 <0>         0.0870
     21 H6         -1.0388    1.3093    3.9344 H         1 <0>         0.0793
     22 H7         -0.4759    2.1996    0.4155 H         1 <0>         0.0751
     23 H8         -2.2664    2.5021    2.8441 H         1 <0>         0.0761
     24 H9         -2.3978    3.3228    1.2516 H         1 <0>         0.0657
     25 H10        -3.8848    1.0022    2.2049 H         1 <0>         0.0657
     26 H11        -4.0168    1.8233    0.6127 H         1 <0>         0.0631
     27 H12        -3.0884   -0.7755    0.9030 H         1 <0>         0.0678
     28 H13        -2.5812    0.3072   -0.4376 H         1 <0>         0.0624
     29 H14        -0.3992   -0.2298    0.5969 H         1 <0>         0.0681
     30 H15        -1.0908   -0.2047    2.2546 H         1 <0>         0.0910
     31 H16         1.7062    1.5017   -0.7187 H         1 <0>        -0.0154
@<TRIPOS>BOND
     1    1    2 1
     2    1   17 1
     3    1   18 1
     4    1   19 1
     5    2    3 1
     6    2    4 1
     7    2   16 1
     8    4    5 2
     9    4    6 am
    10    6    7 1
    11    6   11 1
    12    7    8 1
    13    7   20 1
    14    7   21 1
    15    8    9 2
    16    8   10 1
    17   11   15 1
    18   11   12 1
    19   11   22 1
    20   12   13 1
    21   12   23 1
    22   12   24 1
    23   13   14 1
    24   13   25 1
    25   13   26 1
    26   14   15 1
    27   14   27 1
    28   14   28 1
    29   15   29 1
    30   15   30 1
    31   16   31 1
@<TRIPOS>MOLECULE
ZINC27861803
   31    31     0     0     0
SMALL
USER_CHARGES
2-[cyclopentyl-[(2S)-2-sulfanylpropanoyl]amino]acetic acid
@<TRIPOS>ATOM
      1 C1          0.9348    4.4851    0.5801 C.3       1 <0>        -0.1536
      2 C2          0.7923    3.5765   -0.6426 C.3       1 <0>        -0.0614
      3 H1          1.6695    3.8017   -1.2669 H         1 <0>         0.1170
      4 C3          1.0023    2.1424   -0.2301 C.2       1 <0>         0.5090
      5 O1          1.9003    1.4944   -0.7247 O.2       1 <0>        -0.5497
      6 N1          0.1923    1.5799    0.6886 N.am      1 <0>        -0.5659
      7 C4         -0.8176    2.3930    1.3706 C.3       1 <0>         0.0379
      8 C5         -0.2811    2.8462    2.7039 C.2       1 <0>         0.4484
      9 O2          0.8308    2.5232    3.0491 O.co2     1 <0>        -0.6224
     10 O3         -1.0385    3.6088    3.5080 O.co2     1 <0>        -0.7655
     11 C6          0.3178    0.1541    1.0008 C.3       1 <0>         0.1490
     12 C7          1.7550   -0.1609    1.4645 C.3       1 <0>        -0.1269
     13 C8          2.0513   -1.5566    0.8616 C.3       1 <0>        -0.1193
     14 C9          1.3650   -1.4827   -0.5250 C.3       1 <0>        -0.1078
     15 C10         0.0698   -0.6863   -0.2641 C.3       1 <0>        -0.1217
     16 S1         -0.8688    3.7661   -1.3465 S.3       1 <0>        -0.1083
     17 H2          0.7815    5.5319    0.2789 H         1 <0>         0.0757
     18 H3          1.9421    4.3701    1.0069 H         1 <0>         0.0856
     19 H4          0.1833    4.2065    1.3335 H         1 <0>         0.1059
     20 H5         -1.0581    3.2718    0.7543 H         1 <0>         0.1184
     21 H6         -1.7270    1.7940    1.5258 H         1 <0>         0.0777
     22 H7         -0.4306   -0.0362    1.7842 H         1 <0>         0.0849
     23 H8          2.4410    0.6086    1.0808 H         1 <0>         0.0874
     24 H9          1.7920   -0.1698    2.5638 H         1 <0>         0.0666
     25 H10         3.1393   -1.7016    0.7899 H         1 <0>         0.0604
     26 H11         1.6196   -2.3346    1.5084 H         1 <0>         0.0592
     27 H12         2.0291   -0.9693   -1.2359 H         1 <0>         0.0714
     28 H13         1.1579   -2.5008   -0.8864 H         1 <0>         0.0536
     29 H14        -0.7796   -1.3640   -0.0933 H         1 <0>         0.0628
     30 H15        -0.1574   -0.0193   -1.1088 H         1 <0>         0.0582
     31 H16        -1.1581    3.1883   -2.2367 H         1 <0>        -0.0266
@<TRIPOS>BOND
     1    1    2 1
     2    1   17 1
     3    1   18 1
     4    1   19 1
     5    2    3 1
     6    2    4 1
     7    2   16 1
     8    4    5 2
     9    4    6 am
    10    6    7 1
    11    6   11 1
    12    7    8 1
    13    7   20 1
    14    7   21 1
    15    8    9 2
    16    8   10 1
    17   11   15 1
    18   11   12 1
    19   11   22 1
    20   12   13 1
    21   12   23 1
    22   12   24 1
    23   13   14 1
    24   13   25 1
    25   13   26 1
    26   14   15 1
    27   14   27 1
    28   14   28 1
    29   15   29 1
    30   15   30 1
    31   16   31 1
@<TRIPOS>MOLECULE
ZINC27888901
   31    31     0     0     0
SMALL
USER_CHARGES
2-[p-tolyl-[(2R)-2-sulfanylpropanoyl]amino]acetic acid
@<TRIPOS>ATOM
      1 C1          4.8733    4.2916   -0.1284 C.3       1 <0>        -0.1062
      2 C2          3.5720    3.5327   -0.0878 C.ar      1 <0>        -0.1263
      3 C3          3.5757    2.1522   -0.1674 C.ar      1 <0>        -0.1033
      4 C4          2.3848    1.4537   -0.1304 C.ar      1 <0>        -0.1690
      5 C5          1.1828    2.1392   -0.0128 C.ar      1 <0>         0.1704
      6 C6          1.1822    3.5260    0.0616 C.ar      1 <0>        -0.1399
      7 C7          2.3769    4.2183    0.0294 C.ar      1 <0>        -0.0993
      8 N1         -0.0255    1.4346    0.0249 N.am      1 <0>        -0.5111
      9 C8         -1.2978    2.1594   -0.0194 C.3       1 <0>         0.0409
     10 C9         -1.6910    2.5701    1.3762 C.2       1 <0>         0.4517
     11 O1         -0.9811    2.2864    2.3119 O.co2     1 <0>        -0.5964
     12 O2         -2.8297    3.2510    1.5798 O.co2     1 <0>        -0.7675
     13 C10        -0.0187    0.0887    0.0966 C.2       1 <0>         0.5515
     14 O3          1.0305   -0.5166    0.0347 O.2       1 <0>        -0.5114
     15 C11        -1.3148   -0.6640    0.2535 C.3       1 <0>        -0.0763
     16 H1         -2.0405   -0.0582   -0.3089 H         1 <0>         0.1084
     17 C12        -1.2312   -1.9879   -0.5089 C.3       1 <0>        -0.1455
     18 S1         -1.6118   -0.9966    2.0118 S.3       1 <0>        -0.0640
     19 H2          5.7086    3.5822   -0.2236 H         1 <0>         0.0592
     20 H3          4.9886    4.8715    0.7992 H         1 <0>         0.0627
     21 H4          4.8725    4.9750   -0.9904 H         1 <0>         0.0612
     22 H5          4.5108    1.6196   -0.2588 H         1 <0>         0.1176
     23 H6          2.3883    0.3755   -0.1926 H         1 <0>         0.1802
     24 H7          0.2488    4.0623    0.1483 H         1 <0>         0.1257
     25 H8          2.3773    5.2965    0.0913 H         1 <0>         0.1191
     26 H9         -1.1876    3.0554   -0.6479 H         1 <0>         0.0927
     27 H10        -2.0764    1.5079   -0.4429 H         1 <0>         0.0897
     28 H11        -2.1773   -2.5373   -0.3944 H         1 <0>         0.0583
     29 H12        -0.4052   -2.5919   -0.1053 H         1 <0>         0.0849
     30 H13        -1.0510   -1.7862   -1.5751 H         1 <0>         0.0685
     31 H14        -2.5157   -1.5404    2.3237 H         1 <0>        -0.0264
@<TRIPOS>BOND
     1    1    2 1
     2    1   19 1
     3    1   20 1
     4    1   21 1
     5    2    7 ar
     6    2    3 ar
     7    3    4 ar
     8    3   22 1
     9    4    5 ar
    10    4   23 1
    11    5    6 ar
    12    5    8 1
    13    6    7 ar
    14    6   24 1
    15    7   25 1
    16    8    9 1
    17    8   13 am
    18    9   10 1
    19    9   26 1
    20    9   27 1
    21   10   11 2
    22   10   12 1
    23   13   14 2
    24   13   15 1
    25   15   16 1
    26   15   17 1
    27   15   18 1
    28   17   28 1
    29   17   29 1
    30   17   30 1
    31   18   31 1
@<TRIPOS>MOLECULE
ZINC27888908
   31    31     0     0     0
SMALL
USER_CHARGES
2-[p-tolyl-[(2S)-2-sulfanylpropanoyl]amino]acetic acid
@<TRIPOS>ATOM
      1 C1         -6.4072    1.3819    3.4820 C.3       1 <0>        -0.1061
      2 C2         -5.0359    1.5979    2.8955 C.ar      1 <0>        -0.1249
      3 C3         -4.2654    2.6659    3.3173 C.ar      1 <0>        -0.1010
      4 C4         -3.0083    2.8666    2.7817 C.ar      1 <0>        -0.1441
      5 C5         -2.5181    1.9942    1.8188 C.ar      1 <0>         0.1744
      6 C6         -3.2963    0.9254    1.3937 C.ar      1 <0>        -0.1472
      7 C7         -4.5507    0.7275    1.9368 C.ar      1 <0>        -0.0983
      8 N1         -1.2451    2.1950    1.2738 N.am      1 <0>        -0.5086
      9 C8         -0.8639    1.5154    0.0332 C.3       1 <0>         0.0245
     10 C9         -1.3377    2.3228   -1.1478 C.2       1 <0>         0.4562
     11 O1         -1.9327    3.3594   -0.9714 O.co2     1 <0>        -0.6208
     12 O2         -1.0986    1.8902   -2.3958 O.co2     1 <0>        -0.7595
     13 C10        -0.3697    3.0137    1.8902 C.2       1 <0>         0.5530
     14 O3         -0.6440    3.4922    2.9704 O.2       1 <0>        -0.5201
     15 C11         0.9501    3.3345    1.2372 C.3       1 <0>        -0.0622
     16 H1          1.2408    4.2943    1.6892 H         1 <0>         0.1228
     17 C12         0.7238    3.6481   -0.2431 C.3       1 <0>        -0.2010
     18 S1          2.0626    1.9099    1.3903 S.3       1 <0>        -0.1109
     19 H2         -6.6175    2.1681    4.2220 H         1 <0>         0.0595
     20 H3         -6.4456    0.3977    3.9717 H         1 <0>         0.0619
     21 H4         -7.1593    1.4222    2.6803 H         1 <0>         0.0630
     22 H5         -4.6472    3.3439    4.0662 H         1 <0>         0.1184
     23 H6         -2.4070    3.7008    3.1116 H         1 <0>         0.1572
     24 H7         -2.9195    0.2476    0.6421 H         1 <0>         0.1262
     25 H8         -5.1549   -0.1057    1.6094 H         1 <0>         0.1200
     26 H9          0.2306    1.4135   -0.0076 H         1 <0>         0.1204
     27 H10        -1.3263    0.5177    0.0046 H         1 <0>         0.0922
     28 H11         1.6871    3.8823   -0.7197 H         1 <0>         0.0538
     29 H12         0.0492    4.5120   -0.3359 H         1 <0>         0.0868
     30 H13         0.2724    2.7755   -0.7379 H         1 <0>         0.1261
     31 H14         3.0782    1.9576    0.9705 H         1 <0>        -0.0117
@<TRIPOS>BOND
     1    1    2 1
     2    1   19 1
     3    1   20 1
     4    1   21 1
     5    2    7 ar
     6    2    3 ar
     7    3    4 ar
     8    3   22 1
     9    4    5 ar
    10    4   23 1
    11    5    6 ar
    12    5    8 1
    13    6    7 ar
    14    6   24 1
    15    7   25 1
    16    8    9 1
    17    8   13 am
    18    9   10 1
    19    9   26 1
    20    9   27 1
    21   10   11 2
    22   10   12 1
    23   13   14 2
    24   13   15 1
    25   15   16 1
    26   15   17 1
    27   15   18 1
    28   17   28 1
    29   17   29 1
    30   17   30 1
    31   18   31 1
