@<TRIPOS>MOLECULE
ZINC03812863
   60    61     0     0     0
SMALL
USER_CHARGES

@<TRIPOS>ATOM
      1 C1         -0.0167    1.3781    0.0096 C.ar      1 <0>        -0.1226
      2 C2          1.1709    2.0855    0.0021 C.ar      1 <0>        -0.1142
      3 C3          2.3773    1.4107   -0.0130 C.ar      1 <0>        -0.1110
      4 C4          2.3960    0.0285   -0.0201 C.ar      1 <0>        -0.0815
      5 C5          1.2084   -0.6789   -0.0117 C.ar      1 <0>        -0.1204
      6 C6          0.0021   -0.0041    0.0020 C.ar      1 <0>        -0.1197
      7 C7          3.7112   -0.7071   -0.0376 C.3       1 <0>        -0.0911
      8 C8          4.1714   -0.9633    1.3989 C.3       1 <0>        -0.1116
      9 C9          5.5066   -1.7102    1.3812 C.3       1 <0>        -0.0640
     10 H1          6.2284   -1.1499    0.7869 H         1 <0>         0.1541
     11 C10         6.0202   -1.8544    2.7906 C.2       1 <0>         0.4964
     12 O1          5.7155   -2.8312    3.4535 O.co2     1 <0>        -0.6834
     13 O2          6.7405   -0.9942    3.2679 O.co2     1 <0>        -0.6319
     14 N1          5.3150   -3.0418    0.7912 N.4       1 <0>        -0.4659
     15 C11         6.6156   -3.7127    0.6641 C.3       1 <0>         0.0163
     16 H2          7.1096   -3.7348    1.6355 H         1 <0>         0.1621
     17 C12         6.4045   -5.1442    0.1667 C.3       1 <0>        -0.1434
     18 C13         5.6383   -5.9433    1.2228 C.3       1 <0>        -0.1296
     19 C14         5.4273   -7.3747    0.7254 C.3       1 <0>        -0.1514
     20 C15         4.6611   -8.1738    1.7815 C.3       1 <0>        -0.0111
     21 N2          4.4584   -9.5481    1.3040 N.4       1 <0>        -0.6381
     22 C16         7.4748   -2.9608   -0.3195 C.2       1 <0>         0.5267
     23 O3          7.0459   -1.9640   -0.8612 O.2       1 <0>        -0.5136
     24 N3          8.7198   -3.3959   -0.5971 N.am      1 <0>        -0.5659
     25 C17         9.3614   -4.5905   -0.0185 C.3       1 <0>         0.0904
     26 C18        10.8822   -4.3203   -0.1369 C.3       1 <0>        -0.1346
     27 C19        10.9632   -3.5887   -1.5027 C.3       1 <0>        -0.1080
     28 C20         9.6606   -2.7615   -1.5319 C.3       1 <0>         0.0624
     29 H3          9.8658   -1.7391   -1.2145 H         1 <0>         0.0774
     30 C21         9.0805   -2.7628   -2.9228 C.2       1 <0>         0.5007
     31 O4          9.6205   -2.1230   -3.8091 O.co2     1 <0>        -0.6849
     32 O5          8.0713   -3.4037   -3.1617 O.co2     1 <0>        -0.6885
     33 H4         -0.9591    1.9053    0.0259 H         1 <0>         0.1218
     34 H5          1.1563    3.1654    0.0076 H         1 <0>         0.1242
     35 H6          3.3051    1.9634   -0.0196 H         1 <0>         0.1259
     36 H7          1.2231   -1.7588   -0.0176 H         1 <0>         0.1162
     37 H8         -0.9258   -0.5567    0.0082 H         1 <0>         0.1206
     38 H9          3.5884   -1.6586   -0.5549 H         1 <0>         0.0612
     39 H10         4.4573   -0.1052   -0.5563 H         1 <0>         0.0932
     40 H11         4.2941   -0.0118    1.9163 H         1 <0>         0.1068
     41 H12         3.4252   -1.5652    1.9176 H         1 <0>         0.0779
     42 H13         4.7108   -3.5892    1.3856 H         1 <0>         0.4180
     43 H14         5.8324   -5.1259   -0.7609 H         1 <0>         0.0971
     44 H15         7.3721   -5.6130   -0.0124 H         1 <0>         0.1187
     45 H16         6.2104   -5.9616    2.1504 H         1 <0>         0.0972
     46 H17         4.6707   -5.4745    1.4019 H         1 <0>         0.0731
     47 H18         4.8551   -7.3564   -0.2022 H         1 <0>         0.0925
     48 H19         6.3949   -7.8435    0.5463 H         1 <0>         0.0955
     49 H20         5.2332   -8.1921    2.7091 H         1 <0>         0.1379
     50 H21         3.6935   -7.7050    1.9606 H         1 <0>         0.1351
     51 H22         3.9288   -9.5312    0.4453 H         1 <0>         0.4352
     52 H23         5.3541   -9.9821    1.1382 H         1 <0>         0.4360
     53 H24         9.0767   -4.7050    1.0274 H         1 <0>         0.0721
     54 H25         9.0888   -5.4801   -0.5864 H         1 <0>         0.0717
     55 H26        11.2288   -3.6772    0.6720 H         1 <0>         0.0789
     56 H27        11.4442   -5.2540   -0.1598 H         1 <0>         0.0838
     57 H28        11.8369   -2.9380   -1.5404 H         1 <0>         0.0835
     58 H29        10.9791   -4.3054   -2.3238 H         1 <0>         0.0752
     59 H30         3.9531  -10.0751    2.0004 H         1 <0>         0.4381
     60 H31         4.8943   -2.9480   -0.1211 H         1 <0>         0.4129
@<TRIPOS>BOND
     1    1    6 ar
     2    1    2 ar
     3    1   33 1
     4    2    3 ar
     5    2   34 1
     6    3    4 ar
     7    3   35 1
     8    4    5 ar
     9    4    7 1
    10    5    6 ar
    11    5   36 1
    12    6   37 1
    13    7    8 1
    14    7   38 1
    15    7   39 1
    16    8    9 1
    17    8   40 1
    18    8   41 1
    19    9   10 1
    20    9   11 1
    21    9   14 1
    22   11   12 2
    23   11   13 1
    24   14   15 1
    25   14   42 1
    26   14   60 1
    27   15   16 1
    28   15   17 1
    29   15   22 1
    30   17   18 1
    31   17   43 1
    32   17   44 1
    33   18   19 1
    34   18   45 1
    35   18   46 1
    36   19   20 1
    37   19   47 1
    38   19   48 1
    39   20   21 1
    40   20   49 1
    41   20   50 1
    42   21   51 1
    43   21   52 1
    44   21   59 1
    45   22   23 2
    46   22   24 am
    47   24   28 1
    48   24   25 1
    49   25   26 1
    50   25   53 1
    51   25   54 1
    52   26   27 1
    53   26   55 1
    54   26   56 1
    55   27   28 1
    56   27   57 1
    57   27   58 1
    58   28   29 1
    59   28   30 1
    60   30   31 2
    61   30   32 1
@<TRIPOS>MOLECULE
ZINC08652533
   44    46     0     0     0
SMALL
USER_CHARGES
1-(3-benzoylsulfanyl-2-methyl-propanoyl)indoline-2-carboxylic acid
@<TRIPOS>ATOM
      1 C1         -1.6248    2.5550   -1.2871 C.3       1 <0>        -0.1448
      2 C2         -1.3971    1.7808    0.0128 C.3       1 <0>        -0.1212
      3 H1         -1.5456    2.4465    0.8630 H         1 <0>         0.1535
      4 C3         -2.3896    0.6193    0.0951 C.3       1 <0>        -0.0655
      5 S1         -4.0736    1.2720    0.2152 S.3       1 <0>        -0.1423
      6 C4         -4.9814   -0.2362    0.2938 C.2       1 <0>         0.3845
      7 O1         -4.3954   -1.3011    0.2582 O.2       1 <0>        -0.4453
      8 C5         -6.4554   -0.2068    0.4030 C.ar      1 <0>        -0.1419
      9 C6         -7.1306    1.0139    0.4498 C.ar      1 <0>        -0.0660
     10 C7         -8.5066    1.0342    0.5464 C.ar      1 <0>        -0.1295
     11 C8         -9.2164   -0.1518    0.6079 C.ar      1 <0>        -0.0894
     12 C9         -8.5529   -1.3652    0.5672 C.ar      1 <0>        -0.1329
     13 C10        -7.1775   -1.3996    0.4655 C.ar      1 <0>        -0.0582
     14 C11         0.0100    1.2418    0.0365 C.2       1 <0>         0.5586
     15 O2          0.2161    0.0734   -0.2151 O.2       1 <0>        -0.5374
     16 N1          1.0399    2.0594    0.3319 N.am      1 <0>        -0.5274
     17 C12         2.3713    1.6544    0.4682 C.ar      1 <0>         0.1593
     18 C13         2.9262    0.3796    0.3397 C.ar      1 <0>        -0.1374
     19 C14         4.2800    0.1896    0.5164 C.ar      1 <0>        -0.0998
     20 C15         5.0991    1.2610    0.8226 C.ar      1 <0>        -0.1525
     21 C16         4.5589    2.5280    0.9401 C.ar      1 <0>        -0.0815
     22 C17         3.2012    2.7220    0.7705 C.ar      1 <0>        -0.1351
     23 C18         2.3599    3.9753    0.8600 C.3       1 <0>        -0.0641
     24 C19         0.9276    3.5020    0.5635 C.3       1 <0>         0.0767
     25 H2          0.5401    3.9987   -0.3260 H         1 <0>         0.0949
     26 C20         0.0321    3.7737    1.7448 C.2       1 <0>         0.4610
     27 O3         -0.4713    2.8541    2.3454 O.co2     1 <0>        -0.6133
     28 H3         -1.5990    1.8649   -2.1304 H         1 <0>         0.0595
     29 H4         -2.5962    3.0482   -1.2508 H         1 <0>         0.0752
     30 H5         -0.8415    3.3036   -1.4061 H         1 <0>         0.0638
     31 H6         -2.3020    0.0024   -0.7993 H         1 <0>         0.0977
     32 H7         -2.1702    0.0156    0.9757 H         1 <0>         0.0987
     33 H8         -6.5773    1.9404    0.4063 H         1 <0>         0.1382
     34 H9         -9.0306    1.9780    0.5786 H         1 <0>         0.1318
     35 H10       -10.2932   -0.1304    0.6883 H         1 <0>         0.1276
     36 H11        -9.1128   -2.2875    0.6157 H         1 <0>         0.1297
     37 H12        -6.6606   -2.3474    0.4345 H         1 <0>         0.1340
     38 H13         2.2919   -0.4614    0.1011 H         1 <0>         0.1362
     39 H14         4.7023   -0.7992    0.4158 H         1 <0>         0.1221
     40 H15         6.1595    1.1096    0.9609 H         1 <0>         0.1209
     41 H16         5.1970    3.3656    1.1802 H         1 <0>         0.1221
     42 H17         2.6817    4.7032    0.1152 H         1 <0>         0.0870
     43 H18         2.4196    4.4026    1.8610 H         1 <0>         0.0954
     44 O4         -0.2062    5.0373    2.1297 O.co2     1 <0>        -0.7431
@<TRIPOS>BOND
     1    1    2 1
     2    1   28 1
     3    1   29 1
     4    1   30 1
     5    2    3 1
     6    2    4 1
     7    2   14 1
     8    4    5 1
     9    4   31 1
    10    4   32 1
    11    5    6 1
    12    6    7 2
    13    6    8 1
    14    8   13 ar
    15    8    9 ar
    16    9   10 ar
    17    9   33 1
    18   10   11 ar
    19   10   34 1
    20   11   12 ar
    21   11   35 1
    22   12   13 ar
    23   12   36 1
    24   13   37 1
    25   14   15 2
    26   14   16 am
    27   16   24 1
    28   16   17 1
    29   17   22 ar
    30   17   18 ar
    31   18   19 ar
    32   18   38 1
    33   19   20 ar
    34   19   39 1
    35   20   21 ar
    36   20   40 1
    37   21   22 ar
    38   21   41 1
    39   22   23 1
    40   23   24 1
    41   23   42 1
    42   23   43 1
    43   24   25 1
    44   24   26 1
    45   26   27 2
    46   26   44 1
@<TRIPOS>MOLECULE
ZINC00057001
   28    28     0     0     0
SMALL
USER_CHARGES

@<TRIPOS>ATOM
      1 C1         -0.0187    1.5258    0.0104 C.3       1 <0>        -0.1499
      2 C2          0.0021   -0.0041    0.0020 C.3       1 <0>        -0.0861
      3 H1         -1.0205   -0.3814    0.0098 H         1 <0>         0.0991
      4 C3          0.7421   -0.5109    1.2415 C.3       1 <0>        -0.0413
      5 S1         -0.1871   -0.0517    2.7303 S.3       1 <0>        -0.2560
      6 C4          0.7074   -0.4901   -1.2379 C.2       1 <0>         0.5406
      7 O1          1.7039   -1.1744   -1.1398 O.2       1 <0>        -0.5341
      8 N1          0.2309   -0.1642   -2.4557 N.am      1 <0>        -0.5870
      9 C5         -0.9612    0.6622   -2.7190 C.3       1 <0>         0.1001
     10 C6         -1.4323    0.2395   -4.1329 C.3       1 <0>        -0.1344
     11 C7         -0.0792    0.0101   -4.8565 C.3       1 <0>        -0.1069
     12 C8          0.8176   -0.5687   -3.7417 C.3       1 <0>         0.0652
     13 H2          0.8397   -1.6561   -3.8134 H         1 <0>         0.0661
     14 C9          2.2140   -0.0156   -3.8646 C.2       1 <0>         0.4962
     15 O2          2.9386   -0.3858   -4.7726 O.co2     1 <0>        -0.7023
     16 O3          2.6192    0.8020   -3.0561 O.co2     1 <0>        -0.6788
     17 H3          1.0039    1.9031    0.0027 H         1 <0>         0.0664
     18 H4         -0.5459    1.8868   -0.8726 H         1 <0>         0.0680
     19 H5         -0.5289    1.8773    0.9072 H         1 <0>         0.0715
     20 H6          0.8346   -1.5958    1.1912 H         1 <0>         0.0908
     21 H7          1.7350   -0.0630    1.2804 H         1 <0>         0.0927
     22 H8          0.5521   -0.5447    3.7401 H         1 <0>         0.0864
     23 H9         -1.7373    0.4540   -1.9825 H         1 <0>         0.0699
     24 H10        -0.6995    1.7202   -2.7069 H         1 <0>         0.0682
     25 H11        -2.0144   -0.6812   -4.0917 H         1 <0>         0.0709
     26 H12        -2.0003    1.0379   -4.6104 H         1 <0>         0.0779
     27 H13        -0.1941   -0.7041   -5.6719 H         1 <0>         0.0749
     28 H14         0.3271    0.9530   -5.2227 H         1 <0>         0.0719
@<TRIPOS>BOND
     1    1    2 1
     2    1   17 1
     3    1   18 1
     4    1   19 1
     5    2    3 1
     6    2    4 1
     7    2    6 1
     8    4    5 1
     9    4   20 1
    10    4   21 1
    11    5   22 1
    12    6    7 2
    13    6    8 am
    14    8   12 1
    15    8    9 1
    16    9   10 1
    17    9   23 1
    18    9   24 1
    19   10   11 1
    20   10   25 1
    21   10   26 1
    22   11   12 1
    23   11   27 1
    24   11   28 1
    25   12   13 1
    26   12   14 1
    27   14   15 2
    28   14   16 1
@<TRIPOS>MOLECULE
ZINC03814167
   25    25     0     0     0
SMALL
USER_CHARGES
1-(3-sulfanylpropanoyl)pyrrolidine-2-carboxylic acid
@<TRIPOS>ATOM
      1 C1         -0.8250    1.6304   -1.1965 C.3       1 <0>        -0.1342
      2 C2         -0.0127    1.0858    0.0080 C.3       1 <0>        -0.1050
      3 C3         -0.7976    1.6145    1.2270 C.3       1 <0>         0.0920
      4 H1         -1.4676    0.8402    1.6007 H         1 <0>         0.0736
      5 N1         -1.5807    2.7750    0.7685 N.am      1 <0>        -0.5974
      6 C4         -1.2939    3.0056   -0.6591 C.3       1 <0>         0.0998
      7 C5         -2.4187    3.5066    1.5294 C.2       1 <0>         0.5366
      8 O1         -2.5791    3.2244    2.6980 O.2       1 <0>        -0.5292
      9 C6         -3.1565    4.6750    0.9283 C.3       1 <0>        -0.1165
     10 C7         -4.0341    5.3288    1.9975 C.3       1 <0>        -0.0444
     11 S1         -4.9222    6.7353    1.2738 S.3       1 <0>        -0.2622
     12 C8          0.1613    2.0337    2.3114 C.2       1 <0>         0.4621
     13 O2          0.1863    3.1826    2.6847 O.co2     1 <0>        -0.6195
     14 H2         -0.1898    1.7499   -2.0742 H         1 <0>         0.0792
     15 H3         -1.6762    0.9862   -1.4170 H         1 <0>         0.0721
     16 H4          0.0021   -0.0041    0.0020 H         1 <0>         0.0780
     17 H5          1.0020    1.4839    0.0005 H         1 <0>         0.0745
     18 H6         -0.5029    3.7469   -0.7723 H         1 <0>         0.0657
     19 H7         -2.1953    3.3290   -1.1797 H         1 <0>         0.0714
     20 H8         -2.4382    5.4037    0.5524 H         1 <0>         0.1009
     21 H9         -3.7830    4.3258    0.1076 H         1 <0>         0.0972
     22 H10        -4.7524    4.6001    2.3734 H         1 <0>         0.0906
     23 H11        -3.4075    5.6780    2.8182 H         1 <0>         0.0945
     24 H12        -5.6496    7.2213    2.2954 H         1 <0>         0.0913
     25 O3          0.9874    1.1308    2.8626 O.co2     1 <0>        -0.7711
@<TRIPOS>BOND
     1    1    6 1
     2    1    2 1
     3    1   14 1
     4    1   15 1
     5    2    3 1
     6    2   16 1
     7    2   17 1
     8    3    4 1
     9    3    5 1
    10    3   12 1
    11    5    6 1
    12    5    7 am
    13    6   18 1
    14    6   19 1
    15    7    8 2
    16    7    9 1
    17    9   10 1
    18    9   20 1
    19    9   21 1
    20   10   11 1
    21   10   22 1
    22   10   23 1
    23   11   24 1
    24   12   13 2
    25   12   25 1
@<TRIPOS>MOLECULE
ZINC05395387
   25    25     0     0     0
SMALL
USER_CHARGES
1-(3-sulfanylpropanoyl)pyrrolidine-2-carboxylic acid
@<TRIPOS>ATOM
      1 C1          0.6506   -0.1157   -4.1559 C.3       1 <0>        -0.1343
      2 C2         -0.0560    1.0779   -4.8511 C.3       1 <0>        -0.1048
      3 C3         -0.8995    1.6905   -3.7132 C.3       1 <0>         0.0914
      4 H1         -1.9236    1.3218   -3.7710 H         1 <0>         0.0735
      5 N1         -0.2884    1.2723   -2.4431 N.am      1 <0>        -0.5968
      6 C4          0.9056    0.4595   -2.7379 C.3       1 <0>         0.0996
      7 C5         -0.7416    1.5850   -1.2129 C.2       1 <0>         0.5367
      8 O1         -1.7359    2.2682   -1.0884 O.2       1 <0>        -0.5291
      9 C6         -0.0127    1.0858    0.0080 C.3       1 <0>        -0.1164
     10 C7         -0.7288    1.5792    1.2668 C.3       1 <0>        -0.0444
     11 S1          0.1485    0.9783    2.7364 S.3       1 <0>        -0.2622
     12 C8         -0.8863    3.1938   -3.8178 C.2       1 <0>         0.4620
     13 O2         -0.4153    3.8575   -2.9247 O.co2     1 <0>        -0.6198
     14 H2         -0.0029   -0.9872   -4.1159 H         1 <0>         0.0724
     15 H3          1.5901   -0.3570   -4.6531 H         1 <0>         0.0789
     16 H4         -0.6966    0.7283   -5.6608 H         1 <0>         0.0782
     17 H5          0.6751    1.7974   -5.2196 H         1 <0>         0.0745
     18 H6          1.7995    1.0833   -2.7342 H         1 <0>         0.0661
     19 H7          1.0030   -0.3486   -2.0130 H         1 <0>         0.0714
     20 H8          0.0021   -0.0041    0.0020 H         1 <0>         0.0973
     21 H9          1.0099    1.4631    0.0003 H         1 <0>         0.1009
     22 H10        -0.7436    2.6691    1.2728 H         1 <0>         0.0945
     23 H11        -1.7514    1.2020    1.2746 H         1 <0>         0.0906
     24 H12        -0.5652    1.4698    3.7651 H         1 <0>         0.0913
     25 O3         -1.3979    3.7956   -4.9031 O.co2     1 <0>        -0.7714
@<TRIPOS>BOND
     1    1    6 1
     2    1    2 1
     3    1   14 1
     4    1   15 1
     5    2    3 1
     6    2   16 1
     7    2   17 1
     8    3    4 1
     9    3    5 1
    10    3   12 1
    11    5    6 1
    12    5    7 am
    13    6   18 1
    14    6   19 1
    15    7    8 2
    16    7    9 1
    17    9   10 1
    18    9   20 1
    19    9   21 1
    20   10   11 1
    21   10   22 1
    22   10   23 1
    23   11   24 1
    24   12   13 2
    25   12   25 1
@<TRIPOS>MOLECULE
ZINC01532334
   48    49     0     0     0
SMALL
USER_CHARGES
(2R)-1-[(2S)-2-[[(1S)-1-carboxy-3-phenyl-propyl]amino]propanoyl]pyrrolidine-2-carboxylic acid
@<TRIPOS>ATOM
      1 C1         -1.3973   -4.3397    1.7157 C.3       1 <0>        -0.1604
      2 C2         -1.0147   -3.8618    0.3135 C.3       1 <0>         0.0231
      3 H1          0.0166   -4.1443    0.1022 H         1 <0>         0.1406
      4 C3         -1.9282   -4.4997   -0.7013 C.2       1 <0>         0.5244
      5 O1         -2.9317   -3.9218   -1.0617 O.2       1 <0>        -0.5212
      6 N1         -1.6300   -5.7123   -1.2082 N.am      1 <0>        -0.5773
      7 C4         -0.5071   -6.5683   -0.7844 C.3       1 <0>         0.0867
      8 C5         -0.9393   -8.0065   -1.1644 C.3       1 <0>        -0.1329
      9 C6         -1.6849   -7.7642   -2.5033 C.3       1 <0>        -0.1053
     10 C7         -2.3746   -6.4034   -2.2711 C.3       1 <0>         0.0901
     11 H2         -3.4077   -6.5576   -1.9598 H         1 <0>         0.0816
     12 C8         -2.3342   -5.5885   -3.5381 C.2       1 <0>         0.4650
     13 O2         -1.7444   -4.5342   -3.5598 O.co2     1 <0>        -0.6273
     14 C9          0.0690   -1.7371    0.7304 C.3       1 <0>        -0.0195
     15 H3          0.9416   -2.3309    0.4580 H         1 <0>         0.1357
     16 C10         0.1807   -0.3475    0.1000 C.3       1 <0>        -0.1171
     17 C11         0.3760   -0.4872   -1.4110 C.3       1 <0>        -0.0974
     18 C12         0.4860    0.8815   -2.0320 C.ar      1 <0>        -0.0792
     19 C13        -0.6497    1.5316   -2.4776 C.ar      1 <0>        -0.1148
     20 C14        -0.5493    2.7890   -3.0432 C.ar      1 <0>        -0.1177
     21 C15         0.6878    3.3924   -3.1715 C.ar      1 <0>        -0.1238
     22 C16         1.8240    2.7400   -2.7306 C.ar      1 <0>        -0.1190
     23 C17         1.7231    1.4845   -2.1611 C.ar      1 <0>        -0.1124
     24 C18         0.0000   -1.6044    2.2300 C.2       1 <0>         0.4627
     25 O3         -0.9632   -2.0198    2.8296 O.co2     1 <0>        -0.6090
     26 H4         -1.4285   -5.4291    1.7323 H         1 <0>         0.0833
     27 H5         -0.6578   -3.9863    2.4343 H         1 <0>         0.1096
     28 H6         -2.3781   -3.9441    1.9793 H         1 <0>         0.0862
     29 H7          0.4026   -6.2922   -1.3177 H         1 <0>         0.0739
     30 H8         -0.3542   -6.4882    0.2918 H         1 <0>         0.0775
     31 H9         -0.0714   -8.6493   -1.3114 H         1 <0>         0.0850
     32 H10        -1.6102   -8.4241   -0.4137 H         1 <0>         0.0765
     33 H11        -0.9798   -7.7067   -3.3325 H         1 <0>         0.0779
     34 H12        -2.4235   -8.5460   -2.6805 H         1 <0>         0.0837
     35 H13         1.0331    0.1788    0.5294 H         1 <0>         0.1170
     36 H14        -0.7313    0.2156    0.2980 H         1 <0>         0.0818
     37 H15        -0.4765   -1.0136   -1.8404 H         1 <0>         0.0709
     38 H16         1.2880   -1.0503   -1.6090 H         1 <0>         0.0864
     39 H17        -1.6157    1.0586   -2.3808 H         1 <0>         0.1226
     40 H18        -1.4370    3.2987   -3.3873 H         1 <0>         0.1219
     41 H19         0.7665    4.3736   -3.6158 H         1 <0>         0.1201
     42 H20         2.7905    3.2115   -2.8309 H         1 <0>         0.1216
     43 H21         2.6109    0.9749   -1.8167 H         1 <0>         0.1237
     44 O4         -2.9535   -6.0339   -4.6426 O.co2     1 <0>        -0.7580
     45 N2         -1.1556   -2.3955    0.2375 N.4       1 <0>        -0.4874
     46 H22        -1.9533   -2.1016    0.8132 H         1 <0>         0.4352
     47 H23        -1.3183   -2.1210   -0.7384 H         1 <0>         0.4229
     48 O5          1.0086   -1.0246    2.8996 O.co2     1 <0>        -0.7077
@<TRIPOS>BOND
     1    1    2 1
     2    1   26 1
     3    1   27 1
     4    1   28 1
     5    2    3 1
     6    2    4 1
     7    2   45 1
     8    4    5 2
     9    4    6 am
    10    6   10 1
    11    6    7 1
    12    7    8 1
    13    7   29 1
    14    7   30 1
    15    8    9 1
    16    8   31 1
    17    8   32 1
    18    9   10 1
    19    9   33 1
    20    9   34 1
    21   10   11 1
    22   10   12 1
    23   12   13 2
    24   12   44 1
    25   14   15 1
    26   14   16 1
    27   14   24 1
    28   14   45 1
    29   16   17 1
    30   16   35 1
    31   16   36 1
    32   17   18 1
    33   17   37 1
    34   17   38 1
    35   18   23 ar
    36   18   19 ar
    37   19   20 ar
    38   19   39 1
    39   20   21 ar
    40   20   40 1
    41   21   22 ar
    42   21   41 1
    43   22   23 ar
    44   22   42 1
    45   23   43 1
    46   24   25 2
    47   24   48 1
    48   45   46 1
    49   45   47 1
@<TRIPOS>MOLECULE
ZINC03812851
   48    49     0     0     0
SMALL
USER_CHARGES

@<TRIPOS>ATOM
      1 C1         -1.4456   -0.3077    0.0442 C.3       1 <0>        -0.1742
      2 C2          0.0722   -0.1534    0.1596 C.3       1 <0>         0.0100
      3 H1          0.3177    0.8911    0.3515 H         1 <0>         0.1708
      4 C3          0.5789   -1.0052    1.2949 C.2       1 <0>         0.5276
      5 O1          1.3873   -1.8834    1.0802 O.2       1 <0>        -0.5254
      6 N1          0.1335   -0.7910    2.5488 N.am      1 <0>        -0.5683
      7 C4         -0.8487    0.2330    2.9486 C.3       1 <0>         0.0882
      8 C5         -0.5618    0.4936    4.4484 C.3       1 <0>        -0.1335
      9 C6         -0.2014   -0.9302    4.9486 C.3       1 <0>        -0.1074
     10 C7          0.5421   -1.5442    3.7435 C.3       1 <0>         0.0637
     11 H2          1.6185   -1.4533    3.8889 H         1 <0>         0.0738
     12 C8          0.1636   -2.9947    3.5892 C.2       1 <0>         0.4996
     13 O2          0.5749   -3.8203    4.3866 O.co2     1 <0>        -0.6928
     14 O3         -0.5540   -3.3427    2.6670 O.co2     1 <0>        -0.6829
     15 N2          0.7048   -0.5827   -1.0948 N.4       1 <0>        -0.4643
     16 C9          2.1416   -0.2803   -1.0471 C.3       1 <0>        -0.0600
     17 H3          2.5739   -0.7118   -0.1443 H         1 <0>         0.1486
     18 C10         2.8293   -0.8764   -2.2771 C.3       1 <0>        -0.1097
     19 C11         2.7349   -2.4025   -2.2247 C.3       1 <0>        -0.0932
     20 C12         3.4122   -2.9896   -3.4361 C.ar      1 <0>        -0.0771
     21 C13         2.6890   -3.2102   -4.5934 C.ar      1 <0>        -0.1190
     22 C14         3.3103   -3.7487   -5.7046 C.ar      1 <0>        -0.1195
     23 C15         4.6549   -4.0662   -5.6587 C.ar      1 <0>        -0.1259
     24 C16         5.3783   -3.8448   -4.5018 C.ar      1 <0>        -0.1170
     25 C17         4.7580   -3.3023   -3.3919 C.ar      1 <0>        -0.1119
     26 C18         2.3404    1.2135   -1.0350 C.2       1 <0>         0.4980
     27 O4          1.3875    1.9566   -1.1964 O.co2     1 <0>        -0.6788
     28 O5          3.4543    1.6788   -0.8637 O.co2     1 <0>        -0.6404
     29 H4         -1.8224    0.3699   -0.7219 H         1 <0>         0.0871
     30 H5         -1.6867   -1.3350   -0.2289 H         1 <0>         0.0811
     31 H6         -1.9090   -0.0678    1.0012 H         1 <0>         0.1053
     32 H7         -0.7023    1.1453    2.3703 H         1 <0>         0.0765
     33 H8         -1.8634   -0.1424    2.8161 H         1 <0>         0.0757
     34 H9          0.2792    1.1758    4.5725 H         1 <0>         0.0762
     35 H10        -1.4488    0.8730    4.9557 H         1 <0>         0.0832
     36 H11         0.4498   -0.8791    5.8212 H         1 <0>         0.0800
     37 H12        -1.1032   -1.5003    5.1719 H         1 <0>         0.0746
     38 H13         0.5740   -1.5759   -1.2147 H         1 <0>         0.4113
     39 H14         2.3383   -0.5127   -3.1797 H         1 <0>         0.0758
     40 H15         3.8774   -0.5773   -2.2879 H         1 <0>         0.1081
     41 H16         3.2258   -2.7662   -1.3220 H         1 <0>         0.0921
     42 H17         1.6868   -2.7016   -2.2138 H         1 <0>         0.0645
     43 H18         1.6385   -2.9621   -4.6292 H         1 <0>         0.1194
     44 H19         2.7452   -3.9217   -6.6085 H         1 <0>         0.1204
     45 H20         5.1402   -4.4876   -6.5267 H         1 <0>         0.1196
     46 H21         6.4288   -4.0932   -4.4658 H         1 <0>         0.1219
     47 H22         5.3240   -3.1259   -2.4892 H         1 <0>         0.1250
     48 H23         0.2834   -0.0920   -1.8691 H         1 <0>         0.4233
@<TRIPOS>BOND
     1    1    2 1
     2    1   29 1
     3    1   30 1
     4    1   31 1
     5    2    3 1
     6    2    4 1
     7    2   15 1
     8    4    5 2
     9    4    6 am
    10    6   10 1
    11    6    7 1
    12    7    8 1
    13    7   32 1
    14    7   33 1
    15    8    9 1
    16    8   34 1
    17    8   35 1
    18    9   10 1
    19    9   36 1
    20    9   37 1
    21   10   11 1
    22   10   12 1
    23   12   13 2
    24   12   14 1
    25   15   16 1
    26   15   38 1
    27   15   48 1
    28   16   17 1
    29   16   18 1
    30   16   26 1
    31   18   19 1
    32   18   39 1
    33   18   40 1
    34   19   20 1
    35   19   41 1
    36   19   42 1
    37   20   25 ar
    38   20   21 ar
    39   21   22 ar
    40   21   43 1
    41   22   23 ar
    42   22   44 1
    43   23   24 ar
    44   23   45 1
    45   24   25 ar
    46   24   46 1
    47   25   47 1
    48   26   27 2
    49   26   28 1
@<TRIPOS>MOLECULE
ZINC06491423
   48    49     0     0     0
SMALL
USER_CHARGES
1-[2-(1-carboxy-3-phenyl-propyl)aminopropanoyl]pyrrolidine-2-carboxylic acid
@<TRIPOS>ATOM
      1 C1         -4.1287    4.3894   -1.0493 C.3       1 <0>        -0.1778
      2 C2         -4.1950    4.9499    0.3727 C.3       1 <0>         0.0181
      3 H1         -5.1013    4.5932    0.8620 H         1 <0>         0.1556
      4 C3         -4.2128    6.4558    0.3187 C.2       1 <0>         0.5287
      5 O1         -3.2830    7.0899    0.7709 O.2       1 <0>        -0.5137
      6 N1         -5.2619    7.0981   -0.2320 N.am      1 <0>        -0.5763
      7 C4         -6.4844    6.4586   -0.7514 C.3       1 <0>         0.0824
      8 C5         -7.0518    7.4618   -1.7832 C.3       1 <0>        -0.1332
      9 C6         -6.7278    8.8216   -1.1099 C.3       1 <0>        -0.1051
     10 C7         -5.3739    8.5519   -0.4201 C.3       1 <0>         0.0908
     11 H2         -4.5592    8.9080   -1.0506 H         1 <0>         0.0790
     12 C8         -5.3287    9.2466    0.9165 C.2       1 <0>         0.4578
     13 O2         -5.2144    8.5992    1.9302 O.co2     1 <0>        -0.6084
     14 C9         -3.2451    3.1709    1.7127 C.3       1 <0>        -0.0195
     15 H3         -3.8529    2.5750    1.0318 H         1 <0>         0.1354
     16 C10        -1.8998    2.4771    1.9354 C.3       1 <0>        -0.1191
     17 C11        -1.2287    2.2200    0.5847 C.3       1 <0>        -0.0920
     18 C12         0.0964    1.5366    0.8041 C.ar      1 <0>        -0.0833
     19 C13         1.2444    2.2899    0.9641 C.ar      1 <0>        -0.1171
     20 C14         2.4610    1.6629    1.1582 C.ar      1 <0>        -0.1175
     21 C15         2.5292    0.2827    1.1947 C.ar      1 <0>        -0.1224
     22 C16         1.3811   -0.4705    1.0353 C.ar      1 <0>        -0.1177
     23 C17         0.1647    0.1564    0.8398 C.ar      1 <0>        -0.1119
     24 C18        -3.9611    3.3136    3.0310 C.2       1 <0>         0.4532
     25 O3         -4.2537    4.4108    3.4439 O.co2     1 <0>        -0.5946
     26 H4         -4.2505    3.3066   -1.0191 H         1 <0>         0.0891
     27 H5         -4.9253    4.8280   -1.6503 H         1 <0>         0.1086
     28 H6         -3.1630    4.6342   -1.4917 H         1 <0>         0.0821
     29 H7         -6.2415    5.5126   -1.2354 H         1 <0>         0.0781
     30 H8         -7.2014    6.3003    0.0542 H         1 <0>         0.0767
     31 H9         -8.1272    7.3329   -1.9056 H         1 <0>         0.0847
     32 H10        -6.5372    7.3668   -2.7393 H         1 <0>         0.0741
     33 H11        -7.4904    9.0795   -0.3750 H         1 <0>         0.0787
     34 H12        -6.6296    9.6085   -1.8577 H         1 <0>         0.0830
     35 H13        -2.0606    1.5284    2.4476 H         1 <0>         0.1181
     36 H14        -1.2587    3.1145    2.5442 H         1 <0>         0.0832
     37 H15        -1.0679    3.1687    0.0725 H         1 <0>         0.0642
     38 H16        -1.8699    1.5825   -0.0241 H         1 <0>         0.0859
     39 H17         1.1910    3.3682    0.9362 H         1 <0>         0.1219
     40 H18         3.3579    2.2514    1.2831 H         1 <0>         0.1224
     41 H19         3.4794   -0.2071    1.3482 H         1 <0>         0.1209
     42 H20         1.4344   -1.5488    1.0638 H         1 <0>         0.1224
     43 H21        -0.7322   -0.4320    0.7152 H         1 <0>         0.1244
     44 O4         -5.4154   10.5845    0.9807 O.co2     1 <0>        -0.7657
     45 N2         -3.0108    4.5067    1.1324 N.4       1 <0>        -0.4864
     46 H22        -2.8232    5.1760    1.8881 H         1 <0>         0.4441
     47 H23        -2.2006    4.4652    0.5030 H         1 <0>         0.4105
     48 O5         -4.2738    2.2218    3.7466 O.co2     1 <0>        -0.7125
@<TRIPOS>BOND
     1    1    2 1
     2    1   26 1
     3    1   27 1
     4    1   28 1
     5    2    3 1
     6    2    4 1
     7    2   45 1
     8    4    5 2
     9    4    6 am
    10    6   10 1
    11    6    7 1
    12    7    8 1
    13    7   29 1
    14    7   30 1
    15    8    9 1
    16    8   31 1
    17    8   32 1
    18    9   10 1
    19    9   33 1
    20    9   34 1
    21   10   11 1
    22   10   12 1
    23   12   13 2
    24   12   44 1
    25   14   15 1
    26   14   16 1
    27   14   24 1
    28   14   45 1
    29   16   17 1
    30   16   35 1
    31   16   36 1
    32   17   18 1
    33   17   37 1
    34   17   38 1
    35   18   23 ar
    36   18   19 ar
    37   19   20 ar
    38   19   39 1
    39   20   21 ar
    40   20   40 1
    41   21   22 ar
    42   21   41 1
    43   22   23 ar
    44   22   42 1
    45   23   43 1
    46   24   25 2
    47   24   48 1
    48   45   46 1
    49   45   47 1
@<TRIPOS>MOLECULE
ZINC11679157
   48    49     0     0     0
SMALL
USER_CHARGES
(2R)-1-[(2R)-2-[[(1S)-1-carboxy-3-phenyl-propyl]amino]propanoyl]pyrrolidine-2-carboxylic acid
@<TRIPOS>ATOM
      1 C1         -5.0899    1.3062    0.3997 C.3       1 <0>        -0.1786
      2 C2         -4.5281    2.6274    0.9285 C.3       1 <0>         0.0206
      3 H1         -4.4437    3.3405    0.1085 H         1 <0>         0.1535
      4 C3         -3.1668    2.3897    1.5297 C.2       1 <0>         0.5303
      5 O1         -2.9671    2.6444    2.6985 O.2       1 <0>        -0.5152
      6 N1         -2.1712    1.8940    0.7684 N.am      1 <0>        -0.5777
      7 C4         -2.2753    1.5414   -0.6593 C.3       1 <0>         0.0890
      8 C5         -0.8250    1.6304   -1.1965 C.3       1 <0>        -0.1346
      9 C6         -0.0127    1.0858    0.0080 C.3       1 <0>        -0.1052
     10 C7         -0.7976    1.6145    1.2270 C.3       1 <0>         0.0909
     11 H2         -0.3353    2.5297    1.5970 H         1 <0>         0.0822
     12 C8         -0.8187    0.5716    2.3146 C.2       1 <0>         0.4653
     13 O2         -1.8711    0.1128    2.6914 O.co2     1 <0>        -0.6239
     14 C9         -6.5159    3.9453    1.3461 C.3       1 <0>        -0.0192
     15 H3         -6.8005    3.4909    0.3971 H         1 <0>         0.1366
     16 C10        -7.7226    3.9598    2.2867 C.3       1 <0>        -0.1187
     17 C11        -8.2739    2.5398    2.4310 C.3       1 <0>        -0.0938
     18 C12        -9.4624    2.5541    3.3573 C.ar      1 <0>        -0.0830
     19 C13        -9.2826    2.3683    4.7153 C.ar      1 <0>        -0.1164
     20 C14       -10.3724    2.3858    5.5656 C.ar      1 <0>        -0.1173
     21 C15       -11.6430    2.5800    5.0568 C.ar      1 <0>        -0.1225
     22 C16       -11.8233    2.7606    3.6982 C.ar      1 <0>        -0.1182
     23 C17       -10.7331    2.7475    2.8485 C.ar      1 <0>        -0.1122
     24 C18        -6.0486    5.3578    1.1068 C.2       1 <0>         0.4581
     25 O3         -4.9257    5.6826    1.4125 O.co2     1 <0>        -0.6073
     26 H4         -4.4211    0.9061   -0.3624 H         1 <0>         0.1073
     27 H5         -5.1743    0.5931    1.2197 H         1 <0>         0.0879
     28 H6         -6.0745    1.4782   -0.0351 H         1 <0>         0.0851
     29 H7         -2.9169    2.2524   -1.1798 H         1 <0>         0.0754
     30 H8         -2.6603    0.5280   -0.7727 H         1 <0>         0.0751
     31 H9         -0.5526    2.6626   -1.4168 H         1 <0>         0.0773
     32 H10        -0.6935    0.9980   -2.0745 H         1 <0>         0.0844
     33 H11         0.0021   -0.0041    0.0020 H         1 <0>         0.0773
     34 H12         1.0020    1.4839    0.0005 H         1 <0>         0.0835
     35 H13        -7.4167    4.3319    3.2645 H         1 <0>         0.0829
     36 H14        -8.4955    4.6096    1.8761 H         1 <0>         0.1177
     37 H15        -8.5798    2.1677    1.4532 H         1 <0>         0.0864
     38 H16        -7.5010    1.8900    2.8415 H         1 <0>         0.0665
     39 H17        -8.2904    2.2128    5.1123 H         1 <0>         0.1227
     40 H18       -10.2314    2.2450    6.6270 H         1 <0>         0.1225
     41 H19       -12.4947    2.5910    5.7208 H         1 <0>         0.1208
     42 H20       -12.8160    2.9124    3.3008 H         1 <0>         0.1221
     43 H21       -10.8740    2.8886    1.7871 H         1 <0>         0.1240
     44 O4          0.3316    0.1523    2.8648 O.co2     1 <0>        -0.7607
     45 N2         -5.4283    3.1652    1.9660 N.4       1 <0>        -0.4872
     46 H22        -4.8929    3.7728    2.5972 H         1 <0>         0.4407
     47 H23        -5.8319    2.3870    2.5007 H         1 <0>         0.4150
     48 O5         -6.8798    6.2552    0.5540 O.co2     1 <0>        -0.7096
@<TRIPOS>BOND
     1    1    2 1
     2    1   26 1
     3    1   27 1
     4    1   28 1
     5    2    3 1
     6    2    4 1
     7    2   45 1
     8    4    5 2
     9    4    6 am
    10    6   10 1
    11    6    7 1
    12    7    8 1
    13    7   29 1
    14    7   30 1
    15    8    9 1
    16    8   31 1
    17    8   32 1
    18    9   10 1
    19    9   33 1
    20    9   34 1
    21   10   11 1
    22   10   12 1
    23   12   13 2
    24   12   44 1
    25   14   15 1
    26   14   16 1
    27   14   24 1
    28   14   45 1
    29   16   17 1
    30   16   35 1
    31   16   36 1
    32   17   18 1
    33   17   37 1
    34   17   38 1
    35   18   23 ar
    36   18   19 ar
    37   19   20 ar
    38   19   39 1
    39   20   21 ar
    40   20   40 1
    41   21   22 ar
    42   21   41 1
    43   22   23 ar
    44   22   42 1
    45   23   43 1
    46   24   25 2
    47   24   48 1
    48   45   46 1
    49   45   47 1
@<TRIPOS>MOLECULE
ZINC03814179
   32    33     0     0     0
SMALL
USER_CHARGES
1-(2-methyl-3-sulfanyl-propanoyl)indoline-2-carboxylic acid
@<TRIPOS>ATOM
      1 C1          0.9627   -0.7094   -1.2421 C.3       1 <0>        -0.1409
      2 C2          0.1235   -0.2986   -0.0306 C.3       1 <0>        -0.0919
      3 H1          0.5143   -0.7843    0.8636 H         1 <0>         0.1188
      4 C3         -1.3297   -0.7246   -0.2486 C.3       1 <0>        -0.0390
      5 S1         -1.4267   -2.5350   -0.3078 S.3       1 <0>        -0.2402
      6 C4          0.1881    1.1972    0.1413 C.2       1 <0>         0.5593
      7 O1         -0.5799    1.9113   -0.4679 O.2       1 <0>        -0.5387
      8 N1          1.0957    1.7410    0.9763 N.am      1 <0>        -0.5275
      9 C5          1.3304    3.1117    1.1223 C.ar      1 <0>         0.1592
     10 C6          0.7189    4.1882    0.4767 C.ar      1 <0>        -0.1378
     11 C7          1.1006    5.4806    0.7665 C.ar      1 <0>        -0.1003
     12 C8          2.0923    5.7208    1.7001 C.ar      1 <0>        -0.1529
     13 C9          2.7021    4.6603    2.3437 C.ar      1 <0>        -0.0815
     14 C10         2.3229    3.3630    2.0560 C.ar      1 <0>        -0.1344
     15 C11         2.8156    2.0418    2.6021 C.3       1 <0>        -0.0644
     16 C12         1.9766    0.9827    1.8686 C.3       1 <0>         0.0778
     17 H2          2.6243    0.3238    1.2903 H         1 <0>         0.0931
     18 C13         1.1616    0.1841    2.8530 C.2       1 <0>         0.4599
     19 O2         -0.0451    0.2362    2.8211 O.co2     1 <0>        -0.6153
     20 H3          1.9784   -0.3314   -1.1256 H         1 <0>         0.0588
     21 H4          0.9859   -1.7967   -1.3162 H         1 <0>         0.0795
     22 H5          0.5216   -0.2929   -2.1477 H         1 <0>         0.0622
     23 H6         -1.9439   -0.3545    0.5723 H         1 <0>         0.0918
     24 H7         -1.6925   -0.3103   -1.1892 H         1 <0>         0.0886
     25 H8         -2.7342   -2.7847   -0.5007 H         1 <0>         0.0808
     26 H9         -0.0562    4.0074   -0.2534 H         1 <0>         0.1356
     27 H10         0.6235    6.3084    0.2630 H         1 <0>         0.1218
     28 H11         2.3892    6.7343    1.9260 H         1 <0>         0.1207
     29 H12         3.4764    4.8461    3.0733 H         1 <0>         0.1220
     30 H13         3.8752    1.9111    2.3824 H         1 <0>         0.0870
     31 H14         2.6412    1.9858    3.6766 H         1 <0>         0.0950
     32 O3          1.7762   -0.5850    3.7654 O.co2     1 <0>        -0.7469
@<TRIPOS>BOND
     1    1    2 1
     2    1   20 1
     3    1   21 1
     4    1   22 1
     5    2    3 1
     6    2    4 1
     7    2    6 1
     8    4    5 1
     9    4   23 1
    10    4   24 1
    11    5   25 1
    12    6    7 2
    13    6    8 am
    14    8   16 1
    15    8    9 1
    16    9   14 ar
    17    9   10 ar
    18   10   11 ar
    19   10   26 1
    20   11   12 ar
    21   11   27 1
    22   12   13 ar
    23   12   28 1
    24   13   14 ar
    25   13   29 1
    26   14   15 1
    27   15   16 1
    28   15   30 1
    29   15   31 1
    30   16   17 1
    31   16   18 1
    32   18   19 2
    33   18   32 1
@<TRIPOS>MOLECULE
ZINC05497396
   32    33     0     0     0
SMALL
USER_CHARGES
1-(2-methyl-3-sulfanyl-propanoyl)indoline-2-carboxylic acid
@<TRIPOS>ATOM
      1 C1         -1.9543    0.7095    1.1473 C.3       1 <0>        -0.1612
      2 C2         -0.7097    1.5920    1.2615 C.3       1 <0>        -0.0990
      3 H1         -1.0117    2.6332    1.3749 H         1 <0>         0.1139
      4 C3          0.1396    1.4420   -0.0022 C.3       1 <0>        -0.0462
      5 S1         -0.7778    2.0883   -1.4275 S.3       1 <0>        -0.2498
      6 C4          0.0972    1.1695    2.4621 C.2       1 <0>         0.5435
      7 O1          1.0765    0.4686    2.3184 O.2       1 <0>        -0.5047
      8 N1         -0.2694    1.5705    3.6955 N.am      1 <0>        -0.5274
      9 C5         -1.4356    2.2823    3.9934 C.ar      1 <0>         0.1606
     10 C6         -2.4452    2.7254    3.1367 C.ar      1 <0>        -0.1801
     11 C7         -3.5259    3.4199    3.6365 C.ar      1 <0>        -0.0906
     12 C8         -3.6179    3.6835    4.9910 C.ar      1 <0>        -0.1553
     13 C9         -2.6275    3.2390    5.8468 C.ar      1 <0>        -0.0745
     14 C10        -1.5395    2.5474    5.3494 C.ar      1 <0>        -0.1325
     15 C11        -0.3268    1.9729    6.0464 C.3       1 <0>        -0.0657
     16 C12         0.4987    1.3299    4.9200 C.3       1 <0>         0.0889
     17 H2          0.6083    0.2594    5.0934 H         1 <0>         0.0903
     18 C13         1.8527    1.9846    4.8249 C.2       1 <0>         0.4670
     19 O2          2.1584    2.5984    3.8301 O.co2     1 <0>        -0.6172
     20 H3         -2.6135    0.8995    1.9944 H         1 <0>         0.0785
     21 H4         -2.4790    0.9396    0.2199 H         1 <0>         0.0834
     22 H5         -1.6573   -0.3392    1.1461 H         1 <0>         0.0642
     23 H6          0.3672    0.3884   -0.1641 H         1 <0>         0.0943
     24 H7          1.0682    2.0005    0.1157 H         1 <0>         0.0942
     25 H8          0.0594    1.9042   -2.4640 H         1 <0>         0.0891
     26 H9         -2.3790    2.5234    2.0778 H         1 <0>         0.1453
     27 H10        -4.3032    3.7596    2.9681 H         1 <0>         0.1247
     28 H11        -4.4656    4.2278    5.3802 H         1 <0>         0.1215
     29 H12        -2.6973    3.4449    6.9047 H         1 <0>         0.1225
     30 H13        -0.6280    1.2197    6.7745 H         1 <0>         0.0860
     31 H14         0.2438    2.7650    6.5313 H         1 <0>         0.0951
     32 O3          2.7190    1.8859    5.8454 O.co2     1 <0>        -0.7585
@<TRIPOS>BOND
     1    1    2 1
     2    1   20 1
     3    1   21 1
     4    1   22 1
     5    2    3 1
     6    2    4 1
     7    2    6 1
     8    4    5 1
     9    4   23 1
    10    4   24 1
    11    5   25 1
    12    6    7 2
    13    6    8 am
    14    8   16 1
    15    8    9 1
    16    9   14 ar
    17    9   10 ar
    18   10   11 ar
    19   10   26 1
    20   11   12 ar
    21   11   27 1
    22   12   13 ar
    23   12   28 1
    24   13   14 ar
    25   13   29 1
    26   14   15 1
    27   15   16 1
    28   15   30 1
    29   15   31 1
    30   16   17 1
    31   16   18 1
    32   18   19 2
    33   18   32 1
@<TRIPOS>MOLECULE
ZINC08652535
   32    33     0     0     0
SMALL
USER_CHARGES
1-(2-methyl-3-sulfanyl-propanoyl)indoline-2-carboxylic acid
@<TRIPOS>ATOM
      1 C1          6.1895    3.2420   -1.1634 C.3       1 <0>        -0.1413
      2 C2          5.4276    3.6941    0.0840 C.3       1 <0>        -0.1200
      3 H1          5.9044    3.2783    0.9716 H         1 <0>         0.1547
      4 C3          5.4430    5.2219    0.1651 C.3       1 <0>        -0.0362
      5 S1          7.1461    5.7974    0.4082 S.3       1 <0>        -0.2375
      6 C4          4.0028    3.2096    0.0055 C.2       1 <0>         0.5589
      7 O1          3.1219    3.9695   -0.3375 O.2       1 <0>        -0.5431
      8 N1          3.7074    1.9319    0.3164 N.am      1 <0>        -0.5272
      9 C5          2.4164    1.3969    0.3664 C.ar      1 <0>         0.1594
     10 C6          1.1906    2.0187    0.1205 C.ar      1 <0>        -0.1379
     11 C7          0.0160    1.3051    0.2248 C.ar      1 <0>        -0.1003
     12 C8          0.0428   -0.0328    0.5740 C.ar      1 <0>        -0.1531
     13 C9          1.2525   -0.6553    0.8189 C.ar      1 <0>        -0.0814
     14 C10         2.4326    0.0561    0.7155 C.ar      1 <0>        -0.1348
     15 C11         3.8685   -0.3694    0.9249 C.3       1 <0>        -0.0645
     16 C12         4.6920    0.8998    0.6522 C.3       1 <0>         0.0771
     17 H2          5.3715    0.7389   -0.1848 H         1 <0>         0.0952
     18 C13         5.4654    1.2959    1.8835 C.2       1 <0>         0.4612
     19 O2          5.2243    2.3422    2.4377 O.co2     1 <0>        -0.6124
     20 H3          5.7919    3.7563   -2.0383 H         1 <0>         0.0571
     21 H4          7.2468    3.4818   -1.0502 H         1 <0>         0.0784
     22 H5          6.0727    2.1657   -1.2903 H         1 <0>         0.0594
     23 H6          5.0472    5.6390   -0.7609 H         1 <0>         0.0853
     24 H7          4.8265    5.5475    1.0030 H         1 <0>         0.0865
     25 H8          7.0323    7.1364    0.4634 H         1 <0>         0.0769
     26 H9          1.1628    3.0632   -0.1525 H         1 <0>         0.1359
     27 H10        -0.9283    1.7913    0.0288 H         1 <0>         0.1217
     28 H11        -0.8789   -0.5899    0.6548 H         1 <0>         0.1207
     29 H12         1.2752   -1.6999    1.0921 H         1 <0>         0.1220
     30 H13         4.0192   -0.7074    1.9502 H         1 <0>         0.0954
     31 H14         4.1383   -1.1564    0.2207 H         1 <0>         0.0870
     32 O3          6.4219    0.4864    2.3645 O.co2     1 <0>        -0.7432
@<TRIPOS>BOND
     1    1    2 1
     2    1   20 1
     3    1   21 1
     4    1   22 1
     5    2    3 1
     6    2    4 1
     7    2    6 1
     8    4    5 1
     9    4   23 1
    10    4   24 1
    11    5   25 1
    12    6    7 2
    13    6    8 am
    14    8   16 1
    15    8    9 1
    16    9   14 ar
    17    9   10 ar
    18   10   11 ar
    19   10   26 1
    20   11   12 ar
    21   11   27 1
    22   12   13 ar
    23   12   28 1
    24   13   14 ar
    25   13   29 1
    26   14   15 1
    27   15   16 1
    28   15   30 1
    29   15   31 1
    30   16   17 1
    31   16   18 1
    32   18   19 2
    33   18   32 1
@<TRIPOS>MOLECULE
ZINC08652571
   32    33     0     0     0
SMALL
USER_CHARGES
(2S)-1-[(2R)-2-methyl-3-sulfanyl-propanoyl]indoline-2-carboxylic acid
@<TRIPOS>ATOM
      1 C1         -1.3729   -1.8213   -1.1172 C.3       1 <0>        -0.1525
      2 C2         -0.9499   -2.6286    0.1117 C.3       1 <0>        -0.1008
      3 H1         -1.0495   -2.0108    1.0042 H         1 <0>         0.1147
      4 C3         -1.8442   -3.8630    0.2436 C.3       1 <0>        -0.0466
      5 S1         -3.5496   -3.3414    0.5757 S.3       1 <0>        -0.2502
      6 C4          0.4852   -3.0621   -0.0417 C.2       1 <0>         0.5435
      7 O1          0.7423   -4.1727   -0.4559 O.2       1 <0>        -0.5034
      8 N1          1.4830   -2.2157    0.2815 N.am      1 <0>        -0.5281
      9 C5          1.3115   -0.8780    0.6509 C.ar      1 <0>         0.1599
     10 C6          0.1344   -0.1362    0.7681 C.ar      1 <0>        -0.1773
     11 C7          0.1819    1.1871    1.1512 C.ar      1 <0>        -0.0903
     12 C8          1.3966    1.7900    1.4226 C.ar      1 <0>        -0.1554
     13 C9          2.5661    1.0621    1.3088 C.ar      1 <0>        -0.0744
     14 C10         2.5233   -0.2647    0.9251 C.ar      1 <0>        -0.1325
     15 C11         3.6303   -1.2753    0.7252 C.3       1 <0>        -0.0658
     16 C12         2.9067   -2.5626    0.2976 C.3       1 <0>         0.0891
     17 H2          3.2329   -2.8672   -0.6968 H         1 <0>         0.0899
     18 C13         3.1673   -3.6640    1.2926 C.2       1 <0>         0.4667
     19 O2          2.2478   -4.1593    1.9001 O.co2     1 <0>        -0.6166
     20 H3         -1.3235   -2.4548   -2.0028 H         1 <0>         0.0657
     21 H4         -2.3937   -1.4633   -0.9830 H         1 <0>         0.0815
     22 H5         -0.7029   -0.9705   -1.2412 H         1 <0>         0.0712
     23 H6         -1.8133   -4.4348   -0.6839 H         1 <0>         0.0946
     24 H7         -1.4876   -4.4839    1.0653 H         1 <0>         0.0939
     25 H8         -4.2308   -4.4973    0.6701 H         1 <0>         0.0892
     26 H9         -0.8174   -0.6012    0.5579 H         1 <0>         0.1420
     27 H10        -0.7321    1.7561    1.2353 H         1 <0>         0.1246
     28 H11         1.4313    2.8270    1.7223 H         1 <0>         0.1215
     29 H12         3.5155    1.5313    1.5207 H         1 <0>         0.1225
     30 H13         4.3111   -0.9435   -0.0587 H         1 <0>         0.0856
     31 H14         4.1731   -1.4338    1.6571 H         1 <0>         0.0959
     32 O3          4.4209   -4.0947    1.5040 O.co2     1 <0>        -0.7585
@<TRIPOS>BOND
     1    1    2 1
     2    1   20 1
     3    1   21 1
     4    1   22 1
     5    2    3 1
     6    2    4 1
     7    2    6 1
     8    4    5 1
     9    4   23 1
    10    4   24 1
    11    5   25 1
    12    6    7 2
    13    6    8 am
    14    8   16 1
    15    8    9 1
    16    9   14 ar
    17    9   10 ar
    18   10   11 ar
    19   10   26 1
    20   11   12 ar
    21   11   27 1
    22   12   13 ar
    23   12   28 1
    24   13   14 ar
    25   13   29 1
    26   14   15 1
    27   15   16 1
    28   15   30 1
    29   15   31 1
    30   16   17 1
    31   16   18 1
    32   18   19 2
    33   18   32 1
@<TRIPOS>MOLECULE
ZINC28262450
   29    30     0     0     0
SMALL
USER_CHARGES
(2S)-1-(3-sulfanylpropanoyl)indoline-2-carboxylic acid
@<TRIPOS>ATOM
      1 C1          2.3767    1.4389   -0.0115 C.ar      1 <0>        -0.1554
      2 C2          1.1638    2.1033    0.0022 C.ar      1 <0>        -0.0900
      3 C3         -0.0169    1.3921    0.0097 C.ar      1 <0>        -0.1709
      4 C4          0.0021   -0.0041    0.0020 C.ar      1 <0>         0.1585
      5 C5          1.2223   -0.6602   -0.0131 C.ar      1 <0>        -0.1334
      6 C6          2.4035    0.0570   -0.0198 C.ar      1 <0>        -0.0753
      7 C7          0.9674   -2.1507   -0.0187 C.3       1 <0>        -0.0616
      8 C8         -0.5644   -2.2814   -0.0048 C.3       1 <0>         0.0887
      9 H1         -0.9687   -2.8248   -0.8716 H         1 <0>         0.0935
     10 N1         -1.0673   -0.9051    0.0074 N.am      1 <0>        -0.5274
     11 C9         -2.3696   -0.5584    0.0220 C.2       1 <0>         0.5372
     12 O1         -3.2258   -1.4174    0.0260 O.2       1 <0>        -0.5016
     13 C10        -2.7620    0.8966    0.0335 C.3       1 <0>        -0.1222
     14 C11        -4.2874    1.0133    0.0492 C.3       1 <0>        -0.0400
     15 S1         -4.7597    2.7647    0.0631 S.3       1 <0>        -0.1805
     16 C12        -1.0174   -3.0144    1.2315 C.2       1 <0>         0.4638
     17 O2         -1.6982   -2.4487    2.0539 O.co2     1 <0>        -0.6156
     18 O3         -0.6646   -4.2959    1.4191 O.co2     1 <0>        -0.7610
     19 H2          3.3005    1.9984   -0.0169 H         1 <0>         0.1213
     20 H3          1.1417    3.1831    0.0082 H         1 <0>         0.1250
     21 H4         -0.9607    1.9170    0.0170 H         1 <0>         0.1362
     22 H5          3.3498   -0.4635   -0.0320 H         1 <0>         0.1221
     23 H6          1.4081   -2.5946   -0.9235 H         1 <0>         0.0861
     24 H7          1.4253   -2.6044    0.8727 H         1 <0>         0.0949
     25 H8         -2.3479    1.3809    0.9302 H         1 <0>         0.1157
     26 H9         -2.3657    1.3904   -0.8660 H         1 <0>         0.1125
     27 H10        -4.7014    0.5290   -0.8475 H         1 <0>         0.0910
     28 H11        -4.6837    0.5195    0.9487 H         1 <0>         0.0950
     29 H12        -5.8226    3.0476    0.0751 H         1 <0>        -0.0066
@<TRIPOS>BOND
     1    1    6 ar
     2    1    2 ar
     3    1   19 1
     4    2    3 ar
     5    2   20 1
     6    3    4 ar
     7    3   21 1
     8    4   10 1
     9    4    5 ar
    10    5    6 ar
    11    5    7 1
    12    6   22 1
    13    7    8 1
    14    7   23 1
    15    7   24 1
    16    8    9 1
    17    8   10 1
    18    8   16 1
    19   10   11 am
    20   11   12 2
    21   11   13 1
    22   13   14 1
    23   13   25 1
    24   13   26 1
    25   14   15 1
    26   14   27 1
    27   14   28 1
    28   15   29 1
    29   16   17 2
    30   16   18 1
@<TRIPOS>MOLECULE
ZINC28262454
   29    30     0     0     0
SMALL
USER_CHARGES
(2R)-1-(3-sulfanylpropanoyl)indoline-2-carboxylic acid
@<TRIPOS>ATOM
      1 C1          1.3492    8.4701    0.0373 C.ar      1 <0>        -0.1554
      2 C2          0.6781    7.2609    0.0374 C.ar      1 <0>        -0.0900
      3 C3          1.3827    6.0763    0.0230 C.ar      1 <0>        -0.1710
      4 C4          2.7789    6.0876    0.0087 C.ar      1 <0>         0.1585
      5 C5          3.4418    7.3043    0.0088 C.ar      1 <0>        -0.1334
      6 C6          2.7312    8.4894    0.0228 C.ar      1 <0>        -0.0753
      7 C7          4.9308    7.0412   -0.0075 C.3       1 <0>        -0.0616
      8 C8          5.0530    5.5087   -0.0108 C.3       1 <0>         0.0888
      9 H1          5.6019    5.1060    0.8532 H         1 <0>         0.0935
     10 N1          3.6739    5.0133   -0.0061 N.am      1 <0>        -0.5275
     11 C9          3.3201    3.7128   -0.0097 C.2       1 <0>         0.5371
     12 O1          4.1743    2.8519   -0.0225 O.2       1 <0>        -0.5014
     13 C10         1.8630    3.3284    0.0021 C.3       1 <0>        -0.1223
     14 C11         1.7378    1.8035   -0.0048 C.3       1 <0>        -0.0400
     15 S1         -0.0162    1.3408    0.0094 S.3       1 <0>        -0.1806
     16 C12         5.7701    5.0470   -1.2532 C.2       1 <0>         0.4638
     17 O2          5.1918    4.3662   -2.0668 O.co2     1 <0>        -0.6155
     18 O3          7.0514    5.3920   -1.4560 O.co2     1 <0>        -0.7611
     19 H2          0.7949    9.3969    0.0483 H         1 <0>         0.1212
     20 H3         -0.4017    7.2446    0.0484 H         1 <0>         0.1250
     21 H4          0.8526    5.1353    0.0231 H         1 <0>         0.1362
     22 H5          3.2569    9.4328    0.0223 H         1 <0>         0.1221
     23 H6          5.3724    7.4892   -0.9099 H         1 <0>         0.0949
     24 H7          5.3917    7.4869    0.8863 H         1 <0>         0.0861
     25 H8          1.3848    3.7315    0.9070 H         1 <0>         0.1125
     26 H9          1.3677    3.7410   -0.8892 H         1 <0>         0.1157
     27 H10         2.2161    1.4004   -0.9097 H         1 <0>         0.0950
     28 H11         2.2331    1.3909    0.8865 H         1 <0>         0.0910
     29 H12        -0.3051    0.2794    0.0065 H         1 <0>        -0.0066
@<TRIPOS>BOND
     1    1    6 ar
     2    1    2 ar
     3    1   19 1
     4    2    3 ar
     5    2   20 1
     6    3    4 ar
     7    3   21 1
     8    4   10 1
     9    4    5 ar
    10    5    6 ar
    11    5    7 1
    12    6   22 1
    13    7    8 1
    14    7   23 1
    15    7   24 1
    16    8    9 1
    17    8   10 1
    18    8   16 1
    19   10   11 am
    20   11   12 2
    21   11   13 1
    22   13   14 1
    23   13   25 1
    24   13   26 1
    25   14   15 1
    26   14   27 1
    27   14   28 1
    28   15   29 1
    29   16   17 2
    30   16   18 1
@<TRIPOS>MOLECULE
ZINC29320036
   66    68     0     0     0
SMALL
USER_CHARGES
ethyl (2S)-2-[[(3S)-1-(2-ethoxy-2-oxo-ethyl)-2-oxo-4,5-dihydro-3H-1-benzazepin-3-yl]amino]-4-phenyl-butanoate
@<TRIPOS>ATOM
      1 C1          1.9179   -3.6024    6.7921 C.3       1 <0>        -0.1593
      2 C2          1.4297   -2.2865    6.1830 C.3       1 <0>         0.0635
      3 O1          0.0069   -2.3787    5.9083 O.3       1 <0>        -0.3487
      4 C3         -0.5806   -1.2995    5.3680 C.2       1 <0>         0.4496
      5 O2          0.0724   -0.3106    5.1324 O.2       1 <0>        -0.5042
      6 C4         -2.0546   -1.3214    5.0552 C.3       1 <0>         0.1124
      7 N1         -2.4504   -0.0346    4.4774 N.am      1 <0>        -0.5179
      8 C5         -2.8833    1.0146    5.2999 C.ar      1 <0>         0.1018
      9 C6         -2.1451    1.3845    6.4146 C.ar      1 <0>        -0.1096
     10 C7         -2.5781    2.4303    7.2072 C.ar      1 <0>        -0.0948
     11 C8         -3.7420    3.1056    6.8878 C.ar      1 <0>        -0.1038
     12 C9         -4.4814    2.7339    5.7798 C.ar      1 <0>        -0.0892
     13 C10        -4.0571    1.6845    4.9880 C.ar      1 <0>        -0.1036
     14 C11        -4.8726    1.2516    3.7995 C.3       1 <0>        -0.0847
     15 C12        -4.2227    1.7413    2.5038 C.3       1 <0>        -0.1290
     16 C13        -2.7121    1.5177    2.5737 C.3       1 <0>         0.0173
     17 H1         -2.2403    2.2868    3.2029 H         1 <0>         0.1574
     18 C14        -2.4046    0.1627    3.1470 C.2       1 <0>         0.5200
     19 O3         -2.1151   -0.7551    2.4088 O.2       1 <0>        -0.5077
     20 N2         -2.1453    1.6117    1.2217 N.4       1 <0>        -0.5231
     21 C15        -0.7348    2.0192    1.2692 C.3       1 <0>         0.0389
     22 H2         -0.2899    1.5786    2.1736 H         1 <0>         0.1692
     23 C16        -0.0187    1.5258    0.0104 C.3       1 <0>        -0.1356
     24 C17         0.0021   -0.0041    0.0020 C.3       1 <0>        -0.0831
     25 C18         0.7074   -0.4901   -1.2379 C.ar      1 <0>        -0.0988
     26 C19        -0.0122   -0.7293   -2.3936 C.ar      1 <0>        -0.1160
     27 C20         0.6356   -1.1700   -3.5325 C.ar      1 <0>        -0.1147
     28 C21         2.0014   -1.3820   -3.5124 C.ar      1 <0>        -0.1107
     29 C22         2.7203   -1.1483   -2.3550 C.ar      1 <0>        -0.1134
     30 C23         2.0733   -0.7021   -1.2178 C.ar      1 <0>        -0.1107
     31 C24        -0.6482    3.5220    1.3400 C.2       1 <0>         0.4630
     32 O4         -1.6580    4.1855    1.3497 O.2       1 <0>        -0.4910
     33 O5          0.5506    4.1235    1.3921 O.3       1 <0>        -0.3308
     34 C25         0.5580    5.5740    1.4588 C.3       1 <0>         0.0615
     35 C26         2.0028    6.0747    1.5113 C.3       1 <0>        -0.1614
     36 H3          2.9958   -3.5325    7.0002 H         1 <0>         0.0874
     37 H4          1.7335   -4.4245    6.0848 H         1 <0>         0.0708
     38 H5          1.3754   -3.7962    7.7292 H         1 <0>         0.0713
     39 H6          1.6141   -1.4644    6.8903 H         1 <0>         0.0749
     40 H7          1.9722   -2.0926    5.2460 H         1 <0>         0.0737
     41 H8         -2.2648   -2.1265    4.3358 H         1 <0>         0.1465
     42 H9         -2.6231   -1.4984    5.9801 H         1 <0>         0.1418
     43 H10        -1.2360    0.8568    6.6624 H         1 <0>         0.1328
     44 H11        -2.0069    2.7209    8.0765 H         1 <0>         0.1373
     45 H12        -4.0750    3.9261    7.5062 H         1 <0>         0.1369
     46 H13        -5.3896    3.2639    5.5336 H         1 <0>         0.1389
     47 H14        -4.9346    0.1536    3.7777 H         1 <0>         0.0878
     48 H15        -5.8851    1.6746    3.8759 H         1 <0>         0.1098
     49 H16        -4.6366    1.1820    1.6518 H         1 <0>         0.1055
     50 H17        -4.4284    2.8139    2.3730 H         1 <0>         0.1166
     51 H18        -2.2127    0.6316    0.7269 H         1 <0>         0.4616
     52 H19        -0.5508    1.8902   -0.8807 H         1 <0>         0.1024
     53 H20         1.0133    1.9066    0.0025 H         1 <0>         0.1307
     54 H21         0.5342   -0.3684    0.8931 H         1 <0>         0.0924
     55 H22        -1.0299   -0.3849    0.0099 H         1 <0>         0.0741
     56 H23        -1.0800   -0.5679   -2.4080 H         1 <0>         0.1198
     57 H24         0.0741   -1.3523   -4.4368 H         1 <0>         0.1267
     58 H25         2.5070   -1.7299   -4.4011 H         1 <0>         0.1272
     59 H26         3.7874   -1.3139   -2.3393 H         1 <0>         0.1273
     60 H27         2.6349   -0.5194   -0.3136 H         1 <0>         0.1231
     61 H28         0.0598    5.9845    0.5682 H         1 <0>         0.0842
     62 H29         0.0231    5.9023    2.3622 H         1 <0>         0.0825
     63 H30         2.0084    7.1735    1.5618 H         1 <0>         0.0939
     64 H31         2.5377    5.7464    0.6079 H         1 <0>         0.0737
     65 H32         2.5010    5.6641    2.4019 H         1 <0>         0.0729
     66 H33        -2.7080    2.3560    0.6391 H         1 <0>         0.4625
@<TRIPOS>BOND
     1    1    2 1
     2    1   36 1
     3    1   37 1
     4    1   38 1
     5    2    3 1
     6    2   39 1
     7    2   40 1
     8    3    4 1
     9    4    5 2
    10    4    6 1
    11    6    7 1
    12    6   41 1
    13    6   42 1
    14    7   18 am
    15    7    8 1
    16    8   13 ar
    17    8    9 ar
    18    9   10 ar
    19    9   43 1
    20   10   11 ar
    21   10   44 1
    22   11   12 ar
    23   11   45 1
    24   12   13 ar
    25   12   46 1
    26   13   14 1
    27   14   15 1
    28   14   47 1
    29   14   48 1
    30   15   16 1
    31   15   49 1
    32   15   50 1
    33   16   17 1
    34   16   18 1
    35   16   20 1
    36   18   19 2
    37   20   21 1
    38   20   51 1
    39   20   66 1
    40   21   22 1
    41   21   23 1
    42   21   31 1
    43   23   24 1
    44   23   52 1
    45   23   53 1
    46   24   25 1
    47   24   54 1
    48   24   55 1
    49   25   30 ar
    50   25   26 ar
    51   26   27 ar
    52   26   56 1
    53   27   28 ar
    54   27   57 1
    55   28   29 ar
    56   28   58 1
    57   29   30 ar
    58   29   59 1
    59   30   60 1
    60   31   32 2
    61   31   33 1
    62   33   34 1
    63   34   35 1
    64   34   61 1
    65   34   62 1
    66   35   63 1
    67   35   64 1
    68   35   65 1
@<TRIPOS>MOLECULE
ZINC29320036
   65    67     0     0     0
SMALL
USER_CHARGES
ethyl (2S)-2-[[(3S)-1-(2-ethoxy-2-oxo-ethyl)-2-oxo-4,5-dihydro-3H-1-benzazepin-3-yl]amino]-4-phenyl-butanoate
@<TRIPOS>ATOM
      1 C1          1.9179   -3.6024    6.7921 C.3       1 <0>        -0.1558
      2 C2          1.4297   -2.2865    6.1830 C.3       1 <0>         0.0615
      3 O1          0.0069   -2.3787    5.9083 O.3       1 <0>        -0.3552
      4 C3         -0.5806   -1.2995    5.3680 C.2       1 <0>         0.4455
      5 O2          0.0724   -0.3106    5.1324 O.2       1 <0>        -0.4963
      6 C4         -2.0546   -1.3214    5.0552 C.3       1 <0>         0.1157
      7 N1         -2.4504   -0.0346    4.4774 N.am      1 <0>        -0.5425
      8 C5         -2.8833    1.0146    5.2999 C.ar      1 <0>         0.1280
      9 C6         -2.1451    1.3845    6.4146 C.ar      1 <0>        -0.1206
     10 C7         -2.5781    2.4303    7.2072 C.ar      1 <0>        -0.1046
     11 C8         -3.7420    3.1056    6.8878 C.ar      1 <0>        -0.1170
     12 C9         -4.4814    2.7339    5.7798 C.ar      1 <0>        -0.0950
     13 C10        -4.0571    1.6845    4.9880 C.ar      1 <0>        -0.0889
     14 C11        -4.8726    1.2516    3.7995 C.3       1 <0>        -0.0904
     15 C12        -4.2227    1.7413    2.5038 C.3       1 <0>        -0.0911
     16 C13        -2.7121    1.5177    2.5737 C.3       1 <0>         0.0704
     17 H1         -2.2403    2.2868    3.2029 H         1 <0>         0.0997
     18 C14        -2.4046    0.1627    3.1470 C.2       1 <0>         0.5035
     19 O3         -2.1151   -0.7551    2.4088 O.2       1 <0>        -0.5205
     20 N2         -2.1453    1.6117    1.2217 N.3       1 <0>        -0.6340
     21 C15        -0.7348    2.0192    1.2692 C.3       1 <0>         0.0887
     22 H2         -0.2899    1.5786    2.1736 H         1 <0>         0.0824
     23 C16        -0.0187    1.5258    0.0104 C.3       1 <0>        -0.1091
     24 C17         0.0021   -0.0041    0.0020 C.3       1 <0>        -0.0805
     25 C18         0.7074   -0.4901   -1.2379 C.ar      1 <0>        -0.0788
     26 C19        -0.0122   -0.7293   -2.3936 C.ar      1 <0>        -0.1151
     27 C20         0.6356   -1.1700   -3.5325 C.ar      1 <0>        -0.1178
     28 C21         2.0014   -1.3820   -3.5124 C.ar      1 <0>        -0.1244
     29 C22         2.7203   -1.1483   -2.3550 C.ar      1 <0>        -0.1183
     30 C23         2.0733   -0.7021   -1.2178 C.ar      1 <0>        -0.1168
     31 C24        -0.6482    3.5220    1.3400 C.2       1 <0>         0.4639
     32 O4         -1.6580    4.1855    1.3497 O.2       1 <0>        -0.4834
     33 O5          0.5506    4.1235    1.3921 O.3       1 <0>        -0.3596
     34 C25         0.5580    5.5740    1.4588 C.3       1 <0>         0.0613
     35 C26         2.0028    6.0747    1.5113 C.3       1 <0>        -0.1551
     36 H3          2.9958   -3.5325    7.0002 H         1 <0>         0.0830
     37 H4          1.7335   -4.4245    6.0848 H         1 <0>         0.0690
     38 H5          1.3754   -3.7962    7.7292 H         1 <0>         0.0686
     39 H6          1.6141   -1.4644    6.8903 H         1 <0>         0.0716
     40 H7          1.9722   -2.0926    5.2460 H         1 <0>         0.0718
     41 H8         -2.2648   -2.1265    4.3358 H         1 <0>         0.1380
     42 H9         -2.6231   -1.4984    5.9801 H         1 <0>         0.1292
     43 H10        -1.2360    0.8568    6.6624 H         1 <0>         0.1260
     44 H11        -2.0069    2.7209    8.0765 H         1 <0>         0.1286
     45 H12        -4.0750    3.9261    7.5062 H         1 <0>         0.1285
     46 H13        -5.3896    3.2639    5.5336 H         1 <0>         0.1324
     47 H14        -4.9346    0.1536    3.7777 H         1 <0>         0.0749
     48 H15        -5.8851    1.6746    3.8759 H         1 <0>         0.0899
     49 H16        -4.6366    1.1820    1.6518 H         1 <0>         0.0848
     50 H17        -4.4284    2.8139    2.3730 H         1 <0>         0.0916
     51 H18        -0.5508    1.8902   -0.8807 H         1 <0>         0.0843
     52 H19         1.0133    1.9066    0.0025 H         1 <0>         0.0878
     53 H20         0.5342   -0.3684    0.8931 H         1 <0>         0.0744
     54 H21        -1.0299   -0.3849    0.0099 H         1 <0>         0.0824
     55 H22        -1.0800   -0.5679   -2.4080 H         1 <0>         0.1225
     56 H23         0.0741   -1.3523   -4.4368 H         1 <0>         0.1218
     57 H24         2.5070   -1.7299   -4.4011 H         1 <0>         0.1206
     58 H25         3.7874   -1.3139   -2.3393 H         1 <0>         0.1210
     59 H26         2.6349   -0.5194   -0.3136 H         1 <0>         0.1198
     60 H27         0.0598    5.9845    0.5682 H         1 <0>         0.0715
     61 H28         0.0231    5.9023    2.3622 H         1 <0>         0.0694
     62 H29         2.0084    7.1735    1.5618 H         1 <0>         0.0815
     63 H30         2.5377    5.7464    0.6079 H         1 <0>         0.0679
     64 H31         2.5010    5.6641    2.4019 H         1 <0>         0.0669
     65 H32        -2.2127    0.6316    0.7269 H         1 <0>         0.3706
@<TRIPOS>BOND
     1    1    2 1
     2    1   36 1
     3    1   37 1
     4    1   38 1
     5    2    3 1
     6    2   39 1
     7    2   40 1
     8    3    4 1
     9    4    5 2
    10    4    6 1
    11    6    7 1
    12    6   41 1
    13    6   42 1
    14    7   18 am
    15    7    8 1
    16    8   13 ar
    17    8    9 ar
    18    9   10 ar
    19    9   43 1
    20   10   11 ar
    21   10   44 1
    22   11   12 ar
    23   11   45 1
    24   12   13 ar
    25   12   46 1
    26   13   14 1
    27   14   15 1
    28   14   47 1
    29   14   48 1
    30   15   16 1
    31   15   49 1
    32   15   50 1
    33   16   17 1
    34   16   18 1
    35   16   20 1
    36   18   19 2
    37   20   21 1
    38   20   65 1
    39   21   22 1
    40   21   23 1
    41   21   31 1
    42   23   24 1
    43   23   51 1
    44   23   52 1
    45   24   25 1
    46   24   53 1
    47   24   54 1
    48   25   30 ar
    49   25   26 ar
    50   26   27 ar
    51   26   55 1
    52   27   28 ar
    53   27   56 1
    54   28   29 ar
    55   28   57 1
    56   29   30 ar
    57   29   58 1
    58   30   59 1
    59   31   32 2
    60   31   33 1
    61   33   34 1
    62   34   35 1
    63   34   60 1
    64   34   61 1
    65   35   62 1
    66   35   63 1
    67   35   64 1
@<TRIPOS>MOLECULE
ZINC00281158
   31    31     0     0     0
SMALL
USER_CHARGES
3-acetylsulfanyl-2-methyl-N-phenyl-propanamide
@<TRIPOS>ATOM
      1 C1          6.0532   -1.5740   -1.5313 C.3       1 <0>        -0.1515
      2 C2          6.0831   -0.7006   -0.2754 C.3       1 <0>        -0.0948
      3 H1          6.2337   -1.3303    0.6015 H         1 <0>         0.1133
      4 C3          7.2290    0.3074   -0.3823 C.3       1 <0>        -0.0835
      5 S1          8.8096   -0.5745   -0.3899 S.3       1 <0>        -0.1354
      6 C4          9.8881    0.7494   -0.5136 C.2       1 <0>         0.3268
      7 O1          9.4552    1.8816   -0.5664 O.2       1 <0>        -0.4491
      8 C5         11.3751    0.5084   -0.5570 C.3       1 <0>        -0.1671
      9 C6          4.7755    0.0372   -0.1454 C.2       1 <0>         0.5223
     10 O2          4.7615    1.2500   -0.1390 O.2       1 <0>        -0.5110
     11 N1          3.6216   -0.6506   -0.0364 N.am      1 <0>        -0.6711
     12 C7          2.3993    0.0305   -0.0270 C.ar      1 <0>         0.1429
     13 C8          2.2454    1.1940   -0.7693 C.ar      1 <0>        -0.1213
     14 C9          1.0375    1.8637   -0.7583 C.ar      1 <0>        -0.1002
     15 C10        -0.0177    1.3771   -0.0087 C.ar      1 <0>        -0.1338
     16 C11         0.1324    0.2188    0.7315 C.ar      1 <0>        -0.1004
     17 C12         1.3375   -0.4559    0.7243 C.ar      1 <0>        -0.1455
     18 H2          5.2368   -2.2921   -1.4551 H         1 <0>         0.0684
     19 H3          5.9026   -0.9443   -2.4082 H         1 <0>         0.0675
     20 H4          6.9990   -2.1076   -1.6253 H         1 <0>         0.0821
     21 H5          7.1265    0.8775   -1.3057 H         1 <0>         0.1040
     22 H6          7.1961    0.9867    0.4695 H         1 <0>         0.1056
     23 H7         11.5553   -0.4738   -0.5036 H         1 <0>         0.0781
     24 H8         11.7799    0.9019   -1.4895 H         1 <0>         0.1022
     25 H9         11.8494    1.0111    0.2858 H         1 <0>         0.1022
     26 H10         3.6384   -1.6178    0.0355 H         1 <0>         0.4123
     27 H11         3.0694    1.5750   -1.3544 H         1 <0>         0.1332
     28 H12         0.9172    2.7687   -1.3354 H         1 <0>         0.1264
     29 H13        -0.9597    1.9052    0.0021 H         1 <0>         0.1244
     30 H14        -0.6936   -0.1585    1.3162 H         1 <0>         0.1272
     31 H15         1.4539   -1.3607    1.3024 H         1 <0>         0.1257
@<TRIPOS>BOND
     1    1    2 1
     2    1   18 1
     3    1   19 1
     4    1   20 1
     5    2    3 1
     6    2    4 1
     7    2    9 1
     8    4    5 1
     9    4   21 1
    10    4   22 1
    11    5    6 1
    12    6    7 2
    13    6    8 1
    14    8   23 1
    15    8   24 1
    16    8   25 1
    17    9   10 2
    18    9   11 am
    19   11   12 1
    20   11   26 1
    21   12   17 ar
    22   12   13 ar
    23   13   14 ar
    24   13   27 1
    25   14   15 ar
    26   14   28 1
    27   15   16 ar
    28   15   29 1
    29   16   17 ar
    30   16   30 1
    31   17   31 1
@<TRIPOS>MOLECULE
ZINC00281160
   31    31     0     0     0
SMALL
USER_CHARGES
3-acetylsulfanyl-2-methyl-N-phenyl-propanamide
@<TRIPOS>ATOM
      1 C1          6.2947   -1.5848    0.9546 C.3       1 <0>        -0.1525
      2 C2          6.0830   -0.7006   -0.2759 C.3       1 <0>        -0.0948
      3 H1          6.0616   -1.3224   -1.1708 H         1 <0>         0.1145
      4 C3          7.2290    0.3076   -0.3827 C.3       1 <0>        -0.0832
      5 S1          8.7808   -0.5730   -0.6870 S.3       1 <0>        -0.1360
      6 C4          9.8640    0.7506   -0.7616 C.2       1 <0>         0.3273
      7 O1          9.4503    1.8820   -0.6167 O.2       1 <0>        -0.4481
      8 C5         11.3313    0.5106   -1.0072 C.3       1 <0>        -0.1688
      9 C6          4.7755    0.0372   -0.1454 C.2       1 <0>         0.5223
     10 O2          4.7615    1.2500   -0.1386 O.2       1 <0>        -0.5109
     11 N1          3.6216   -0.6506   -0.0364 N.am      1 <0>        -0.6714
     12 C7          2.3993    0.0305   -0.0263 C.ar      1 <0>         0.1427
     13 C8          2.2452    1.1945   -0.7680 C.ar      1 <0>        -0.1215
     14 C9          1.0377    1.8647   -0.7555 C.ar      1 <0>        -0.1000
     15 C10        -0.0172    1.3779   -0.0056 C.ar      1 <0>        -0.1337
     16 C11         0.1330    0.2192    0.7340 C.ar      1 <0>        -0.1004
     17 C12         1.3380   -0.4557    0.7258 C.ar      1 <0>        -0.1453
     18 H2          7.2404   -2.1184    0.8603 H         1 <0>         0.0823
     19 H3          6.3161   -0.9629    1.8496 H         1 <0>         0.0680
     20 H4          5.4783   -2.3030    1.0307 H         1 <0>         0.0677
     21 H5          7.0333    0.9942   -1.2064 H         1 <0>         0.1054
     22 H6          7.3065    0.8694    0.5481 H         1 <0>         0.1042
     23 H7         11.5111    0.5236   -1.9908 H         1 <0>         0.0930
     24 H8         11.9139    1.2931   -0.5210 H         1 <0>         0.0973
     25 H9         11.6141   -0.4597   -0.5989 H         1 <0>         0.0927
     26 H10         3.6384   -1.6178    0.0351 H         1 <0>         0.4122
     27 H11         3.0689    1.5753   -1.3535 H         1 <0>         0.1332
     28 H12         0.9173    2.7701   -1.3318 H         1 <0>         0.1265
     29 H13        -0.9591    1.9062    0.0060 H         1 <0>         0.1245
     30 H14        -0.6928   -0.1585    1.3187 H         1 <0>         0.1273
     31 H15         1.4547   -1.3607    1.3036 H         1 <0>         0.1257
@<TRIPOS>BOND
     1    1    2 1
     2    1   18 1
     3    1   19 1
     4    1   20 1
     5    2    3 1
     6    2    4 1
     7    2    9 1
     8    4    5 1
     9    4   21 1
    10    4   22 1
    11    5    6 1
    12    6    7 2
    13    6    8 1
    14    8   23 1
    15    8   24 1
    16    8   25 1
    17    9   10 2
    18    9   11 am
    19   11   12 1
    20   11   26 1
    21   12   17 ar
    22   12   13 ar
    23   13   14 ar
    24   13   27 1
    25   14   15 ar
    26   14   28 1
    27   15   16 ar
    28   15   29 1
    29   16   17 ar
    30   16   30 1
    31   17   31 1
@<TRIPOS>MOLECULE
ZINC00235502
   31    31     0     0     0
SMALL
USER_CHARGES

@<TRIPOS>ATOM
      1 C1         -1.6004    0.7391    1.2215 C.3       1 <0>        -0.1949
      2 C2         -0.9622   -0.5607    0.7273 C.3       1 <0>         0.1397
      3 H1         -1.7423   -1.2863    0.4971 H         1 <0>         0.0671
      4 C3         -0.1342   -0.2804   -0.5307 C.3       1 <0>        -0.1261
      5 C4          0.6121   -1.5524   -0.9394 C.3       1 <0>        -0.1184
      6 C5          1.5651   -1.9696    0.1831 C.3       1 <0>        -0.1149
      7 C6          0.7564   -2.2691    1.4492 C.3       1 <0>         0.0767
      8 H2          0.1180   -3.1360    1.2785 H         1 <0>         0.0571
      9 N1         -0.0777   -1.1019    1.7682 N.am      1 <0>        -0.6008
     10 C7         -0.0296   -0.5364    2.9906 C.2       1 <0>         0.4991
     11 O1          0.9150   -0.7499    3.7208 O.2       1 <0>        -0.4629
     12 C8         -1.1495    0.3610    3.4503 C.3       1 <0>        -0.1461
     13 C9         -1.0485    0.5688    4.9628 C.3       1 <0>        -0.0531
     14 S1         -2.3966    1.6491    5.5161 S.3       1 <0>        -0.2651
     15 C10         1.6955   -2.5508    2.5937 C.2       1 <0>         0.5109
     16 O2          2.5976   -1.7712    2.8480 O.co2     1 <0>        -0.6638
     17 O3          1.5531   -3.5584    3.2652 O.co2     1 <0>        -0.7089
     18 H3         -0.8288    1.3884    1.6350 H         1 <0>         0.0754
     19 H4         -2.0910    1.2426    0.3885 H         1 <0>         0.0635
     20 H5         -2.3362    0.5121    1.9930 H         1 <0>         0.0881
     21 H6         -0.7955    0.0293   -1.3400 H         1 <0>         0.0662
     22 H7          0.5845    0.5126   -0.3240 H         1 <0>         0.0656
     23 H8         -0.1060   -2.3519   -1.1220 H         1 <0>         0.0573
     24 H9          1.1827   -1.3625   -1.8484 H         1 <0>         0.0576
     25 H10         2.1132   -2.8623   -0.1181 H         1 <0>         0.0618
     26 H11         2.2678   -1.1608    0.3831 H         1 <0>         0.0715
     27 H12        -1.0739    1.3241    2.9454 H         1 <0>         0.1234
     28 H13        -2.1072   -0.1009    3.2102 H         1 <0>         0.1031
     29 H14        -1.1241   -0.3942    5.4677 H         1 <0>         0.0869
     30 H15        -0.0909    1.0307    5.2029 H         1 <0>         0.0937
     31 H16        -2.2042    1.7561    6.8429 H         1 <0>         0.0905
@<TRIPOS>BOND
     1    1    2 1
     2    1   18 1
     3    1   19 1
     4    1   20 1
     5    2    3 1
     6    2    9 1
     7    2    4 1
     8    4    5 1
     9    4   21 1
    10    4   22 1
    11    5    6 1
    12    5   23 1
    13    5   24 1
    14    6    7 1
    15    6   25 1
    16    6   26 1
    17    7    8 1
    18    7    9 1
    19    7   15 1
    20    9   10 am
    21   10   11 2
    22   10   12 1
    23   12   13 1
    24   12   27 1
    25   12   28 1
    26   13   14 1
    27   13   29 1
    28   13   30 1
    29   14   31 1
    30   15   16 2
    31   15   17 1
@<TRIPOS>MOLECULE
ZINC00235505
   31    31     0     0     0
SMALL
USER_CHARGES

@<TRIPOS>ATOM
      1 C1          0.2035    2.4155    0.8885 C.3       1 <0>        -0.1630
      2 C2          0.5007    0.9880    0.4250 C.3       1 <0>         0.1311
      3 H1          1.2502    1.0093   -0.3661 H         1 <0>         0.0847
      4 C3         -0.7841    0.3412   -0.1021 C.3       1 <0>        -0.1259
      5 C4         -1.7834    0.1910    1.0472 C.3       1 <0>        -0.1188
      6 C5         -1.1910   -0.7200    2.1248 C.3       1 <0>        -0.1146
      7 C6          0.0892   -0.0853    2.6771 C.3       1 <0>         0.0767
      8 H2         -0.1561    0.8442    3.1910 H         1 <0>         0.0579
      9 N1          1.0018    0.1968    1.5571 N.am      1 <0>        -0.5935
     10 C7          2.2690   -0.2622    1.5666 C.2       1 <0>         0.4935
     11 O1          2.6461   -0.9830    2.4661 O.2       1 <0>        -0.4629
     12 C8          3.2173    0.1202    0.4596 C.3       1 <0>        -0.1204
     13 C9          4.6162   -0.4098    0.7805 C.3       1 <0>        -0.0436
     14 S1          5.7576    0.0506   -0.5520 S.3       1 <0>        -0.2659
     15 C10         0.7493   -1.0367    3.6415 C.2       1 <0>         0.5150
     16 O2          1.0974   -2.1428    3.2647 O.co2     1 <0>        -0.6692
     17 O3          0.9354   -0.7003    4.7985 O.co2     1 <0>        -0.7082
     18 H3          1.1177    2.8721    1.2678 H         1 <0>         0.0563
     19 H4         -0.1728    2.9993    0.0485 H         1 <0>         0.0608
     20 H5         -0.5461    2.3920    1.6795 H         1 <0>         0.0627
     21 H6         -1.2160    0.9712   -0.8797 H         1 <0>         0.0666
     22 H7         -0.5540   -0.6410   -0.5149 H         1 <0>         0.0652
     23 H8         -1.9941    1.1708    1.4757 H         1 <0>         0.0606
     24 H9         -2.7077   -0.2465    0.6698 H         1 <0>         0.0568
     25 H10        -1.9125   -0.8454    2.9321 H         1 <0>         0.0625
     26 H11        -0.9571   -1.6923    1.6910 H         1 <0>         0.0692
     27 H12         2.8719   -0.3113   -0.4799 H         1 <0>         0.0958
     28 H13         3.2519    1.2060    0.3697 H         1 <0>         0.0942
     29 H14         4.9615    0.0217    1.7200 H         1 <0>         0.0903
     30 H15         4.5816   -1.4955    0.8704 H         1 <0>         0.0947
     31 H16         6.9377   -0.4635   -0.1617 H         1 <0>         0.0913
@<TRIPOS>BOND
     1    1    2 1
     2    1   18 1
     3    1   19 1
     4    1   20 1
     5    2    3 1
     6    2    9 1
     7    2    4 1
     8    4    5 1
     9    4   21 1
    10    4   22 1
    11    5    6 1
    12    5   23 1
    13    5   24 1
    14    6    7 1
    15    6   25 1
    16    6   26 1
    17    7    8 1
    18    7    9 1
    19    7   15 1
    20    9   10 am
    21   10   11 2
    22   10   12 1
    23   12   13 1
    24   12   27 1
    25   12   28 1
    26   13   14 1
    27   13   29 1
    28   13   30 1
    29   14   31 1
    30   15   16 2
    31   15   17 1
@<TRIPOS>MOLECULE
ZINC00235508
   31    31     0     0     0
SMALL
USER_CHARGES

@<TRIPOS>ATOM
      1 C1          1.1514    2.3797    0.1274 C.3       1 <0>        -0.1626
      2 C2          0.3576    1.2924    0.8546 C.3       1 <0>         0.1304
      3 H1         -0.4496    1.7500    1.4265 H         1 <0>         0.0854
      4 C3         -0.2283    0.3137   -0.1680 C.3       1 <0>        -0.1262
      5 C4          0.9118   -0.4245   -0.8731 C.3       1 <0>        -0.1189
      6 C5          1.7168   -1.2237    0.1543 C.3       1 <0>        -0.1148
      7 C6          2.3248   -0.2624    1.1804 C.3       1 <0>         0.0770
      8 H2          3.0507    0.3854    0.6890 H         1 <0>         0.0578
      9 N1          1.2481    0.5560    1.7619 N.am      1 <0>        -0.5937
     10 C7          1.0795    0.6271    3.0972 C.2       1 <0>         0.5002
     11 O1          1.8814    0.0999    3.8387 O.2       1 <0>        -0.4705
     12 C8         -0.1056    1.3619    3.6689 C.3       1 <0>        -0.1193
     13 C9          0.0094    1.4069    5.1939 C.3       1 <0>        -0.0438
     14 S1         -1.4171    2.2913    5.8820 S.3       1 <0>        -0.2656
     15 C10         3.0066   -1.0506    2.2690 C.2       1 <0>         0.5181
     16 O2          4.1976   -0.8960    2.4789 O.co2     1 <0>        -0.7050
     17 O3          2.3671   -1.8428    2.9398 O.co2     1 <0>        -0.6790
     18 H3          1.9579    1.9201   -0.4438 H         1 <0>         0.0629
     19 H4          0.4901    2.9215   -0.5488 H         1 <0>         0.0612
     20 H5          1.5716    3.0720    0.8569 H         1 <0>         0.0561
     21 H6         -0.8673   -0.4068    0.3427 H         1 <0>         0.0655
     22 H7         -0.8152    0.8640   -0.9034 H         1 <0>         0.0667
     23 H8          0.4984   -1.1038   -1.6186 H         1 <0>         0.0570
     24 H9          1.5643    0.2984   -1.3629 H         1 <0>         0.0606
     25 H10         1.0596   -1.9297    0.6619 H         1 <0>         0.0692
     26 H11         2.5143   -1.7676   -0.3518 H         1 <0>         0.0630
     27 H12        -0.1269    2.3784    3.2760 H         1 <0>         0.0939
     28 H13        -1.0234    0.8448    3.3888 H         1 <0>         0.0977
     29 H14         0.0307    0.3903    5.5868 H         1 <0>         0.0956
     30 H15         0.9271    1.9240    5.4739 H         1 <0>         0.0898
     31 H16        -1.2061    2.2656    7.2101 H         1 <0>         0.0913
@<TRIPOS>BOND
     1    1    2 1
     2    1   18 1
     3    1   19 1
     4    1   20 1
     5    2    3 1
     6    2    9 1
     7    2    4 1
     8    4    5 1
     9    4   21 1
    10    4   22 1
    11    5    6 1
    12    5   23 1
    13    5   24 1
    14    6    7 1
    15    6   25 1
    16    6   26 1
    17    7    8 1
    18    7    9 1
    19    7   15 1
    20    9   10 am
    21   10   11 2
    22   10   12 1
    23   12   13 1
    24   12   27 1
    25   12   28 1
    26   13   14 1
    27   13   29 1
    28   13   30 1
    29   14   31 1
    30   15   16 2
    31   15   17 1
@<TRIPOS>MOLECULE
ZINC00235512
   31    31     0     0     0
SMALL
USER_CHARGES

@<TRIPOS>ATOM
      1 C1          1.8457   -0.6585   -1.9796 C.3       1 <0>        -0.1817
      2 C2          0.9110   -1.2786   -0.9391 C.3       1 <0>         0.1461
      3 H1          0.8069   -2.3464   -1.1317 H         1 <0>         0.0682
      4 C3         -0.4633   -0.6063   -1.0178 C.3       1 <0>        -0.1283
      5 C4         -1.3492   -1.1315    0.1142 C.3       1 <0>        -0.1168
      6 C5         -0.7169   -0.7817    1.4633 C.3       1 <0>        -0.1160
      7 C6          0.6545   -1.4561    1.5701 C.3       1 <0>         0.0863
      8 H2          0.5292   -2.5387    1.5846 H         1 <0>         0.0561
      9 N1          1.4652   -1.0725    0.4059 N.am      1 <0>        -0.6249
     10 C7          2.6919   -0.5384    0.5687 C.2       1 <0>         0.5475
     11 O1          3.4162   -0.9416    1.4539 O.2       1 <0>        -0.4944
     12 C8          3.1635    0.5597   -0.3493 C.3       1 <0>        -0.1691
     13 C9          4.5502    1.0326    0.0915 C.3       1 <0>        -0.0458
     14 S1          5.1179    2.3544   -1.0135 S.3       1 <0>        -0.2672
     15 C10         1.3397   -1.0098    2.8359 C.2       1 <0>         0.5086
     16 O2          1.5003   -1.7976    3.7525 O.co2     1 <0>        -0.6933
     17 O3          1.7334    0.1391    2.9435 O.co2     1 <0>        -0.6853
     18 H3          2.8656   -0.9987   -1.8005 H         1 <0>         0.0758
     19 H4          1.5312   -0.9630   -2.9779 H         1 <0>         0.0662
     20 H5          1.8061    0.4280   -1.9019 H         1 <0>         0.0802
     21 H6         -0.3466    0.4728   -0.9177 H         1 <0>         0.0672
     22 H7         -0.9259   -0.8352   -1.9778 H         1 <0>         0.0658
     23 H8         -2.3357   -0.6730    0.0458 H         1 <0>         0.0583
     24 H9         -1.4452   -2.2138    0.0279 H         1 <0>         0.0582
     25 H10        -0.5978    0.2990    1.5400 H         1 <0>         0.0676
     26 H11        -1.3600   -1.1355    2.2692 H         1 <0>         0.0650
     27 H12         3.2160    0.1821   -1.3705 H         1 <0>         0.1391
     28 H13         2.4642    1.3947   -0.3062 H         1 <0>         0.0990
     29 H14         4.4977    1.4102    1.1127 H         1 <0>         0.0924
     30 H15         5.2495    0.1976    0.0484 H         1 <0>         0.0863
     31 H16         6.3299    2.6831   -0.5318 H         1 <0>         0.0889
@<TRIPOS>BOND
     1    1    2 1
     2    1   18 1
     3    1   19 1
     4    1   20 1
     5    2    3 1
     6    2    9 1
     7    2    4 1
     8    4    5 1
     9    4   21 1
    10    4   22 1
    11    5    6 1
    12    5   23 1
    13    5   24 1
    14    6    7 1
    15    6   25 1
    16    6   26 1
    17    7    8 1
    18    7    9 1
    19    7   15 1
    20    9   10 am
    21   10   11 2
    22   10   12 1
    23   12   13 1
    24   12   27 1
    25   12   28 1
    26   13   14 1
    27   13   29 1
    28   13   30 1
    29   14   31 1
    30   15   16 2
    31   15   17 1
@<TRIPOS>MOLECULE
ZINC03798525
   55    56     0     0     0
SMALL
USER_CHARGES
3-[2-(1-carboxy-3-phenyl-propyl)aminopropanoyl]-5-tert-butyl-2H-1,3,4-thiadiazole-2-carboxylic acid
@<TRIPOS>ATOM
      1 C1          1.1157    4.4154    0.5177 C.3       1 <0>        -0.1723
      2 C2          1.4177    3.3857   -0.5729 C.3       1 <0>         0.0384
      3 H1          0.6801    3.4742   -1.3705 H         1 <0>         0.1535
      4 C3          2.7946    3.6353   -1.1321 C.2       1 <0>         0.5369
      5 O1          3.6444    2.7719   -1.0604 O.2       1 <0>        -0.4980
      6 N1          3.0825    4.8181   -1.7122 N.am      1 <0>        -0.4132
      7 C4          4.4182    5.1225   -2.2736 C.3       1 <0>         0.1175
      8 H2          4.6665    4.4492   -3.0941 H         1 <0>         0.1187
      9 S1          4.1199    6.8300   -2.8798 S.3       1 <0>        -0.1552
     10 C5          2.4141    6.9723   -2.3718 C.2       1 <0>         0.1845
     11 N2          2.1571    5.8321   -1.8199 N.2       1 <0>        -0.2943
     12 C6          1.4888    8.1490   -2.5456 C.3       1 <0>         0.0275
     13 C7          0.1188    7.8124   -1.9533 C.3       1 <0>        -0.1366
     14 C8          2.0710    9.3665   -1.8247 C.3       1 <0>        -0.1437
     15 C9          1.3371    8.4628   -4.0354 C.3       1 <0>        -0.1409
     16 C10         5.4811    5.0956   -1.2057 C.2       1 <0>         0.4680
     17 O2          6.3019    4.2091   -1.1924 O.co2     1 <0>        -0.5950
     18 C11        -0.0187    1.5258    0.0104 C.3       1 <0>        -0.0185
     19 H3         -0.5459    1.8868   -0.8726 H         1 <0>         0.1363
     20 C12         0.0021   -0.0041    0.0020 C.3       1 <0>        -0.1183
     21 C13         0.6061   -0.4987   -1.3138 C.3       1 <0>        -0.0960
     22 C14         0.6265   -2.0055   -1.3221 C.ar      1 <0>        -0.0823
     23 C15         1.7279   -2.6845   -0.8355 C.ar      1 <0>        -0.1161
     24 C16         1.7448   -4.0668   -0.8391 C.ar      1 <0>        -0.1173
     25 C17         0.6641   -4.7699   -1.3377 C.ar      1 <0>        -0.1226
     26 C18        -0.4351   -4.0909   -1.8291 C.ar      1 <0>        -0.1182
     27 C19        -0.4538   -2.7087   -1.8215 C.ar      1 <0>        -0.1122
     28 C20        -0.7240    2.0118    1.2503 C.2       1 <0>         0.4610
     29 O3         -0.1388    2.7101    2.0439 O.co2     1 <0>        -0.6018
     30 H4          1.8534    4.3268    1.3153 H         1 <0>         0.0774
     31 H5          1.1589    5.4181    0.0926 H         1 <0>         0.1027
     32 H6          0.1198    4.2348    0.9221 H         1 <0>         0.1194
     33 H7          0.2269    7.5889   -0.8920 H         1 <0>         0.0669
     34 H8         -0.5504    8.6635   -2.0791 H         1 <0>         0.0690
     35 H9         -0.2959    6.9451   -2.4669 H         1 <0>         0.0636
     36 H10         3.0469    9.6063   -2.2467 H         1 <0>         0.0671
     37 H11         1.4017   10.2176   -1.9505 H         1 <0>         0.0733
     38 H12         2.1790    9.1429   -0.7634 H         1 <0>         0.0673
     39 H13         0.9224    7.5955   -4.5490 H         1 <0>         0.0621
     40 H14         0.6679    9.3139   -4.1612 H         1 <0>         0.0742
     41 H15         2.3131    8.7026   -4.4574 H         1 <0>         0.0653
     42 H16         0.6044   -0.3639    0.8362 H         1 <0>         0.0831
     43 H17        -1.0158   -0.3818    0.0993 H         1 <0>         0.1184
     44 H18         0.0037   -0.1389   -2.1480 H         1 <0>         0.0855
     45 H19         1.6239   -0.1210   -1.4111 H         1 <0>         0.0673
     46 H20         2.5737   -2.1351   -0.4494 H         1 <0>         0.1227
     47 H21         2.6035   -4.5973   -0.4548 H         1 <0>         0.1226
     48 H22         0.6785   -5.8498   -1.3429 H         1 <0>         0.1208
     49 H23        -1.2794   -4.6402   -2.2186 H         1 <0>         0.1223
     50 H24        -1.3126   -2.1782   -2.2055 H         1 <0>         0.1240
     51 O4          5.5160    6.0566   -0.2691 O.co2     1 <0>        -0.7190
     52 N3          1.3680    2.0288    0.0036 N.4       1 <0>        -0.4931
     53 H25         1.7228    2.0568    0.9667 H         1 <0>         0.4368
     54 H26         1.9535    1.4002   -0.5587 H         1 <0>         0.4176
     55 O5         -2.0025    1.6689    1.4731 O.co2     1 <0>        -0.7068
@<TRIPOS>BOND
     1    1    2 1
     2    1   30 1
     3    1   31 1
     4    1   32 1
     5    2    3 1
     6    2    4 1
     7    2   52 1
     8    4    5 2
     9    4    6 am
    10    6   11 1
    11    6    7 1
    12    7    8 1
    13    7    9 1
    14    7   16 1
    15    9   10 1
    16   10   11 2
    17   10   12 1
    18   12   13 1
    19   12   14 1
    20   12   15 1
    21   13   33 1
    22   13   34 1
    23   13   35 1
    24   14   36 1
    25   14   37 1
    26   14   38 1
    27   15   39 1
    28   15   40 1
    29   15   41 1
    30   16   17 2
    31   16   51 1
    32   18   19 1
    33   18   20 1
    34   18   28 1
    35   18   52 1
    36   20   21 1
    37   20   42 1
    38   20   43 1
    39   21   22 1
    40   21   44 1
    41   21   45 1
    42   22   27 ar
    43   22   23 ar
    44   23   24 ar
    45   23   46 1
    46   24   25 ar
    47   24   47 1
    48   25   26 ar
    49   25   48 1
    50   26   27 ar
    51   26   49 1
    52   27   50 1
    53   28   29 2
    54   28   55 1
    55   52   53 1
    56   52   54 1
@<TRIPOS>MOLECULE
ZINC00004294
   35    35     0     0     0
SMALL
USER_CHARGES
2-(hydroxycarbamoylmethyl-methyl-carbamoyl)cyclohexane-1-carboxylic acid
@<TRIPOS>ATOM
      1 C1         -0.0178    1.4608    0.0101 C.3       1 <0>         0.0825
      2 N1          0.0021   -0.0041    0.0020 N.am      1 <0>        -0.6111
      3 C2         -0.0001   -0.7297   -1.2707 C.3       1 <0>         0.1150
      4 C3          1.4198   -0.9591   -1.7205 C.2       1 <0>         0.5057
      5 O1          2.3426   -0.5562   -1.0446 O.2       1 <0>        -0.5052
      6 N2          1.6640   -1.6121   -2.8740 N.am      1 <0>        -0.6002
      7 O2          2.9982   -1.8277   -3.2966 O.3       1 <0>        -0.3233
      8 C4          0.0224   -0.6841    1.1654 C.2       1 <0>         0.5479
      9 O3          0.0388   -1.8968    1.1588 O.2       1 <0>        -0.5005
     10 C5          0.0246    0.0623    2.4746 C.3       1 <0>        -0.0799
     11 H1         -0.8732    0.6764    2.5442 H         1 <0>         0.0909
     12 C6          1.2625    0.9584    2.5487 C.3       1 <0>        -0.1207
     13 C7          2.5227    0.0963    2.4509 C.3       1 <0>        -0.1205
     14 C8          2.5473   -0.9041    3.6083 C.3       1 <0>        -0.1172
     15 C9          1.3094   -1.8002    3.5343 C.3       1 <0>        -0.1085
     16 C10         0.0492   -0.9381    3.6320 C.3       1 <0>        -0.1096
     17 H2          0.0508   -0.3982    4.5789 H         1 <0>         0.0699
     18 C11        -1.1701   -1.8207    3.5591 C.2       1 <0>         0.4781
     19 O4         -1.9761   -1.6656    2.6724 O.co2     1 <0>        -0.6375
     20 H3          1.0048    1.8381    0.0023 H         1 <0>         0.0583
     21 H4         -0.5450    1.8219   -0.8730 H         1 <0>         0.0634
     22 H5         -0.5280    1.8123    0.9069 H         1 <0>         0.0781
     23 H6         -0.4997   -1.6897   -1.1407 H         1 <0>         0.1189
     24 H7         -0.5291   -0.1436   -2.0222 H         1 <0>         0.1071
     25 H8          0.9259   -1.9343   -3.4146 H         1 <0>         0.4061
     26 H9          3.0731   -2.3041   -4.1348 H         1 <0>         0.3822
     27 H10         1.2450    1.6710    1.7241 H         1 <0>         0.0700
     28 H11         1.2641    1.4982    3.4956 H         1 <0>         0.0663
     29 H12         2.5211   -0.4436    1.5040 H         1 <0>         0.0702
     30 H13         3.4046    0.7347    2.5037 H         1 <0>         0.0532
     31 H14         3.4451   -1.5183    3.5387 H         1 <0>         0.0521
     32 H15         2.5489   -0.3642    4.5552 H         1 <0>         0.0535
     33 H16         1.3078   -2.3401    2.5874 H         1 <0>         0.0807
     34 H17         1.3269   -2.5129    4.3588 H         1 <0>         0.0623
     35 O5         -1.3608   -2.7793    4.4792 O.co2     1 <0>        -0.7779
@<TRIPOS>BOND
     1    1    2 1
     2    1   20 1
     3    1   21 1
     4    1   22 1
     5    2    3 1
     6    2    8 am
     7    3    4 1
     8    3   23 1
     9    3   24 1
    10    4    5 2
    11    4    6 am
    12    6    7 1
    13    6   25 1
    14    7   26 1
    15    8    9 2
    16    8   10 1
    17   10   11 1
    18   10   16 1
    19   10   12 1
    20   12   13 1
    21   12   27 1
    22   12   28 1
    23   13   14 1
    24   13   29 1
    25   13   30 1
    26   14   15 1
    27   14   31 1
    28   14   32 1
    29   15   16 1
    30   15   33 1
    31   15   34 1
    32   16   17 1
    33   16   18 1
    34   18   19 2
    35   18   35 1
@<TRIPOS>MOLECULE
ZINC03814184
   52    54     0     0     0
SMALL
USER_CHARGES
2-[[6-(carboxymethyl)-5-oxo-6-azabicyclo[5.4.0]undeca-8,10,12-trien-4-yl]amino]-4-phenyl-butanoic acid
@<TRIPOS>ATOM
      1 C1          4.2041    0.8175   -8.7002 C.ar      1 <0>        -0.1259
      2 C2          4.0333   -0.1263   -7.7047 C.ar      1 <0>        -0.1162
      3 C3          4.0478    0.2590   -6.3772 C.ar      1 <0>        -0.1100
      4 C4          4.2327    1.5881   -6.0452 C.ar      1 <0>        -0.0752
      5 C5          4.3979    2.5327   -7.0409 C.ar      1 <0>        -0.1193
      6 C6          4.3890    2.1466   -8.3682 C.ar      1 <0>        -0.1206
      7 C7          4.2482    2.0081   -4.5981 C.3       1 <0>        -0.0942
      8 C8          5.6798    1.9404   -4.0626 C.3       1 <0>        -0.1127
      9 C9          5.6955    2.3669   -2.5933 C.3       1 <0>        -0.0220
     10 H1          4.9913    1.7548   -2.0298 H         1 <0>         0.1403
     11 C10         7.0818    2.1834   -2.0317 C.2       1 <0>         0.4662
     12 O1          7.6853    3.1325   -1.5903 O.co2     1 <0>        -0.6222
     13 C11         4.7429    4.0752   -1.1661 C.3       1 <0>         0.0185
     14 H2          5.2508    3.4699   -0.4152 H         1 <0>         0.1573
     15 C12         4.9535    5.5547   -0.8465 C.3       1 <0>        -0.1244
     16 C13         4.0339    5.9650    0.3069 C.3       1 <0>        -0.0760
     17 C14         4.0396    4.9109    1.3816 C.ar      1 <0>        -0.1155
     18 C15         4.7455    5.1113    2.5516 C.ar      1 <0>        -0.0983
     19 C16         4.7320    4.1446    3.5405 C.ar      1 <0>        -0.1219
     20 C17         4.0119    2.9772    3.3630 C.ar      1 <0>        -0.1022
     21 C18         3.3086    2.7689    2.1921 C.ar      1 <0>        -0.1020
     22 C19         3.3261    3.7397    1.1959 C.ar      1 <0>         0.1293
     23 N1          2.6340    3.5287   -0.0041 N.am      1 <0>        -0.5081
     24 C20         3.2779    3.7383   -1.1664 C.2       1 <0>         0.5172
     25 O2          2.6758    3.6551   -2.2160 O.2       1 <0>        -0.5263
     26 C21         1.2350    3.0943    0.0069 C.3       1 <0>         0.0651
     27 C22         1.1765    1.5884   -0.0006 C.2       1 <0>         0.4522
     28 O3          2.1986    0.9442   -0.0139 O.co2     1 <0>        -0.6206
     29 H3          4.1934    0.5164   -9.7374 H         1 <0>         0.1194
     30 H4          3.8888   -1.1647   -7.9641 H         1 <0>         0.1223
     31 H5          3.9144   -0.4784   -5.5995 H         1 <0>         0.1264
     32 H6          4.5379    3.5717   -6.7817 H         1 <0>         0.1184
     33 H7          4.5228    2.8839   -9.1460 H         1 <0>         0.1198
     34 H8          3.6116    1.3393   -4.0188 H         1 <0>         0.0914
     35 H9          3.8760    3.0290   -4.5121 H         1 <0>         0.0691
     36 H10         6.3164    2.6092   -4.6418 H         1 <0>         0.0781
     37 H11         6.0520    0.9195   -4.1486 H         1 <0>         0.1164
     38 H12         5.9920    5.7200   -0.5594 H         1 <0>         0.1095
     39 H13         4.7207    6.1532   -1.7272 H         1 <0>         0.0908
     40 H14         4.3807    6.9094    0.7262 H         1 <0>         0.0958
     41 H15         3.0186    6.0915   -0.0688 H         1 <0>         0.0802
     42 H16         5.3080    6.0221    2.6941 H         1 <0>         0.1285
     43 H17         5.2852    4.3019    4.4546 H         1 <0>         0.1257
     44 H18         3.9991    2.2277    4.1405 H         1 <0>         0.1292
     45 H19         2.7464    1.8574    2.0525 H         1 <0>         0.1467
     46 H20         0.7272    3.4820   -0.8762 H         1 <0>         0.1001
     47 H21         0.7441    3.4725    0.9036 H         1 <0>         0.0911
     48 O4          7.6463    0.9656   -2.0219 O.co2     1 <0>        -0.7010
     49 N2          5.3093    3.7873   -2.4974 N.4       1 <0>        -0.4854
     50 H22         4.6072    3.9967   -3.2167 H         1 <0>         0.4187
     51 H23         6.1383    4.3745   -2.6469 H         1 <0>         0.4314
     52 O5         -0.0110    0.9628    0.0073 O.co2     1 <0>        -0.7551
@<TRIPOS>BOND
     1    1    6 ar
     2    1    2 ar
     3    1   29 1
     4    2    3 ar
     5    2   30 1
     6    3    4 ar
     7    3   31 1
     8    4    5 ar
     9    4    7 1
    10    5    6 ar
    11    5   32 1
    12    6   33 1
    13    7    8 1
    14    7   34 1
    15    7   35 1
    16    8    9 1
    17    8   36 1
    18    8   37 1
    19    9   10 1
    20    9   11 1
    21    9   49 1
    22   11   12 2
    23   11   48 1
    24   13   14 1
    25   13   24 1
    26   13   15 1
    27   13   49 1
    28   15   16 1
    29   15   38 1
    30   15   39 1
    31   16   17 1
    32   16   40 1
    33   16   41 1
    34   17   22 ar
    35   17   18 ar
    36   18   19 ar
    37   18   42 1
    38   19   20 ar
    39   19   43 1
    40   20   21 ar
    41   20   44 1
    42   21   22 ar
    43   21   45 1
    44   22   23 1
    45   23   24 am
    46   23   26 1
    47   24   25 2
    48   26   27 1
    49   26   46 1
    50   26   47 1
    51   27   28 2
    52   27   52 1
    53   49   50 1
    54   49   51 1
@<TRIPOS>MOLECULE
ZINC05851742
   52    54     0     0     0
SMALL
USER_CHARGES
2-[[6-(carboxymethyl)-5-oxo-6-azabicyclo[5.4.0]undeca-8,10,12-trien-4-yl]amino]-4-phenyl-butanoic acid
@<TRIPOS>ATOM
      1 C1          9.4284   -3.2576   -0.8554 C.ar      1 <0>        -0.1225
      2 C2          8.2462   -3.6832   -0.2790 C.ar      1 <0>        -0.1180
      3 C3          7.3188   -2.7570    0.1603 C.ar      1 <0>        -0.1169
      4 C4          7.5734   -1.4053    0.0228 C.ar      1 <0>        -0.0812
      5 C5          8.7531   -0.9798   -0.5588 C.ar      1 <0>        -0.1119
      6 C6          9.6830   -1.9059   -0.9929 C.ar      1 <0>        -0.1162
      7 C7          6.5621   -0.3956    0.5013 C.3       1 <0>        -0.0964
      8 C8          6.8481   -0.0401    1.9617 C.3       1 <0>        -0.1184
      9 C9          5.8401    1.0075    2.4384 C.3       1 <0>        -0.0180
     10 H1          5.8677    1.8685    1.7705 H         1 <0>         0.1315
     11 C10         6.1933    1.4448    3.8366 C.2       1 <0>         0.4653
     12 O1          5.6901    0.8940    4.7871 O.co2     1 <0>        -0.6116
     13 C11         3.7382    0.8546    1.2462 C.3       1 <0>         0.0063
     14 H2          4.4145    0.9126    0.3934 H         1 <0>         0.1511
     15 C12         2.6401   -0.1670    0.9503 C.3       1 <0>        -0.1242
     16 C13         1.6109    0.4495   -0.0005 C.3       1 <0>        -0.0955
     17 C14         2.3051    1.2133   -1.0958 C.ar      1 <0>        -0.0966
     18 C15         2.3956    0.6814   -2.3674 C.ar      1 <0>        -0.0962
     19 C16         3.0083    1.4029   -3.3756 C.ar      1 <0>        -0.1278
     20 C17         3.5322    2.6563   -3.1158 C.ar      1 <0>        -0.1008
     21 C18         3.4501    3.1906   -1.8442 C.ar      1 <0>        -0.1264
     22 C19         2.8405    2.4651   -0.8310 C.ar      1 <0>         0.1431
     23 N1          2.7626    2.9864    0.4678 N.am      1 <0>        -0.5145
     24 C20         3.1478    2.2130    1.4996 C.2       1 <0>         0.5089
     25 O2          3.0145    2.6117    2.6373 O.2       1 <0>        -0.4982
     26 C21         2.2767    4.3493    0.6972 C.3       1 <0>         0.0656
     27 C22         0.7828    4.3236    0.8941 C.2       1 <0>         0.4578
     28 O3          0.1853    3.2744    0.8476 O.co2     1 <0>        -0.6256
     29 H3         10.1533   -3.9812   -1.1980 H         1 <0>         0.1208
     30 H4          8.0473   -4.7393   -0.1716 H         1 <0>         0.1218
     31 H5          6.3952   -3.0895    0.6106 H         1 <0>         0.1206
     32 H6          8.9500    0.0762   -0.6702 H         1 <0>         0.1243
     33 H7         10.6067   -1.5734   -1.4429 H         1 <0>         0.1226
     34 H8          5.5605   -0.8177    0.4195 H         1 <0>         0.0681
     35 H9          6.6286    0.5036   -0.1113 H         1 <0>         0.0847
     36 H10         7.8577    0.3619    2.0468 H         1 <0>         0.1122
     37 H11         6.7604   -0.9353    2.5774 H         1 <0>         0.0872
     38 H12         2.1496   -0.4528    1.8807 H         1 <0>         0.0970
     39 H13         3.0806   -1.0493    0.4860 H         1 <0>         0.0984
     40 H14         0.9641    1.1265    0.5576 H         1 <0>         0.1186
     41 H15         1.0059   -0.3431   -0.4407 H         1 <0>         0.0922
     42 H16         1.9885   -0.2974   -2.5740 H         1 <0>         0.1279
     43 H17         3.0782    0.9861   -4.3695 H         1 <0>         0.1245
     44 H18         4.0053    3.2180   -3.9076 H         1 <0>         0.1279
     45 H19         3.8588    4.1692   -1.6399 H         1 <0>         0.1307
     46 H20         2.5189    4.9712   -0.1646 H         1 <0>         0.0921
     47 H21         2.7535    4.7600    1.5872 H         1 <0>         0.0996
     48 O4          7.0668    2.4461    4.0262 O.co2     1 <0>        -0.7061
     49 N2          4.4869    0.4203    2.4406 N.4       1 <0>        -0.4878
     50 H22         3.9866    0.7257    3.2836 H         1 <0>         0.4429
     51 H23         4.5621   -0.6037    2.4394 H         1 <0>         0.4228
     52 O5          0.1153    5.4668    1.1156 O.co2     1 <0>        -0.7556
@<TRIPOS>BOND
     1    1    6 ar
     2    1    2 ar
     3    1   29 1
     4    2    3 ar
     5    2   30 1
     6    3    4 ar
     7    3   31 1
     8    4    5 ar
     9    4    7 1
    10    5    6 ar
    11    5   32 1
    12    6   33 1
    13    7    8 1
    14    7   34 1
    15    7   35 1
    16    8    9 1
    17    8   36 1
    18    8   37 1
    19    9   10 1
    20    9   11 1
    21    9   49 1
    22   11   12 2
    23   11   48 1
    24   13   14 1
    25   13   24 1
    26   13   15 1
    27   13   49 1
    28   15   16 1
    29   15   38 1
    30   15   39 1
    31   16   17 1
    32   16   40 1
    33   16   41 1
    34   17   22 ar
    35   17   18 ar
    36   18   19 ar
    37   18   42 1
    38   19   20 ar
    39   19   43 1
    40   20   21 ar
    41   20   44 1
    42   21   22 ar
    43   21   45 1
    44   22   23 1
    45   23   24 am
    46   23   26 1
    47   24   25 2
    48   26   27 1
    49   26   46 1
    50   26   47 1
    51   27   28 2
    52   27   52 1
    53   49   50 1
    54   49   51 1
@<TRIPOS>MOLECULE
ZINC13298454
   65    67     0     0     0
SMALL
USER_CHARGES

@<TRIPOS>ATOM
      1 C1         -0.3406    1.9818    0.1518 C.3       1 <0>        -0.1551
      2 C2         -0.3116    0.4529    0.2042 C.3       1 <0>         0.0581
      3 O1          0.5258   -0.0437   -0.8419 O.3       1 <0>        -0.3285
      4 C3          0.6591   -1.3761   -0.9351 C.2       1 <0>         0.4541
      5 O2          0.0840   -2.0969   -0.1543 O.2       1 <0>        -0.4721
      6 C4          1.5262   -1.9730   -2.0135 C.3       1 <0>         0.0333
      7 H1          2.5487   -1.6135   -1.8981 H         1 <0>         0.1794
      8 C5          0.9915   -1.5582   -3.3857 C.3       1 <0>        -0.1360
      9 C6          1.9410   -2.0593   -4.4758 C.3       1 <0>        -0.0904
     10 C7          1.4143   -1.6507   -5.8273 C.ar      1 <0>        -0.0983
     11 C8          0.5501   -2.4837   -6.5130 C.ar      1 <0>        -0.1140
     12 C9          0.0670   -2.1090   -7.7528 C.ar      1 <0>        -0.1148
     13 C10         0.4477   -0.9010   -8.3067 C.ar      1 <0>        -0.1126
     14 C11         1.3112   -0.0676   -7.6206 C.ar      1 <0>        -0.1164
     15 C12         1.7909   -0.4405   -6.3789 C.ar      1 <0>        -0.1111
     16 N1          1.5067   -3.4377   -1.9027 N.4       1 <0>        -0.4818
     17 C13         2.1300   -3.8412   -0.6351 C.3       1 <0>        -0.0280
     18 H2          1.6312   -3.3361    0.1920 H         1 <0>         0.1885
     19 C14         3.6106   -3.4560   -0.6495 C.3       1 <0>        -0.1931
     20 C15         2.0006   -5.3329   -0.4642 C.2       1 <0>         0.5262
     21 O3          1.3707   -5.9834   -1.2710 O.2       1 <0>        -0.5095
     22 N2          2.5849   -5.9441    0.5853 N.am      1 <0>        -0.5541
     23 C16         3.2554   -5.2793    1.7058 C.3       1 <0>         0.1258
     24 H3          4.3073   -5.1493    1.4511 H         1 <0>         0.0731
     25 C17         2.6665   -3.9244    2.0270 C.3       1 <0>        -0.1553
     26 C18         1.2375   -4.0525    2.5545 C.3       1 <0>        -0.1228
     27 C19         1.2637   -4.9189    3.8182 C.3       1 <0>        -0.1097
     28 C20         1.7471   -6.3175    3.4422 C.3       1 <0>        -0.1448
     29 C21         3.1572   -6.2592    2.8894 C.3       1 <0>        -0.0886
     30 H4          3.8964   -6.0558    3.6642 H         1 <0>         0.0961
     31 C22         3.3865   -7.6160    2.1554 C.3       1 <0>        -0.1139
     32 C23         2.6565   -7.3989    0.8115 C.3       1 <0>         0.0621
     33 H5          3.2176   -7.8724    0.0059 H         1 <0>         0.0764
     34 C24         1.2662   -7.9762    0.8810 C.2       1 <0>         0.4989
     35 O4          1.1112   -9.1784    1.0118 O.co2     1 <0>        -0.6866
     36 O5          0.2964   -7.2410    0.8063 O.co2     1 <0>        -0.6683
     37 H6          0.6702    2.3690    0.2807 H         1 <0>         0.0709
     38 H7         -0.7333    2.3049   -0.8123 H         1 <0>         0.0709
     39 H8         -0.9792    2.3606    0.9497 H         1 <0>         0.0894
     40 H9          0.0811    0.1298    1.1682 H         1 <0>         0.0797
     41 H10        -1.3223    0.0657    0.0753 H         1 <0>         0.0800
     42 H11         0.0032   -1.9925   -3.5370 H         1 <0>         0.1010
     43 H12         0.9223   -0.4716   -3.4354 H         1 <0>         0.1297
     44 H13         2.9292   -1.6251   -4.3245 H         1 <0>         0.0940
     45 H14         2.0101   -3.1460   -4.4261 H         1 <0>         0.0739
     46 H15         0.2526   -3.4275   -6.0803 H         1 <0>         0.1234
     47 H16        -0.6076   -2.7601   -8.2888 H         1 <0>         0.1263
     48 H17         0.0708   -0.6086   -9.2756 H         1 <0>         0.1254
     49 H18         1.6089    0.8760   -8.0535 H         1 <0>         0.1257
     50 H19         2.4626    0.2123   -5.8413 H         1 <0>         0.1243
     51 H20         0.5523   -3.7642   -1.9271 H         1 <0>         0.4426
     52 H21         3.7037   -2.3701   -0.6333 H         1 <0>         0.0881
     53 H22         4.1039   -3.8761    0.2270 H         1 <0>         0.1226
     54 H23         4.0791   -3.8474   -1.5525 H         1 <0>         0.0911
     55 H24         3.2834   -3.4367    2.7817 H         1 <0>         0.0857
     56 H25         2.6604   -3.3145    1.1236 H         1 <0>         0.0671
     57 H26         0.8451   -3.0644    2.7950 H         1 <0>         0.0599
     58 H27         0.6084   -4.5239    1.7994 H         1 <0>         0.0762
     59 H28         1.9445   -4.4806    4.5480 H         1 <0>         0.0559
     60 H29         0.2608   -4.9799    4.2407 H         1 <0>         0.0625
     61 H30         1.7307   -6.9531    4.3275 H         1 <0>         0.0609
     62 H31         1.0813   -6.7367    2.6877 H         1 <0>         0.1103
     63 H32         4.4500   -7.7950    1.9973 H         1 <0>         0.0681
     64 H33         2.9335   -8.4373    2.7106 H         1 <0>         0.0931
     65 H34         2.0196   -3.8401   -2.6728 H         1 <0>         0.4353
@<TRIPOS>BOND
     1    1    2 1
     2    1   37 1
     3    1   38 1
     4    1   39 1
     5    2    3 1
     6    2   40 1
     7    2   41 1
     8    3    4 1
     9    4    5 2
    10    4    6 1
    11    6    7 1
    12    6    8 1
    13    6   16 1
    14    8    9 1
    15    8   42 1
    16    8   43 1
    17    9   10 1
    18    9   44 1
    19    9   45 1
    20   10   15 ar
    21   10   11 ar
    22   11   12 ar
    23   11   46 1
    24   12   13 ar
    25   12   47 1
    26   13   14 ar
    27   13   48 1
    28   14   15 ar
    29   14   49 1
    30   15   50 1
    31   16   17 1
    32   16   51 1
    33   16   65 1
    34   17   18 1
    35   17   19 1
    36   17   20 1
    37   19   52 1
    38   19   53 1
    39   19   54 1
    40   20   21 2
    41   20   22 am
    42   22   32 1
    43   22   23 1
    44   23   24 1
    45   23   29 1
    46   23   25 1
    47   25   26 1
    48   25   55 1
    49   25   56 1
    50   26   27 1
    51   26   57 1
    52   26   58 1
    53   27   28 1
    54   27   59 1
    55   27   60 1
    56   28   29 1
    57   28   61 1
    58   28   62 1
    59   29   30 1
    60   29   31 1
    61   31   32 1
    62   31   63 1
    63   31   64 1
    64   32   33 1
    65   32   34 1
    66   34   35 2
    67   34   36 1
@<TRIPOS>MOLECULE
ZINC13298454
   64    66     0     0     0
SMALL
USER_CHARGES

@<TRIPOS>ATOM
      1 C1          0.0472    1.8868    0.1416 C.3       1 <0>        -0.1491
      2 C2          0.0924    0.3615    0.0304 C.3       1 <0>         0.0562
      3 O1         -1.2342   -0.1436   -0.1346 O.3       1 <0>        -0.3547
      4 C3         -1.3699   -1.4741   -0.2484 C.2       1 <0>         0.4203
      5 O2         -0.3947   -2.1864   -0.2093 O.2       1 <0>        -0.4841
      6 C4         -2.7386   -2.0795   -0.4251 C.3       1 <0>         0.0988
      7 H1         -3.1936   -1.6896   -1.3356 H         1 <0>         0.1150
      8 C5         -3.6142   -1.7201    0.7770 C.3       1 <0>        -0.0928
      9 C6         -5.0381   -2.2279    0.5408 C.3       1 <0>        -0.0739
     10 C7         -5.9005   -1.8739    1.7248 C.ar      1 <0>        -0.0763
     11 C8         -6.0066   -2.7497    2.7891 C.ar      1 <0>        -0.1142
     12 C9         -6.7977   -2.4250    3.8752 C.ar      1 <0>        -0.1195
     13 C10        -7.4824   -1.2243    3.8971 C.ar      1 <0>        -0.1295
     14 C11        -7.3757   -0.3482    2.8333 C.ar      1 <0>        -0.1219
     15 C12        -6.5811   -0.6710    1.7491 C.ar      1 <0>        -0.1192
     16 N1         -2.6188   -3.5403   -0.5243 N.3       1 <0>        -0.6412
     17 C13        -2.3277   -3.9521   -1.9040 C.3       1 <0>         0.0536
     18 H2         -1.6875   -3.2080   -2.3779 H         1 <0>         0.0869
     19 C14        -3.6365   -4.0720   -2.6874 C.3       1 <0>        -0.1498
     20 C15        -1.6251   -5.2852   -1.8927 C.2       1 <0>         0.5379
     21 O3         -1.3384   -5.8107   -0.8379 O.2       1 <0>        -0.5107
     22 N2         -1.3154   -5.8936   -3.0548 N.am      1 <0>        -0.5801
     23 C16        -1.4855   -5.3279   -4.3957 C.3       1 <0>         0.1416
     24 H3         -2.4811   -5.5866   -4.7562 H         1 <0>         0.0598
     25 C17        -1.3382   -3.8236   -4.4254 C.3       1 <0>        -0.1590
     26 C18         0.0921   -3.4003   -4.0909 C.3       1 <0>        -0.1210
     27 C19         1.0371   -4.0338   -5.1177 C.3       1 <0>        -0.1059
     28 C20         0.9586   -5.5526   -4.9825 C.3       1 <0>        -0.1412
     29 C21        -0.4457   -6.0385   -5.2815 C.3       1 <0>        -0.0914
     30 H4         -0.6869   -5.9766   -6.3427 H         1 <0>         0.0860
     31 C22        -0.5286   -7.4876   -4.7109 C.3       1 <0>        -0.1112
     32 C23        -0.7399   -7.2428   -3.2005 C.3       1 <0>         0.0653
     33 H5         -1.4293   -7.9855   -2.7991 H         1 <0>         0.0641
     34 C24         0.5796   -7.3186   -2.4765 C.2       1 <0>         0.4990
     35 O4          1.1851   -8.3754   -2.4217 O.co2     1 <0>        -0.7058
     36 O5          1.0416   -6.3230   -1.9455 O.co2     1 <0>        -0.6628
     37 H6          1.0591    2.2720    0.2675 H         1 <0>         0.0769
     38 H7         -0.3904    2.3044   -0.7651 H         1 <0>         0.0650
     39 H8         -0.5592    2.1705    1.0018 H         1 <0>         0.0651
     40 H9          0.6988    0.0777   -0.8298 H         1 <0>         0.0664
     41 H10         0.5300   -0.0562    0.9371 H         1 <0>         0.0663
     42 H11        -3.2071   -2.1848    1.6750 H         1 <0>         0.0719
     43 H12        -3.6309   -0.6377    0.9037 H         1 <0>         0.0783
     44 H13        -5.4452   -1.7632   -0.3572 H         1 <0>         0.0709
     45 H14        -5.0214   -3.3104    0.4141 H         1 <0>         0.0923
     46 H15        -5.4716   -3.6877    2.7719 H         1 <0>         0.1247
     47 H16        -6.8811   -3.1095    4.7064 H         1 <0>         0.1194
     48 H17        -8.1011   -0.9709    4.7454 H         1 <0>         0.1172
     49 H18        -7.9109    0.5897    2.8503 H         1 <0>         0.1181
     50 H19        -6.4948    0.0152    0.9195 H         1 <0>         0.1205
     51 H20        -4.3233   -4.7256   -2.1495 H         1 <0>         0.0702
     52 H21        -4.0856   -3.0849   -2.7977 H         1 <0>         0.0601
     53 H22        -3.4330   -4.4908   -3.6729 H         1 <0>         0.0740
     54 H23        -1.5952   -3.4591   -5.4200 H         1 <0>         0.0694
     55 H24        -2.0202   -3.3836   -3.6977 H         1 <0>         0.0903
     56 H25         0.1740   -2.3144   -4.1379 H         1 <0>         0.0503
     57 H26         0.3526   -3.7456   -3.0904 H         1 <0>         0.0781
     58 H27         0.7349   -3.7400   -6.1229 H         1 <0>         0.0504
     59 H28         2.0580   -3.7022   -4.9285 H         1 <0>         0.0550
     60 H29         1.6576   -6.0119   -5.6814 H         1 <0>         0.0517
     61 H30         1.2294   -5.8370   -3.9657 H         1 <0>         0.1116
     62 H31        -1.3739   -8.0247   -5.1412 H         1 <0>         0.0607
     63 H32         0.4027   -8.0261   -4.8864 H         1 <0>         0.0837
     64 H33        -1.9187   -3.8898    0.1127 H         1 <0>         0.3725
@<TRIPOS>BOND
     1    1    2 1
     2    1   37 1
     3    1   38 1
     4    1   39 1
     5    2    3 1
     6    2   40 1
     7    2   41 1
     8    3    4 1
     9    4    5 2
    10    4    6 1
    11    6    7 1
    12    6    8 1
    13    6   16 1
    14    8    9 1
    15    8   42 1
    16    8   43 1
    17    9   10 1
    18    9   44 1
    19    9   45 1
    20   10   15 ar
    21   10   11 ar
    22   11   12 ar
    23   11   46 1
    24   12   13 ar
    25   12   47 1
    26   13   14 ar
    27   13   48 1
    28   14   15 ar
    29   14   49 1
    30   15   50 1
    31   16   17 1
    32   16   64 1
    33   17   18 1
    34   17   19 1
    35   17   20 1
    36   19   51 1
    37   19   52 1
    38   19   53 1
    39   20   21 2
    40   20   22 am
    41   22   32 1
    42   22   23 1
    43   23   24 1
    44   23   29 1
    45   23   25 1
    46   25   26 1
    47   25   54 1
    48   25   55 1
    49   26   27 1
    50   26   56 1
    51   26   57 1
    52   27   28 1
    53   27   58 1
    54   27   59 1
    55   28   29 1
    56   28   60 1
    57   28   61 1
    58   29   30 1
    59   29   31 1
    60   31   32 1
    61   31   62 1
    62   31   63 1
    63   32   33 1
    64   32   34 1
    65   34   35 2
    66   34   36 1
@<TRIPOS>MOLECULE
ZINC53099188
   64    66     0     0     0
SMALL
USER_CHARGES

@<TRIPOS>ATOM
      1 C1         -0.4737    1.5589    0.5466 C.3       1 <0>        -0.1510
      2 C2         -0.5909    0.0408    0.6970 C.3       1 <0>         0.0576
      3 O1         -1.8072   -0.4051    0.0938 O.3       1 <0>        -0.3503
      4 C3         -2.0632   -1.7220    0.1397 C.2       1 <0>         0.4331
      5 O2         -1.2804   -2.4712    0.6743 O.2       1 <0>        -0.5047
      6 C4         -3.3268   -2.2659   -0.4755 C.3       1 <0>         0.0994
      7 H1         -3.3428   -2.0314   -1.5398 H         1 <0>         0.1260
      8 C5         -4.5403   -1.6295    0.2052 C.3       1 <0>        -0.0868
      9 C6         -5.8187   -2.0859   -0.5008 C.3       1 <0>        -0.0765
     10 C7         -7.0140   -1.4591    0.1697 C.ar      1 <0>        -0.0688
     11 C8         -7.6339   -2.1057    1.2225 C.ar      1 <0>        -0.1154
     12 C9         -8.7303   -1.5308    1.8375 C.ar      1 <0>        -0.1218
     13 C10        -9.2065   -0.3090    1.4000 C.ar      1 <0>        -0.1332
     14 C11        -8.5860    0.3380    0.3478 C.ar      1 <0>        -0.1218
     15 C12        -7.4870   -0.2349   -0.2645 C.ar      1 <0>        -0.1184
     16 N1         -3.3719   -3.7229   -0.2942 N.3       1 <0>        -0.6247
     17 C13        -2.6317   -4.4093   -1.3615 C.3       1 <0>         0.0519
     18 H2         -2.7496   -3.8609   -2.2961 H         1 <0>         0.1351
     19 C14        -1.1484   -4.4752   -0.9924 C.3       1 <0>        -0.1655
     20 C15        -3.1705   -5.8068   -1.5278 C.2       1 <0>         0.5682
     21 O3         -3.6950   -6.3701   -0.5905 O.2       1 <0>        -0.5526
     22 N2         -3.0695   -6.4308   -2.7182 N.am      1 <0>        -0.5802
     23 C16        -3.6310   -7.7418   -3.0542 C.3       1 <0>         0.1523
     24 H3         -2.8911   -8.5059   -2.8160 H         1 <0>         0.0509
     25 C17        -4.9034   -8.0510   -2.2986 C.3       1 <0>        -0.1297
     26 C18        -6.0368   -7.1137   -2.7154 C.3       1 <0>        -0.1094
     27 C19        -6.2743   -7.2804   -4.2201 C.3       1 <0>        -0.1085
     28 C20        -5.0145   -6.8456   -4.9650 C.3       1 <0>        -0.1440
     29 C21        -3.8417   -7.7250   -4.5795 C.3       1 <0>        -0.0931
     30 H4         -3.9197   -8.7264   -5.0027 H         1 <0>         0.0837
     31 C22        -2.5625   -6.9579   -5.0350 C.3       1 <0>        -0.1109
     32 C23        -2.3803   -5.9117   -3.9133 C.3       1 <0>         0.0510
     33 H5         -1.3194   -5.7787   -3.7013 H         1 <0>         0.0655
     34 C24        -2.9923   -4.5987   -4.3286 C.2       1 <0>         0.4919
     35 O4         -2.4511   -3.9168   -5.1822 O.co2     1 <0>        -0.6905
     36 O5         -4.0287   -4.2184   -3.8111 O.co2     1 <0>        -0.6606
     37 H6          0.4541    1.8990    1.0067 H         1 <0>         0.0754
     38 H7         -0.4716    1.8201   -0.5116 H         1 <0>         0.0673
     39 H8         -1.3201    2.0390    1.0377 H         1 <0>         0.0655
     40 H9          0.2555   -0.4393    0.2059 H         1 <0>         0.0645
     41 H10        -0.5930   -0.2204    1.7552 H         1 <0>         0.0637
     42 H11        -4.5731   -1.9367    1.2506 H         1 <0>         0.0661
     43 H12        -4.4613   -0.5439    0.1478 H         1 <0>         0.0753
     44 H13        -5.7859   -1.7787   -1.5461 H         1 <0>         0.0782
     45 H14        -5.8977   -3.1715   -0.4434 H         1 <0>         0.0939
     46 H15        -7.2618   -3.0603    1.5644 H         1 <0>         0.1229
     47 H16        -9.2151   -2.0363    2.6596 H         1 <0>         0.1170
     48 H17       -10.0635    0.1398    1.8800 H         1 <0>         0.1153
     49 H18        -8.9582    1.2924    0.0057 H         1 <0>         0.1171
     50 H19        -6.9999    0.2724   -1.0841 H         1 <0>         0.1219
     51 H20        -3.0217   -3.9852    0.6150 H         1 <0>         0.3516
     52 H21        -0.7210   -3.4730   -1.0249 H         1 <0>         0.0624
     53 H22        -1.0418   -4.8832    0.0127 H         1 <0>         0.0613
     54 H23        -0.6255   -5.1163   -1.7021 H         1 <0>         0.0537
     55 H24        -5.1982   -9.0805   -2.5018 H         1 <0>         0.0536
     56 H25        -4.7207   -7.9373   -1.2300 H         1 <0>         0.0933
     57 H26        -6.9448   -7.3707   -2.1699 H         1 <0>         0.0478
     58 H27        -5.7581   -6.0822   -2.4999 H         1 <0>         0.0777
     59 H28        -6.4884   -8.3257   -4.4430 H         1 <0>         0.0457
     60 H29        -7.1146   -6.6586   -4.5288 H         1 <0>         0.0527
     61 H30        -5.1875   -6.9222   -6.0384 H         1 <0>         0.0466
     62 H31        -4.7870   -5.8101   -4.7117 H         1 <0>         0.1184
     63 H32        -1.7058   -7.6301   -5.0846 H         1 <0>         0.0613
     64 H33        -2.7268   -6.4678   -5.9946 H         1 <0>         0.0818
@<TRIPOS>BOND
     1    1    2 1
     2    1   37 1
     3    1   38 1
     4    1   39 1
     5    2    3 1
     6    2   40 1
     7    2   41 1
     8    3    4 1
     9    4    5 2
    10    4    6 1
    11    6    7 1
    12    6    8 1
    13    6   16 1
    14    8    9 1
    15    8   42 1
    16    8   43 1
    17    9   10 1
    18    9   44 1
    19    9   45 1
    20   10   15 ar
    21   10   11 ar
    22   11   12 ar
    23   11   46 1
    24   12   13 ar
    25   12   47 1
    26   13   14 ar
    27   13   48 1
    28   14   15 ar
    29   14   49 1
    30   15   50 1
    31   16   17 1
    32   16   51 1
    33   17   18 1
    34   17   19 1
    35   17   20 1
    36   19   52 1
    37   19   53 1
    38   19   54 1
    39   20   21 2
    40   20   22 am
    41   22   32 1
    42   22   23 1
    43   23   24 1
    44   23   29 1
    45   23   25 1
    46   25   26 1
    47   25   55 1
    48   25   56 1
    49   26   27 1
    50   26   57 1
    51   26   58 1
    52   27   28 1
    53   27   59 1
    54   27   60 1
    55   28   29 1
    56   28   61 1
    57   28   62 1
    58   29   30 1
    59   29   31 1
    60   31   32 1
    61   31   63 1
    62   31   64 1
    63   32   33 1
    64   32   34 1
    65   34   35 2
    66   34   36 1
@<TRIPOS>MOLECULE
ZINC52955714
   60    62     0     0     0
SMALL
USER_CHARGES

@<TRIPOS>ATOM
      1 C1          1.3987    1.3244   -5.1362 C.3       1 <0>        -0.1508
      2 C2          1.0905   -0.1340   -4.7912 C.3       1 <0>         0.0573
      3 O1          2.2674   -0.9246   -4.9697 O.3       1 <0>        -0.3521
      4 C3          2.1655   -2.2370   -4.7069 C.2       1 <0>         0.4275
      5 O2          1.1120   -2.6992   -4.3376 O.2       1 <0>        -0.4940
      6 C4          3.3651   -3.1340   -4.8726 C.3       1 <0>         0.0997
      7 H1          4.1657   -2.7952   -4.2150 H         1 <0>         0.1169
      8 C5          3.8426   -3.0839   -6.3253 C.3       1 <0>        -0.0922
      9 C6          5.1324   -3.8948   -6.4664 C.3       1 <0>        -0.0769
     10 C7          5.6027   -3.8454   -7.8972 C.ar      1 <0>        -0.0756
     11 C8          5.1712   -4.7992   -8.8000 C.ar      1 <0>        -0.1131
     12 C9          5.6026   -4.7539  -10.1125 C.ar      1 <0>        -0.1191
     13 C10         6.4653   -3.7546  -10.5224 C.ar      1 <0>        -0.1295
     14 C11         6.8962   -2.8003   -9.6198 C.ar      1 <0>        -0.1225
     15 C12         6.4613   -2.8430   -8.3084 C.ar      1 <0>        -0.1194
     16 N1          2.9969   -4.5131   -4.5254 N.3       1 <0>        -0.6349
     17 C13         3.1069   -4.7389   -3.0781 C.3       1 <0>         0.0705
     18 H2          3.9453   -4.1649   -2.6834 H         1 <0>         0.0892
     19 C14         1.8145   -4.2910   -2.3924 C.3       1 <0>        -0.1648
     20 C15         3.3334   -6.2052   -2.8142 C.2       1 <0>         0.5406
     21 O3          2.8896   -7.0347   -3.5796 O.2       1 <0>        -0.4806
     22 N2          4.0291   -6.5947   -1.7276 N.am      1 <0>        -0.5983
     23 C16         4.5441   -5.7031   -0.6705 C.3       1 <0>         0.1335
     24 C17         5.1995   -6.5986    0.3718 C.3       1 <0>         0.0203
     25 C18         4.6100   -7.9925    0.1422 C.3       1 <0>        -0.0760
     26 C19         4.3970   -7.9848   -1.3940 C.3       1 <0>         0.0724
     27 H3          5.3194   -8.2647   -1.9029 H         1 <0>         0.0689
     28 C20         3.2829   -8.9262   -1.7730 C.2       1 <0>         0.5066
     29 O4          2.1276   -8.5365   -1.7689 O.co2     1 <0>        -0.6674
     30 O5          3.5368  -10.0775   -2.0838 O.co2     1 <0>        -0.6985
     31 S1          7.0181   -6.6028    0.2291 S.3       1 <0>        -0.2407
     32 C21         7.5204   -5.4282    1.5511 C.3       1 <0>        -0.0840
     33 C22         6.5937   -5.7477    2.7527 C.3       1 <0>        -0.0818
     34 S2          4.9143   -6.0098    2.0701 S.3       1 <0>        -0.2469
     35 H4          2.1875    1.6939   -4.4809 H         1 <0>         0.0657
     36 H5          1.7271    1.3908   -6.1734 H         1 <0>         0.0661
     37 H6          0.5010    1.9275   -5.0000 H         1 <0>         0.0770
     38 H7          0.7620   -0.2004   -3.7539 H         1 <0>         0.0656
     39 H8          0.3017   -0.5035   -5.4464 H         1 <0>         0.0661
     40 H9          3.0754   -3.5055   -6.9747 H         1 <0>         0.0720
     41 H10         4.0312   -2.0488   -6.6102 H         1 <0>         0.0785
     42 H11         5.8995   -3.4732   -5.8170 H         1 <0>         0.0710
     43 H12         4.9438   -4.9298   -6.1814 H         1 <0>         0.0945
     44 H13         4.4972   -5.5800   -8.4797 H         1 <0>         0.1256
     45 H14         5.2660   -5.4995  -10.8176 H         1 <0>         0.1197
     46 H15         6.8030   -3.7196  -11.5476 H         1 <0>         0.1171
     47 H16         7.5704   -2.0197   -9.9400 H         1 <0>         0.1178
     48 H17         6.7950   -2.0953   -7.6041 H         1 <0>         0.1199
     49 H18         2.0698   -4.7341   -4.8565 H         1 <0>         0.3667
     50 H19         1.7149   -3.2088   -2.4763 H         1 <0>         0.0630
     51 H20         0.9627   -4.7726   -2.8726 H         1 <0>         0.0726
     52 H21         1.8452   -4.5725   -1.3399 H         1 <0>         0.0603
     53 H22         5.2797   -5.0153   -1.0876 H         1 <0>         0.0793
     54 H23         3.7233   -5.1448   -0.2202 H         1 <0>         0.0804
     55 H24         5.3149   -8.7695    0.4380 H         1 <0>         0.0969
     56 H25         3.6607   -8.1073    0.6653 H         1 <0>         0.0980
     57 H26         8.5632   -5.5899    1.8243 H         1 <0>         0.1233
     58 H27         7.3703   -4.4004    1.2207 H         1 <0>         0.0988
     59 H28         6.9361   -6.6510    3.2576 H         1 <0>         0.1019
     60 H29         6.5860   -4.9104    3.4505 H         1 <0>         0.1180
@<TRIPOS>BOND
     1    1    2 1
     2    1   35 1
     3    1   36 1
     4    1   37 1
     5    2    3 1
     6    2   38 1
     7    2   39 1
     8    3    4 1
     9    4    5 2
    10    4    6 1
    11    6    7 1
    12    6    8 1
    13    6   16 1
    14    8    9 1
    15    8   40 1
    16    8   41 1
    17    9   10 1
    18    9   42 1
    19    9   43 1
    20   10   15 ar
    21   10   11 ar
    22   11   12 ar
    23   11   44 1
    24   12   13 ar
    25   12   45 1
    26   13   14 ar
    27   13   46 1
    28   14   15 ar
    29   14   47 1
    30   15   48 1
    31   16   17 1
    32   16   49 1
    33   17   18 1
    34   17   19 1
    35   17   20 1
    36   19   50 1
    37   19   51 1
    38   19   52 1
    39   20   21 2
    40   20   22 am
    41   22   26 1
    42   22   23 1
    43   23   24 1
    44   23   53 1
    45   23   54 1
    46   24   34 1
    47   24   25 1
    48   24   31 1
    49   25   26 1
    50   25   55 1
    51   25   56 1
    52   26   27 1
    53   26   28 1
    54   28   29 2
    55   28   30 1
    56   31   32 1
    57   32   33 1
    58   32   57 1
    59   32   58 1
    60   33   34 1
    61   33   59 1
    62   33   60 1
@<TRIPOS>MOLECULE
ZINC04217460
   54    56     0     0     0
SMALL
USER_CHARGES
2-[2-(1-carboxy-3-phenyl-propyl)aminopropanoyl]-6,9-dithia-2-azaspiro[4.4]nonane-3-carboxylic acid
@<TRIPOS>ATOM
      1 C1         -0.1750   -2.7212   -1.2573 C.3       1 <0>        -0.1799
      2 C2         -0.9172   -2.3005    0.0127 C.3       1 <0>         0.0227
      3 H1         -0.3448   -2.6094    0.8873 H         1 <0>         0.1465
      4 C3         -1.0834   -0.8027    0.0245 C.2       1 <0>         0.5274
      5 O1         -2.1938   -0.3160    0.0543 O.2       1 <0>        -0.5224
      6 N1          0.0021   -0.0041    0.0020 N.am      1 <0>        -0.5688
      7 C4          1.4073   -0.4637   -0.0348 C.3       1 <0>         0.1306
      8 C5          2.2110    0.7205    0.4947 C.3       1 <0>         0.0059
      9 C6          1.4523    1.9511   -0.0013 C.3       1 <0>        -0.0789
     10 C7         -0.0179    1.4678    0.0101 C.3       1 <0>         0.0955
     11 H2         -0.5185    1.8264    0.9095 H         1 <0>         0.0882
     12 C8         -0.7336    1.9768   -1.2145 C.2       1 <0>         0.4673
     13 O2         -0.8883    1.2520   -2.1688 O.co2     1 <0>        -0.6191
     14 S1          3.9379    0.6980   -0.0882 S.3       1 <0>        -0.2327
     15 C9          4.8569    1.3193    1.3781 C.3       1 <0>        -0.0803
     16 C10         4.1845    0.6386    2.5986 C.3       1 <0>        -0.0822
     17 S2          2.3769    0.6939    2.3056 S.3       1 <0>        -0.2391
     18 C11        -2.1581   -4.2912    0.6126 C.3       1 <0>        -0.0192
     19 H3         -1.4038   -4.3085    1.3994 H         1 <0>         0.1357
     20 C12        -3.5165   -4.6793    1.1999 C.3       1 <0>        -0.1182
     21 C13        -3.8437   -3.7608    2.3789 C.3       1 <0>        -0.0959
     22 C14        -5.1817   -4.1431    2.9573 C.ar      1 <0>        -0.0819
     23 C15        -6.3357   -3.5497    2.4808 C.ar      1 <0>        -0.1159
     24 C16        -7.5634   -3.9035    3.0084 C.ar      1 <0>        -0.1174
     25 C17        -7.6364   -4.8442    4.0187 C.ar      1 <0>        -0.1228
     26 C18        -6.4819   -5.4337    4.4988 C.ar      1 <0>        -0.1185
     27 C19        -5.2546   -5.0830    3.9683 C.ar      1 <0>        -0.1124
     28 C20        -1.7794   -5.2710   -0.4679 C.2       1 <0>         0.4604
     29 O3         -1.5961   -4.8836   -1.5976 O.co2     1 <0>        -0.6022
     30 H4          0.8061   -2.2467   -1.2789 H         1 <0>         0.0878
     31 H5         -0.0548   -3.8046   -1.2659 H         1 <0>         0.1203
     32 H6         -0.7474   -2.4123   -2.1319 H         1 <0>         0.0882
     33 H7          1.5404   -1.3325    0.6098 H         1 <0>         0.0986
     34 H8          1.7035   -0.7003   -1.0568 H         1 <0>         0.1001
     35 H9          1.7643    2.2168   -1.0113 H         1 <0>         0.1024
     36 H10         1.5889    2.7906    0.6804 H         1 <0>         0.1018
     37 H11         4.7641    2.4029    1.4511 H         1 <0>         0.1040
     38 H12         5.9065    1.0323    1.3159 H         1 <0>         0.1272
     39 H13         4.4310    1.1816    3.5110 H         1 <0>         0.1209
     40 H14         4.5176   -0.3962    2.6787 H         1 <0>         0.1028
     41 H15        -4.2859   -4.5763    0.4347 H         1 <0>         0.0829
     42 H16        -3.4818   -5.7132    1.5434 H         1 <0>         0.1177
     43 H17        -3.0743   -3.8638    3.1441 H         1 <0>         0.0855
     44 H18        -3.8783   -2.7269    2.0354 H         1 <0>         0.0683
     45 H19        -6.2783   -2.8120    1.6940 H         1 <0>         0.1229
     46 H20        -8.4654   -3.4432    2.6330 H         1 <0>         0.1225
     47 H21        -8.5954   -5.1187    4.4327 H         1 <0>         0.1207
     48 H22        -6.5389   -6.1686    5.2882 H         1 <0>         0.1220
     49 H23        -4.3526   -5.5437    4.3434 H         1 <0>         0.1239
     50 O4         -1.1994    3.2353   -1.2451 O.co2     1 <0>        -0.7542
     51 N2         -2.2484   -2.9355    0.0383 N.4       1 <0>        -0.4881
     52 H24        -2.6127   -2.9971   -0.9197 H         1 <0>         0.4375
     53 H25        -2.8838   -2.3670    0.6103 H         1 <0>         0.4193
     54 O5         -1.6458   -6.5742   -0.1753 O.co2     1 <0>        -0.7071
@<TRIPOS>BOND
     1    1    2 1
     2    1   30 1
     3    1   31 1
     4    1   32 1
     5    2    3 1
     6    2    4 1
     7    2   51 1
     8    4    5 2
     9    4    6 am
    10    6   10 1
    11    6    7 1
    12    7    8 1
    13    7   33 1
    14    7   34 1
    15    8   17 1
    16    8    9 1
    17    8   14 1
    18    9   10 1
    19    9   35 1
    20    9   36 1
    21   10   11 1
    22   10   12 1
    23   12   13 2
    24   12   50 1
    25   14   15 1
    26   15   16 1
    27   15   37 1
    28   15   38 1
    29   16   17 1
    30   16   39 1
    31   16   40 1
    32   18   19 1
    33   18   20 1
    34   18   28 1
    35   18   51 1
    36   20   21 1
    37   20   41 1
    38   20   42 1
    39   21   22 1
    40   21   43 1
    41   21   44 1
    42   22   27 ar
    43   22   23 ar
    44   23   24 ar
    45   23   45 1
    46   24   25 ar
    47   24   46 1
    48   25   26 ar
    49   25   47 1
    50   26   27 ar
    51   26   48 1
    52   27   49 1
    53   28   29 2
    54   28   54 1
    55   51   52 1
    56   51   53 1
@<TRIPOS>MOLECULE
ZINC35379666
   58    60     0     0     0
SMALL
USER_CHARGES

@<TRIPOS>ATOM
      1 C1         -0.0187    1.5258    0.0104 C.3       1 <0>        -0.1514
      2 C2          0.0021   -0.0041    0.0020 C.3       1 <0>         0.0574
      3 O1         -1.3386   -0.4987    0.0122 O.3       1 <0>        -0.3495
      4 C3         -1.4964   -1.8317    0.0065 C.2       1 <0>         0.4352
      5 O2         -0.5283   -2.5546   -0.0066 O.2       1 <0>        -0.5075
      6 C4         -2.8809   -2.4266    0.0165 C.3       1 <0>         0.0984
      7 H1         -3.4261   -2.0931   -0.8665 H         1 <0>         0.1145
      8 C5         -3.6222   -1.9719    1.2754 C.3       1 <0>        -0.0881
      9 C6         -5.0671   -2.4727    1.2252 C.3       1 <0>        -0.0755
     10 C7         -5.7973   -2.0249    2.4651 C.ar      1 <0>        -0.0710
     11 C8         -5.7979   -2.8237    3.5933 C.ar      1 <0>        -0.1146
     12 C9         -6.4677   -2.4129    4.7306 C.ar      1 <0>        -0.1207
     13 C10        -7.1365   -1.2032    4.7400 C.ar      1 <0>        -0.1317
     14 C11        -7.1351   -0.4039    3.6121 C.ar      1 <0>        -0.1213
     15 C12        -6.4617   -0.8127    2.4761 C.ar      1 <0>        -0.1194
     16 N1         -2.7842   -3.8923    0.0077 N.3       1 <0>        -0.6298
     17 C13        -2.6433   -4.4024   -1.3626 C.3       1 <0>         0.0749
     18 H2         -2.0501   -3.7002   -1.9483 H         1 <0>         0.0638
     19 C14        -1.9323   -5.7553   -1.3264 C.3       1 <0>        -0.1033
     20 C15        -2.1393   -6.4773   -2.6603 C.3       1 <0>        -0.0986
     21 C16        -1.9662   -5.5165   -3.8055 C.ar      1 <0>        -0.0859
     22 C17        -0.8057   -5.5264   -4.5549 C.ar      1 <0>        -0.1011
     23 C18        -0.6596   -4.6484   -5.6132 C.ar      1 <0>        -0.1394
     24 C19        -1.6721   -3.7597   -5.9260 C.ar      1 <0>        -0.1088
     25 C20        -2.8334   -3.7423   -5.1773 C.ar      1 <0>        -0.1398
     26 C21        -2.9782   -4.6186   -4.1116 C.ar      1 <0>         0.1653
     27 N2         -4.1359   -4.5914   -3.3219 N.am      1 <0>        -0.5353
     28 C22        -4.0054   -4.5389   -1.9833 C.2       1 <0>         0.5227
     29 O3         -4.9889   -4.6012   -1.2763 O.2       1 <0>        -0.5014
     30 C23        -5.4630   -4.6202   -3.9418 C.3       1 <0>         0.0462
     31 C24        -5.9133   -6.0498   -4.0985 C.2       1 <0>         0.4875
     32 O4         -5.1925   -6.9602   -3.7270 O.co2     1 <0>        -0.6784
     33 O5         -6.9985   -6.2959   -4.5970 O.co2     1 <0>        -0.6996
     34 H3          1.0039    1.9031    0.0027 H         1 <0>         0.0776
     35 H4         -0.5459    1.8868   -0.8726 H         1 <0>         0.0668
     36 H5         -0.5289    1.8773    0.9072 H         1 <0>         0.0665
     37 H6          0.5123   -0.3556   -0.8948 H         1 <0>         0.0659
     38 H7          0.5293   -0.3651    0.8851 H         1 <0>         0.0659
     39 H8         -3.1266   -2.3801    2.1562 H         1 <0>         0.0696
     40 H9         -3.6166   -0.8832    1.3271 H         1 <0>         0.0762
     41 H10        -5.5627   -2.0645    0.3443 H         1 <0>         0.0716
     42 H11        -5.0727   -3.5614    1.1735 H         1 <0>         0.1023
     43 H12        -5.2754   -3.7688    3.5860 H         1 <0>         0.1232
     44 H13        -6.4687   -3.0374    5.6118 H         1 <0>         0.1182
     45 H14        -7.6603   -0.8826    5.6283 H         1 <0>         0.1163
     46 H15        -7.6579    0.5411    3.6192 H         1 <0>         0.1176
     47 H16        -6.4575   -0.1866    1.5961 H         1 <0>         0.1200
     48 H17        -2.0238   -4.2080    0.5910 H         1 <0>         0.3588
     49 H18        -0.8665   -5.6011   -1.1584 H         1 <0>         0.0729
     50 H19        -2.3436   -6.3602   -0.5183 H         1 <0>         0.0840
     51 H20        -1.4105   -7.2828   -2.7515 H         1 <0>         0.0745
     52 H21        -3.1444   -6.8980   -2.6908 H         1 <0>         0.1153
     53 H22        -0.0130   -6.2192   -4.3141 H         1 <0>         0.1223
     54 H23         0.2487   -4.6564   -6.1975 H         1 <0>         0.1185
     55 H24        -1.5549   -3.0785   -6.7558 H         1 <0>         0.1211
     56 H25        -3.6249   -3.0490   -5.4205 H         1 <0>         0.1232
     57 H26        -6.1708   -4.0835   -3.3100 H         1 <0>         0.0839
     58 H27        -5.4169   -4.1443   -4.9213 H         1 <0>         0.0737
@<TRIPOS>BOND
     1    1    2 1
     2    1   34 1
     3    1   35 1
     4    1   36 1
     5    2    3 1
     6    2   37 1
     7    2   38 1
     8    3    4 1
     9    4    5 2
    10    4    6 1
    11    6    7 1
    12    6    8 1
    13    6   16 1
    14    8    9 1
    15    8   39 1
    16    8   40 1
    17    9   10 1
    18    9   41 1
    19    9   42 1
    20   10   15 ar
    21   10   11 ar
    22   11   12 ar
    23   11   43 1
    24   12   13 ar
    25   12   44 1
    26   13   14 ar
    27   13   45 1
    28   14   15 ar
    29   14   46 1
    30   15   47 1
    31   16   17 1
    32   16   48 1
    33   17   18 1
    34   17   28 1
    35   17   19 1
    36   19   20 1
    37   19   49 1
    38   19   50 1
    39   20   21 1
    40   20   51 1
    41   20   52 1
    42   21   26 ar
    43   21   22 ar
    44   22   23 ar
    45   22   53 1
    46   23   24 ar
    47   23   54 1
    48   24   25 ar
    49   24   55 1
    50   25   26 ar
    51   25   56 1
    52   26   27 1
    53   27   28 am
    54   27   30 1
    55   28   29 2
    56   30   31 1
    57   30   57 1
    58   30   58 1
    59   31   32 2
    60   31   33 1
