@<TRIPOS>MOLECULE
ZINC08214587
   25    24     0     0     0
SMALL
USER_CHARGES
2-(fluoro-isopropoxy-phosphoryl)oxypropane
@<TRIPOS>ATOM
      1 C1         -1.0941    1.3223   -3.5258 C.3       1 <0>        -0.1744
      2 C2         -0.2274    2.1810   -2.6026 C.3       1 <0>         0.1375
      3 C3         -0.1593    3.6085   -3.1491 C.3       1 <0>        -0.1672
      4 O1         -0.7993    2.1991   -1.2931 O.3       1 <0>        -0.7235
      5 P1         -0.0206    1.6658    0.0112 P.3       1 <0>         2.1887
      6 O2          1.3679    2.1780    0.0007 O.2       1 <0>        -1.0004
      7 O3         -0.7742    2.1850    1.3358 O.3       1 <0>        -0.7136
      8 C4         -0.5286    1.6416    2.6345 C.3       1 <0>         0.1321
      9 C5         -0.0214    2.7472    3.5624 C.3       1 <0>        -0.1688
     10 C6         -1.8266    1.0589    3.1972 C.3       1 <0>        -0.1736
     11 F1          0.0021   -0.0041    0.0020 F         1 <0>        -0.3757
     12 H1         -0.6579    1.3085   -4.5246 H         1 <0>         0.0849
     13 H2         -1.1426    0.3054   -3.1365 H         1 <0>         0.0634
     14 H3         -2.0992    1.7412   -3.5741 H         1 <0>         0.0744
     15 H4          0.7777    1.7621   -2.5544 H         1 <0>         0.0744
     16 H5          0.4582    4.2203   -2.4914 H         1 <0>         0.0688
     17 H6          0.2769    3.5947   -4.1479 H         1 <0>         0.0819
     18 H7         -1.1644    4.0274   -3.1973 H         1 <0>         0.0714
     19 H8          0.2220    0.8545    2.5630 H         1 <0>         0.0679
     20 H9          0.1658    2.3328    4.5530 H         1 <0>         0.0824
     21 H10         0.9033    3.1623    3.1615 H         1 <0>         0.0715
     22 H11        -0.7721    3.5344    3.6339 H         1 <0>         0.0737
     23 H12        -2.1879    0.2712    2.5362 H         1 <0>         0.0628
     24 H13        -1.6393    0.6444    4.1878 H         1 <0>         0.0853
     25 H14        -2.5772    1.8460    3.2687 H         1 <0>         0.0759
@<TRIPOS>BOND
     1    1    2 1
     2    1   12 1
     3    1   13 1
     4    1   14 1
     5    2    3 1
     6    2    4 1
     7    2   15 1
     8    3   16 1
     9    3   17 1
    10    3   18 1
    11    4    5 1
    12    5    6 2
    13    5    7 1
    14    5   11 1
    15    7    8 1
    16    8    9 1
    17    8   10 1
    18    8   19 1
    19    9   20 1
    20    9   21 1
    21    9   22 1
    22   10   23 1
    23   10   24 1
    24   10   25 1
@<TRIPOS>MOLECULE
ZINC13726469
   47    48     0     0     0
SMALL
USER_CHARGES
N-[2-[[5-(dimethylaminomethyl)-2-furyl]methylsulfanyl]ethyl]-5-fluoro-2,4-dinitro-aniline
@<TRIPOS>ATOM
      1 C1          0.3964   -2.5473    2.0415 C.3       1 <0>        -0.0442
      2 C2          2.3123   -3.8709    1.3780 C.3       1 <0>        -0.0432
      3 C3          1.5421   -2.0623   -0.0357 C.3       1 <0>         0.0937
      4 C4          1.1337   -0.6117   -0.0240 C.2       1 <0>        -0.0990
      5 C5          1.9708    0.4412   -0.0279 C.2       1 <0>        -0.1368
      6 C6          1.1666    1.6039   -0.0128 C.2       1 <0>        -0.1843
      7 C7         -0.1138    1.1920   -0.0005 C.2       1 <0>         0.0480
      8 O1         -0.1277   -0.1510   -0.0073 O.3       1 <0>        -0.1607
      9 C8         -1.3271    2.0858    0.0123 C.3       1 <0>        -0.0255
     10 S1         -1.8257    2.4527   -1.6928 S.3       1 <0>        -0.2019
     11 C9         -3.2783    3.5229   -1.5046 C.3       1 <0>        -0.1131
     12 C10        -3.8073    3.9123   -2.8864 C.3       1 <0>         0.1183
     13 N1         -4.9804    4.7765   -2.7344 N.pl3     1 <0>        -0.6929
     14 C11        -5.6408    5.2628   -3.8650 C.ar      1 <0>         0.3466
     15 C12        -5.1192    5.0272   -5.1305 C.ar      1 <0>        -0.2413
     16 C13        -5.7758    5.5102   -6.2477 C.ar      1 <0>         0.2699
     17 C14        -6.9521    6.2279   -6.1042 C.ar      1 <0>        -0.1438
     18 C15        -7.4719    6.4634   -4.8452 C.ar      1 <0>         0.0912
     19 C16        -6.8235    5.9780   -3.7262 C.ar      1 <0>        -0.1371
     20 N2         -7.3855    6.2252   -2.3793 N.pl3     1 <0>         0.0499
     21 O2         -8.4745    6.7580   -2.2622 O.2       1 <0>        -0.1166
     22 O3         -6.7590    5.8957   -1.3881 O.3       1 <0>        -0.1902
     23 N3         -7.6533    6.7440   -7.3013 N.pl3     1 <0>         0.0353
     24 O4         -8.6875    7.3752   -7.1764 O.2       1 <0>        -0.1416
     25 O5         -7.1961    6.5376   -8.4112 O.3       1 <0>        -0.1374
     26 F1         -5.2703    5.2817   -7.4796 F         1 <0>        -0.0792
     27 H1         -0.2956   -3.2053    1.5160 H         1 <0>         0.1254
     28 H2          0.5347   -2.9055    3.0616 H         1 <0>         0.1254
     29 H3         -0.0096   -1.5360    2.0635 H         1 <0>         0.1172
     30 H4          3.2990   -3.8218    0.9175 H         1 <0>         0.1247
     31 H5          2.4099   -4.2010    2.4122 H         1 <0>         0.1263
     32 H6          1.6896   -4.5768    0.8284 H         1 <0>         0.1258
     33 H7          0.7782   -2.6507   -0.5442 H         1 <0>         0.1466
     34 H8          2.4915   -2.1683   -0.5606 H         1 <0>         0.1574
     35 H9          3.0502    0.4053   -0.0408 H         1 <0>         0.1659
     36 H10         1.5138    2.6266   -0.0113 H         1 <0>         0.1671
     37 H11        -2.1439    1.5823    0.5293 H         1 <0>         0.1099
     38 H12        -1.0881    3.0153    0.5289 H         1 <0>         0.1250
     39 H13        -4.0541    2.9892   -0.9557 H         1 <0>         0.1004
     40 H14        -2.9983    4.4222   -0.9561 H         1 <0>         0.1020
     41 H15        -3.0315    4.4460   -3.4354 H         1 <0>         0.0916
     42 H16        -4.0873    3.0129   -3.4350 H         1 <0>         0.0908
     43 H17        -5.2985    5.0111   -1.8486 H         1 <0>         0.4289
     44 H18        -4.2020    4.4679   -5.2419 H         1 <0>         0.1792
     45 H19        -8.3890    7.0232   -4.7366 H         1 <0>         0.1940
     46 N4          1.7073   -2.5224    1.3592 N.4       1 <0>        -0.4001
     47 H20         2.3284   -1.8713    1.8537 H         1 <0>         0.4326
@<TRIPOS>BOND
     1    1   27 1
     2    1   28 1
     3    1   29 1
     4    1   46 1
     5    2   30 1
     6    2   31 1
     7    2   32 1
     8    2   46 1
     9    3    4 1
    10    3   33 1
    11    3   34 1
    12    3   46 1
    13    4    8 1
    14    4    5 2
    15    5    6 1
    16    5   35 1
    17    6    7 2
    18    6   36 1
    19    7    8 1
    20    7    9 1
    21    9   10 1
    22    9   37 1
    23    9   38 1
    24   10   11 1
    25   11   12 1
    26   11   39 1
    27   11   40 1
    28   12   13 1
    29   12   41 1
    30   12   42 1
    31   13   14 1
    32   13   43 1
    33   14   19 ar
    34   14   15 ar
    35   15   16 ar
    36   15   44 1
    37   16   17 ar
    38   16   26 1
    39   17   18 ar
    40   17   23 1
    41   18   19 ar
    42   18   45 1
    43   19   20 1
    44   20   21 2
    45   20   22 1
    46   23   24 2
    47   23   25 1
    48   46   47 1
@<TRIPOS>MOLECULE
ZINC00387366
   40    42     0     0     0
SMALL
USER_CHARGES

@<TRIPOS>ATOM
      1 C1          1.3329   -2.8833    1.4252 C.3       1 <0>         0.0443
      2 N1          0.5781   -1.9163    0.6243 N.pl3     1 <0>        -0.4038
      3 C2          0.4263   -1.9604   -0.6910 C.cat     1 <0>         0.2987
      4 C3          0.8943   -2.8642   -1.6670 C.2       1 <0>        -0.1236
      5 C4          0.5769   -2.6578   -2.9733 C.2       1 <0>        -0.0199
      6 C5         -0.2102   -1.5508   -3.3318 C.2       1 <0>        -0.1139
      7 C6         -0.6511   -0.6942   -2.3870 C.2       1 <0>         0.0852
      8 N2         -0.3403   -0.8889   -1.0718 N.pl3     1 <0>        -0.3246
      9 C7         -0.6501   -0.1900    0.0610 C.2       1 <0>        -0.0172
     10 C8         -0.0751   -0.8473    1.1065 C.2       1 <0>         0.1465
     11 C9         -0.1543   -0.4480    2.5336 C.ar      1 <0>        -0.0516
     12 C10        -0.4540    0.8697    2.8751 C.ar      1 <0>        -0.0744
     13 C11        -0.5271    1.2386    4.2031 C.ar      1 <0>        -0.0909
     14 C12        -0.3037    0.3042    5.1973 C.ar      1 <0>        -0.0821
     15 C13        -0.0047   -1.0098    4.8657 C.ar      1 <0>         0.1186
     16 C14         0.0649   -1.3900    3.5353 C.ar      1 <0>        -0.1084
     17 O1          0.2146   -1.9252    5.8464 O.3       1 <0>        -0.3055
     18 C15        -0.8516   -2.3992    6.5189 C.2       1 <0>         0.6452
     19 O2         -1.9571   -1.9422    6.3050 O.2       1 <0>        -0.5513
     20 N3         -0.6926   -3.3803    7.4291 N.am      1 <0>        -0.5935
     21 C16        -1.8525   -3.8959    8.1607 C.3       1 <0>         0.0903
     22 C17         0.6402   -3.9312    7.6871 C.3       1 <0>         0.0769
     23 H1          0.6531   -3.6396    1.8175 H         1 <0>         0.1112
     24 H2          2.0875   -3.3618    0.8009 H         1 <0>         0.1172
     25 H3          1.8198   -2.3679    2.2531 H         1 <0>         0.1210
     26 H4          1.4991   -3.7117   -1.3801 H         1 <0>         0.1766
     27 H5          0.9287   -3.3416   -3.7316 H         1 <0>         0.1749
     28 H6         -0.4634   -1.3845   -4.3685 H         1 <0>         0.1835
     29 H7         -1.2554    0.1537   -2.6739 H         1 <0>         0.2011
     30 H8         -1.2425    0.7113    0.1173 H         1 <0>         0.2287
     31 H9         -0.6287    1.6019    2.1007 H         1 <0>         0.1426
     32 H10        -0.7590    2.2600    4.4663 H         1 <0>         0.1508
     33 H11        -0.3616    0.5978    6.2350 H         1 <0>         0.1437
     34 H12         0.2931   -2.4132    3.2758 H         1 <0>         0.1393
     35 H13        -2.7499   -3.3688    7.8369 H         1 <0>         0.0931
     36 H14        -1.9645   -4.9614    7.9597 H         1 <0>         0.0726
     37 H15        -1.7059   -3.7413    9.2296 H         1 <0>         0.0734
     38 H16         1.1200   -3.3634    8.4842 H         1 <0>         0.0656
     39 H17         0.5499   -4.9750    7.9880 H         1 <0>         0.0822
     40 H18         1.2422   -3.8652    6.7808 H         1 <0>         0.0773
@<TRIPOS>BOND
     1    1    2 1
     2    1   23 1
     3    1   24 1
     4    1   25 1
     5    2   10 1
     6    2    3 2
     7    3    8 1
     8    3    4 1
     9    4    5 2
    10    4   26 1
    11    5    6 1
    12    5   27 1
    13    6    7 2
    14    6   28 1
    15    7    8 1
    16    7   29 1
    17    8    9 1
    18    9   10 2
    19    9   30 1
    20   10   11 1
    21   11   16 ar
    22   11   12 ar
    23   12   13 ar
    24   12   31 1
    25   13   14 ar
    26   13   32 1
    27   14   15 ar
    28   14   33 1
    29   15   16 ar
    30   15   17 1
    31   16   34 1
    32   17   18 1
    33   18   19 2
    34   18   20 am
    35   20   21 1
    36   20   22 1
    37   21   35 1
    38   21   36 1
    39   21   37 1
    40   22   38 1
    41   22   39 1
    42   22   40 1
@<TRIPOS>MOLECULE
ZINC01025210
   42    44     0     0     0
SMALL
USER_CHARGES

@<TRIPOS>ATOM
      1 C1         -0.0324    1.5252    0.0059 C.3       1 <0>        -0.1014
      2 C2         -0.0000    0.0186    0.0005 C.2       1 <0>         0.1381
      3 C3         -1.0881   -0.8041    0.0031 C.2       1 <0>        -0.3074
      4 C4         -0.5771   -2.1833   -0.0042 C.2       1 <0>         0.1765
      5 N1          0.7295   -2.1048   -0.0104 N.2       1 <0>        -0.2712
      6 O1          1.0989   -0.7403   -0.0134 O.3       1 <0>        -0.0691
      7 C5         -1.3873   -3.4254   -0.0040 C.ar      1 <0>        -0.0404
      8 C6         -2.7793   -3.3528   -0.0022 C.ar      1 <0>        -0.0722
      9 C7         -3.5282   -4.5116   -0.0025 C.ar      1 <0>        -0.1126
     10 C8         -2.9006   -5.7448   -0.0041 C.ar      1 <0>        -0.0803
     11 C9         -1.5202   -5.8242   -0.0055 C.ar      1 <0>        -0.1126
     12 C10        -0.7595   -4.6708   -0.0115 C.ar      1 <0>        -0.0061
     13 Cl1         0.9735   -4.7715   -0.0210 Cl        1 <0>        -0.0309
     14 C11        -2.5015   -0.3911    0.0116 C.2       1 <0>         0.5992
     15 O2         -3.0906   -0.2173   -1.0383 O.2       1 <0>        -0.4889
     16 N2         -3.1423   -0.2056    1.1826 N.am      1 <0>        -0.6617
     17 C12        -4.4481    0.2975    1.1936 C.ar      1 <0>         0.1540
     18 C13        -4.9022    1.0697    0.1362 C.ar      1 <0>        -0.0856
     19 C14        -6.2049    1.5690    0.1519 C.ar      1 <0>        -0.0227
     20 C15        -7.0431    1.2876    1.2330 C.ar      1 <0>        -0.0952
     21 C16        -6.5820    0.5184    2.2814 C.ar      1 <0>        -0.0871
     22 C17        -5.2922    0.0179    2.2632 C.ar      1 <0>        -0.0544
     23 Cl2        -4.7231   -0.9556    3.5830 Cl        1 <0>        -0.0554
     24 C18        -6.6956    2.3928   -0.9707 C.2       1 <0>         0.1632
     25 N3         -5.9175    2.6525   -1.9707 N.2       1 <0>        -0.3216
     26 O3         -6.3882    3.4426   -3.0474 O.3       1 <0>        -0.4023
     27 C19        -8.1031    2.9309   -0.9514 C.3       1 <0>        -0.1482
     28 H1          0.9872    1.9106   -0.0029 H         1 <0>         0.0982
     29 H2         -0.5627    1.8804   -0.8777 H         1 <0>         0.1054
     30 H3         -0.5451    1.8744    0.9022 H         1 <0>         0.1021
     31 H4         -3.2708   -2.3911   -0.0002 H         1 <0>         0.1320
     32 H5         -4.6068   -4.4561   -0.0011 H         1 <0>         0.1393
     33 H6         -3.4913   -6.6489   -0.0040 H         1 <0>         0.1419
     34 H7         -1.0358   -6.7895   -0.0064 H         1 <0>         0.1442
     35 H8         -2.6985   -0.4209    2.0178 H         1 <0>         0.4180
     36 H9         -4.2496    1.2845   -0.6971 H         1 <0>         0.1673
     37 H10        -8.0520    1.6724    1.2486 H         1 <0>         0.1450
     38 H11        -7.2314    0.3024    3.1168 H         1 <0>         0.1471
     39 H12        -5.7358    3.5824   -3.7473 H         1 <0>         0.4069
     40 H13        -8.1117    3.9085   -0.4692 H         1 <0>         0.0858
     41 H14        -8.4695    3.0267   -1.9735 H         1 <0>         0.0826
     42 H15        -8.7461    2.2469   -0.3975 H         1 <0>         0.0808
@<TRIPOS>BOND
     1    1    2 1
     2    1   28 1
     3    1   29 1
     4    1   30 1
     5    2    6 1
     6    2    3 2
     7    3    4 1
     8    3   14 1
     9    4    5 2
    10    4    7 1
    11    5    6 1
    12    7   12 ar
    13    7    8 ar
    14    8    9 ar
    15    8   31 1
    16    9   10 ar
    17    9   32 1
    18   10   11 ar
    19   10   33 1
    20   11   12 ar
    21   11   34 1
    22   12   13 1
    23   14   15 2
    24   14   16 am
    25   16   17 1
    26   16   35 1
    27   17   22 ar
    28   17   18 ar
    29   18   19 ar
    30   18   36 1
    31   19   20 ar
    32   19   24 1
    33   20   21 ar
    34   20   37 1
    35   21   22 ar
    36   21   38 1
    37   22   23 1
    38   24   25 2
    39   24   27 1
    40   25   26 1
    41   26   39 1
    42   27   40 1
    43   27   41 1
    44   27   42 1
@<TRIPOS>MOLECULE
ZINC00453884
   37    39     0     0     0
SMALL
USER_CHARGES
7-[(3-chlorophenyl)methoxy]-3,4-dimethyl-chromen-2-one
@<TRIPOS>ATOM
      1 C1          1.4762    1.5784    2.4330 C.3       1 <0>        -0.1290
      2 C2         -0.0134    1.8021    2.3862 C.2       1 <0>         0.0295
      3 C3         -0.7181    1.5718    1.2479 C.2       1 <0>        -0.2309
      4 C4         -2.1103    1.7942    1.2277 C.2       1 <0>         0.5159
      5 O1         -2.7293    1.5882    0.1992 O.2       1 <0>        -0.4586
      6 O2         -2.7718    2.2223    2.3144 O.3       1 <0>        -0.2692
      7 C5         -2.1315    2.4699    3.4772 C.ar      1 <0>         0.1868
      8 C6         -0.7404    2.2742    3.5664 C.ar      1 <0>        -0.1857
      9 C7         -0.0728    2.5304    4.7692 C.ar      1 <0>        -0.0147
     10 C8         -0.7749    2.9693    5.8544 C.ar      1 <0>        -0.2263
     11 C9         -2.1519    3.1649    5.7721 C.ar      1 <0>         0.1871
     12 C10        -2.8289    2.9166    4.5890 C.ar      1 <0>        -0.1730
     13 O3         -2.8360    3.6018    6.8602 O.3       1 <0>        -0.2981
     14 C11        -2.0801    3.8393    8.0494 C.3       1 <0>         0.1005
     15 C12        -3.0009    4.3157    9.1431 C.ar      1 <0>        -0.0892
     16 C13        -3.6042    3.4008    9.9861 C.ar      1 <0>        -0.0890
     17 C14        -4.4482    3.8371   10.9900 C.ar      1 <0>        -0.1082
     18 C15        -4.6899    5.1885   11.1515 C.ar      1 <0>        -0.0971
     19 C16        -4.0870    6.1043   10.3081 C.ar      1 <0>        -0.0383
     20 C17        -3.2377    5.6673    9.3069 C.ar      1 <0>        -0.0851
     21 Cl1        -4.3896    7.8017   10.5107 Cl        1 <0>        -0.0625
     22 C18        -0.0127    1.0858    0.0080 C.3       1 <0>        -0.0963
     23 H1          1.9906    2.4971    2.1513 H         1 <0>         0.0911
     24 H2          1.7692    1.2930    3.4433 H         1 <0>         0.0801
     25 H3          1.7462    0.7831    1.7381 H         1 <0>         0.0859
     26 H4          0.9944    2.3803    4.8390 H         1 <0>         0.1443
     27 H5         -0.2595    3.1667    6.7828 H         1 <0>         0.1417
     28 H6         -3.8963    3.0709    4.5330 H         1 <0>         0.1529
     29 H7         -1.5933    2.9152    8.3612 H         1 <0>         0.0818
     30 H8         -1.3244    4.6000    7.8537 H         1 <0>         0.0804
     31 H9         -3.4156    2.3449    9.8603 H         1 <0>         0.1330
     32 H10        -4.9186    3.1220   11.6487 H         1 <0>         0.1380
     33 H11        -5.3491    5.5293   11.9362 H         1 <0>         0.1376
     34 H12        -2.7632    6.3822    8.6509 H         1 <0>         0.1366
     35 H13         0.0021   -0.0041    0.0020 H         1 <0>         0.0752
     36 H14         1.0099    1.4631    0.0003 H         1 <0>         0.0744
     37 H15        -0.5399    1.4469   -0.8751 H         1 <0>         0.0781
@<TRIPOS>BOND
     1    1    2 1
     2    1   23 1
     3    1   24 1
     4    1   25 1
     5    2    8 1
     6    2    3 2
     7    3    4 1
     8    3   22 1
     9    4    5 2
    10    4    6 1
    11    6    7 1
    12    7   12 ar
    13    7    8 ar
    14    8    9 ar
    15    9   10 ar
    16    9   26 1
    17   10   11 ar
    18   10   27 1
    19   11   12 ar
    20   11   13 1
    21   12   28 1
    22   13   14 1
    23   14   15 1
    24   14   29 1
    25   14   30 1
    26   15   20 ar
    27   15   16 ar
    28   16   17 ar
    29   16   31 1
    30   17   18 ar
    31   17   32 1
    32   18   19 ar
    33   18   33 1
    34   19   20 ar
    35   19   21 1
    36   20   34 1
    37   22   35 1
    38   22   36 1
    39   22   37 1
@<TRIPOS>MOLECULE
ZINC00001341
   28    28     0     0     0
SMALL
USER_CHARGES

@<TRIPOS>ATOM
      1 C1         -0.0187    1.5258    0.0104 C.3       1 <0>        -0.1889
      2 C2          0.0021   -0.0041    0.0020 C.3       1 <0>        -0.0145
      3 N1          0.6897   -0.4778   -1.2066 N.4       1 <0>        -0.2084
      4 C3         -0.0208    0.0088   -2.3967 C.3       1 <0>        -0.0500
      5 C4          2.0678    0.0307   -1.2170 C.3       1 <0>        -0.0503
      6 C5          0.7086   -1.8757   -1.2143 C.ar      1 <0>        -0.0241
      7 C6          0.1240   -2.5802   -0.1778 C.ar      1 <0>        -0.1105
      8 C7          0.1411   -3.9625   -0.1825 C.ar      1 <0>        -0.0760
      9 C8          0.7430   -4.6436   -1.2231 C.ar      1 <0>        -0.1032
     10 C9          1.3301   -3.9393   -2.2639 C.ar      1 <0>         0.1400
     11 C10         1.3063   -2.5519   -2.2599 C.ar      1 <0>        -0.1269
     12 O1          1.9227   -4.6069   -3.2886 O.3       1 <0>        -0.4870
     13 H1          1.0039    1.9031    0.0027 H         1 <0>         0.0828
     14 H2         -0.5459    1.8868   -0.8726 H         1 <0>         0.0827
     15 H3         -0.5289    1.8773    0.9072 H         1 <0>         0.1080
     16 H4          0.5293   -0.3651    0.8851 H         1 <0>         0.1314
     17 H5         -1.0205   -0.3814    0.0098 H         1 <0>         0.1314
     18 H6         -0.0356    1.0987   -2.3907 H         1 <0>         0.1291
     19 H7          0.4894   -0.3427   -3.2935 H         1 <0>         0.1209
     20 H8         -1.0434   -0.3685   -2.3890 H         1 <0>         0.1233
     21 H9          2.5950   -0.3304   -0.3340 H         1 <0>         0.1235
     22 H10         2.5780   -0.3209   -2.1138 H         1 <0>         0.1215
     23 H11         2.0530    1.1205   -1.2110 H         1 <0>         0.1292
     24 H12        -0.3463   -2.0496    0.6368 H         1 <0>         0.1520
     25 H13        -0.3161   -4.5105    0.6281 H         1 <0>         0.1546
     26 H14         0.7567   -5.7236   -1.2259 H         1 <0>         0.1528
     27 H15         1.7585   -2.0013   -3.0715 H         1 <0>         0.1489
     28 H16         1.3272   -4.8084   -4.0233 H         1 <0>         0.4078
@<TRIPOS>BOND
     1    1    2 1
     2    1   13 1
     3    1   14 1
     4    1   15 1
     5    2    3 1
     6    2   16 1
     7    2   17 1
     8    3    4 1
     9    3    5 1
    10    3    6 1
    11    4   18 1
    12    4   19 1
    13    4   20 1
    14    5   21 1
    15    5   22 1
    16    5   23 1
    17    6   11 ar
    18    6    7 ar
    19    7    8 ar
    20    7   24 1
    21    8    9 ar
    22    8   25 1
    23    9   10 ar
    24    9   26 1
    25   10   11 ar
    26   10   12 1
    27   11   27 1
    28   12   28 1
@<TRIPOS>MOLECULE
ZINC01700066
   17    17     0     0     0
SMALL
USER_CHARGES

@<TRIPOS>ATOM
      1 C1         -0.0184    1.5028    0.0103 C.3       1 <0>        -0.1185
      2 C2          0.0021   -0.0041    0.0020 C.ar      1 <0>        -0.0822
      3 C3          0.0057   -0.6888   -1.1991 C.ar      1 <0>        -0.0707
      4 C4          0.0245   -2.0707   -1.2067 C.ar      1 <0>        -0.1123
      5 C5          0.0400   -2.7685   -0.0132 C.ar      1 <0>        -0.0629
      6 C6          0.0373   -2.0840    1.1875 C.ar      1 <0>        -0.0448
      7 C7          0.0229   -0.7015    1.1951 C.ar      1 <0>        -0.0595
      8 N1          0.0534   -2.8310    2.4653 N.pl3     1 <0>         0.0317
      9 O1          0.0690   -4.0398    2.4586 O.2       1 <0>        -0.1562
     10 O2          0.0510   -2.2322    3.5156 O.3       1 <0>        -0.1572
     11 H1          1.0042    1.8801    0.0026 H         1 <0>         0.0808
     12 H2         -0.5455    1.8639   -0.8728 H         1 <0>         0.0769
     13 H3         -0.5286    1.8543    0.9071 H         1 <0>         0.0755
     14 H4         -0.0064   -0.1437   -2.1314 H         1 <0>         0.1436
     15 H5          0.0266   -2.6056   -2.1450 H         1 <0>         0.1489
     16 H6          0.0540   -3.8484   -0.0191 H         1 <0>         0.1537
     17 H7          0.0245   -0.1666    2.1333 H         1 <0>         0.1532
@<TRIPOS>BOND
     1    1    2 1
     2    1   11 1
     3    1   12 1
     4    1   13 1
     5    2    7 ar
     6    2    3 ar
     7    3    4 ar
     8    3   14 1
     9    4    5 ar
    10    4   15 1
    11    5    6 ar
    12    5   16 1
    13    6    7 ar
    14    6    8 1
    15    7   17 1
    16    8    9 2
    17    8   10 1
@<TRIPOS>MOLECULE
ZINC04257702
   27    29     0     0     0
SMALL
USER_CHARGES

@<TRIPOS>ATOM
      1 C1         -0.0164    1.3583    0.0095 C.ar      1 <0>        -0.1096
      2 C2          1.1702    2.0876    0.0021 C.ar      1 <0>        -0.0295
      3 C3          2.3789    1.4619   -0.0126 C.ar      1 <0>        -0.1465
      4 C4          2.4378    0.0572   -0.0196 C.ar      1 <0>         0.1783
      5 C5          1.2297   -0.6802   -0.0128 C.ar      1 <0>        -0.1339
      6 C6          0.0021   -0.0041    0.0020 C.ar      1 <0>        -0.0595
      7 C7          1.2951   -2.0928   -0.0213 C.ar      1 <0>         0.3684
      8 C8          2.5476   -2.6891   -0.0341 C.ar      1 <0>        -0.2376
      9 C9          3.6902   -1.8995   -0.0392 C.ar      1 <0>         0.2398
     10 N1          3.6096   -0.5836   -0.0321 N.ar      1 <0>        -0.5012
     11 C10         4.9173   -2.7903   -0.0531 C.3       1 <0>        -0.0975
     12 C11         4.4149   -4.1811    0.3868 C.3       1 <0>        -0.1153
     13 C12         2.9333   -4.1521   -0.0440 C.3       1 <0>        -0.0720
     14 N2          0.1403   -2.8601   -0.0165 N.pl3     1 <0>        -0.7981
     15 H1         -0.9625    1.8789    0.0259 H         1 <0>         0.1523
     16 H2          1.1306    3.1669    0.0077 H         1 <0>         0.1554
     17 H3          3.2895    2.0424   -0.0191 H         1 <0>         0.1562
     18 H4         -0.9240   -0.5598    0.0075 H         1 <0>         0.1466
     19 H5          5.3365   -2.8403   -1.0581 H         1 <0>         0.1241
     20 H6          5.6625   -2.4179    0.6498 H         1 <0>         0.1116
     21 H7          4.9547   -4.9708   -0.1358 H         1 <0>         0.1041
     22 H8          4.5019   -4.3004    1.4668 H         1 <0>         0.0906
     23 H9          2.3220   -4.7093    0.6658 H         1 <0>         0.0905
     24 H10         2.8226   -4.5658   -1.0463 H         1 <0>         0.0968
     25 H11        -0.7285   -2.4288   -0.0072 H         1 <0>         0.4209
     26 H12         0.2011   -3.8281   -0.0225 H         1 <0>         0.4263
     27 H13         4.4285   -0.0636   -0.0366 H         1 <0>         0.4388
@<TRIPOS>BOND
     1    1    6 ar
     2    1    2 ar
     3    1   15 1
     4    2    3 ar
     5    2   16 1
     6    3    4 ar
     7    3   17 1
     8    4   10 ar
     9    4    5 ar
    10    5    6 ar
    11    5    7 ar
    12    6   18 1
    13    7    8 ar
    14    7   14 1
    15    8   13 1
    16    8    9 ar
    17    9   10 ar
    18    9   11 1
    19   10   27 1
    20   11   12 1
    21   11   19 1
    22   11   20 1
    23   12   13 1
    24   12   21 1
    25   12   22 1
    26   13   23 1
    27   13   24 1
    28   14   25 1
    29   14   26 1
@<TRIPOS>MOLECULE
ZINC01660914
   36    38     0     0     0
SMALL
USER_CHARGES
BLAHamine
@<TRIPOS>ATOM
      1 C1          1.1633    1.7647    0.0004 C.ar      1 <0>        -0.1185
      2 C2          1.1773    3.1569    0.0127 C.ar      1 <0>        -0.0243
      3 C3          0.0159    3.8672    0.0284 C.ar      1 <0>        -0.1574
      4 C4         -1.2144    3.1899    0.0268 C.ar      1 <0>         0.1905
      5 C5         -1.2284    1.7742    0.0175 C.ar      1 <0>        -0.1433
      6 C6         -0.0126    1.0755    0.0080 C.ar      1 <0>        -0.0545
      7 C7         -2.4709    1.1151    0.0281 C.ar      1 <0>         0.3574
      8 C8         -3.6692    1.8604    0.0363 C.ar      1 <0>        -0.1876
      9 C9         -3.5504    3.2343    0.0256 C.ar      1 <0>         0.2702
     10 C10        -4.7325    4.1719    0.0120 C.3       1 <0>        -0.1207
     11 C11        -5.3109    4.2403   -1.3995 C.3       1 <0>        -0.1196
     12 C12        -5.6630    2.8480   -1.9066 C.3       1 <0>        -0.1303
     13 C13        -6.7338    2.3661   -0.9545 C.3       1 <0>        -0.1330
     14 C14        -6.2240    1.6563    0.2863 C.3       1 <0>        -0.1192
     15 C15        -4.8869    0.9723    0.0447 C.3       1 <0>        -0.0689
     16 N1         -2.5154   -0.2719    0.0256 N.pl3     1 <0>        -0.7954
     17 H1          2.0972    1.2222   -0.0165 H         1 <0>         0.1507
     18 H2          2.1218    3.6804    0.0080 H         1 <0>         0.1532
     19 H3          0.0404    4.9468    0.0406 H         1 <0>         0.1540
     20 H4          0.0021   -0.0041    0.0020 H         1 <0>         0.1460
     21 H5         -5.4872    3.8578    0.7227 H         1 <0>         0.1236
     22 H6         -4.3872    5.1742    0.3002 H         1 <0>         0.0945
     23 H7         -6.2105    4.8599   -1.3926 H         1 <0>         0.0921
     24 H8         -4.5767    4.6929   -2.0697 H         1 <0>         0.0665
     25 H9         -6.0674    2.9134   -2.9231 H         1 <0>         0.0794
     26 H10        -4.7956    2.1951   -1.9035 H         1 <0>         0.0722
     27 H11        -7.3332    3.2248   -0.6426 H         1 <0>         0.0719
     28 H12        -7.3921    1.6809   -1.4973 H         1 <0>         0.0654
     29 H13        -6.1458    2.3501    1.1188 H         1 <0>         0.0715
     30 H14        -6.9586    0.8881    0.5684 H         1 <0>         0.0808
     31 H15        -4.7596    0.2205    0.8321 H         1 <0>         0.0828
     32 H16        -4.9367    0.4434   -0.9097 H         1 <0>         0.0902
     33 H17        -3.3705   -0.7297    0.0293 H         1 <0>         0.4264
     34 H18        -1.6913   -0.7835    0.0200 H         1 <0>         0.4212
     35 N2         -2.3714    3.9322    0.0264 N.ar      1 <0>        -0.5524
     36 H19        -2.3530    4.9588    0.0268 H         1 <0>         0.4646
@<TRIPOS>BOND
     1    1    6 ar
     2    1    2 ar
     3    1   17 1
     4    2    3 ar
     5    2   18 1
     6    3    4 ar
     7    3   19 1
     8    4    5 ar
     9    4   35 ar
    10    5    6 ar
    11    5    7 ar
    12    6   20 1
    13    7    8 ar
    14    7   16 1
    15    8   15 1
    16    8    9 ar
    17    9   10 1
    18    9   35 ar
    19   10   11 1
    20   10   21 1
    21   10   22 1
    22   11   12 1
    23   11   23 1
    24   11   24 1
    25   12   13 1
    26   12   25 1
    27   12   26 1
    28   13   14 1
    29   13   27 1
    30   13   28 1
    31   14   15 1
    32   14   29 1
    33   14   30 1
    34   15   31 1
    35   15   32 1
    36   16   33 1
    37   16   34 1
    38   35   36 1
@<TRIPOS>MOLECULE
ZINC01532339
   56    55     0     0     0
SMALL
USER_CHARGES

@<TRIPOS>ATOM
      1 C1         -0.0178    1.4648    0.0101 C.3       1 <0>        -0.0508
      2 N1          0.0021   -0.0041    0.0020 N.4       1 <0>        -0.2715
      3 C2          0.7126   -0.4907    1.1921 C.3       1 <0>        -0.0508
      4 C3         -1.3761   -0.5125    0.0124 C.3       1 <0>        -0.0458
      5 C4          0.6897   -0.4778   -1.2066 C.3       1 <0>        -0.0093
      6 C5          2.1250    0.0518   -1.2175 C.3       1 <0>        -0.1512
      7 C6          2.8412   -0.4417   -2.4763 C.3       1 <0>        -0.1183
      8 C7          4.2766    0.0879   -2.4871 C.3       1 <0>        -0.1213
      9 C8          4.9927   -0.4055   -3.7459 C.3       1 <0>        -0.1222
     10 C9          6.4281    0.1241   -3.7568 C.3       1 <0>        -0.1222
     11 C10         7.1442   -0.3693   -5.0156 C.3       1 <0>        -0.1214
     12 C11         8.5796    0.1603   -5.0265 C.3       1 <0>        -0.1183
     13 C12         9.2957   -0.3332   -6.2853 C.3       1 <0>        -0.1511
     14 C13        10.7311    0.1964   -6.2961 C.3       1 <0>        -0.0092
     15 N2         11.4187   -0.2773   -7.5048 N.4       1 <0>        -0.2715
     16 C14        10.7082    0.2093   -8.6949 C.3       1 <0>        -0.0508
     17 C15        12.7969    0.2311   -7.5152 C.3       1 <0>        -0.0458
     18 C16        11.4386   -1.7462   -7.5128 C.3       1 <0>        -0.0508
     19 H1          1.0047    1.8421    0.0024 H         1 <0>         0.1221
     20 H2         -0.5450    1.8259   -0.8730 H         1 <0>         0.1218
     21 H3         -0.5280    1.8163    0.9069 H         1 <0>         0.1235
     22 H4          0.2024   -0.1392    2.0889 H         1 <0>         0.1235
     23 H5          0.7273   -1.5806    1.1861 H         1 <0>         0.1218
     24 H6          1.7352   -0.1134    1.1844 H         1 <0>         0.1221
     25 H7         -1.9033   -0.1515   -0.8706 H         1 <0>         0.1217
     26 H8         -1.3613   -1.6024    0.0065 H         1 <0>         0.1217
     27 H9         -1.8863   -0.1610    0.9092 H         1 <0>         0.1238
     28 H10         0.7044   -1.5677   -1.2126 H         1 <0>         0.1279
     29 H11         0.1625   -0.1167   -2.0897 H         1 <0>         0.1279
     30 H12         2.1103    1.1417   -1.2115 H         1 <0>         0.0874
     31 H13         2.6522   -0.3093   -0.3344 H         1 <0>         0.0874
     32 H14         2.8560   -1.5315   -2.4823 H         1 <0>         0.0735
     33 H15         2.3140   -0.0806   -3.3593 H         1 <0>         0.0735
     34 H16         4.2618    1.1778   -2.4811 H         1 <0>         0.0662
     35 H17         4.8037   -0.2731   -1.6041 H         1 <0>         0.0662
     36 H18         5.0075   -1.4954   -3.7519 H         1 <0>         0.0647
     37 H19         4.4655   -0.0444   -4.6290 H         1 <0>         0.0647
     38 H20         6.4133    1.2140   -3.7508 H         1 <0>         0.0647
     39 H21         6.9553   -0.2370   -2.8737 H         1 <0>         0.0647
     40 H22         7.1590   -1.4592   -5.0216 H         1 <0>         0.0662
     41 H23         6.6170   -0.0082   -5.8987 H         1 <0>         0.0662
     42 H24         8.5648    1.2501   -5.0205 H         1 <0>         0.0735
     43 H25         9.1068   -0.2008   -4.1434 H         1 <0>         0.0735
     44 H26         9.3105   -1.4230   -6.2913 H         1 <0>         0.0874
     45 H27         8.7685    0.0279   -7.1683 H         1 <0>         0.0874
     46 H28        10.7163    1.2863   -6.2901 H         1 <0>         0.1279
     47 H29        11.2583   -0.1647   -5.4131 H         1 <0>         0.1279
     48 H30        10.6934    1.2992   -8.6889 H         1 <0>         0.1218
     49 H31        11.2184   -0.1422   -9.5917 H         1 <0>         0.1235
     50 H32         9.6856   -0.1680   -8.6871 H         1 <0>         0.1221
     51 H33        13.3240   -0.1299   -6.6321 H         1 <0>         0.1217
     52 H34        13.3070   -0.1204   -8.4120 H         1 <0>         0.1238
     53 H35        12.7821    1.3210   -7.5092 H         1 <0>         0.1217
     54 H36        10.4160   -2.1235   -7.5051 H         1 <0>         0.1221
     55 H37        11.9488   -2.0977   -8.4096 H         1 <0>         0.1234
     56 H38        11.9658   -2.1073   -6.6298 H         1 <0>         0.1218
@<TRIPOS>BOND
     1    1    2 1
     2    1   19 1
     3    1   20 1
     4    1   21 1
     5    2    3 1
     6    2    4 1
     7    2    5 1
     8    3   22 1
     9    3   23 1
    10    3   24 1
    11    4   25 1
    12    4   26 1
    13    4   27 1
    14    5    6 1
    15    5   28 1
    16    5   29 1
    17    6    7 1
    18    6   30 1
    19    6   31 1
    20    7    8 1
    21    7   32 1
    22    7   33 1
    23    8    9 1
    24    8   34 1
    25    8   35 1
    26    9   10 1
    27    9   36 1
    28    9   37 1
    29   10   11 1
    30   10   38 1
    31   10   39 1
    32   11   12 1
    33   11   40 1
    34   11   41 1
    35   12   13 1
    36   12   42 1
    37   12   43 1
    38   13   14 1
    39   13   44 1
    40   13   45 1
    41   14   15 1
    42   14   46 1
    43   14   47 1
    44   15   16 1
    45   15   17 1
    46   15   18 1
    47   16   48 1
    48   16   49 1
    49   16   50 1
    50   17   51 1
    51   17   52 1
    52   17   53 1
    53   18   54 1
    54   18   55 1
    55   18   56 1
@<TRIPOS>MOLECULE
ZINC03995599
   78    79     0     0     0
SMALL
USER_CHARGES

@<TRIPOS>ATOM
      1 C1         -4.6735    1.1423    4.1239 C.3       1 <0>        -0.1945
      2 C2         -4.8227   -0.3214    3.7040 C.3       1 <0>        -0.0252
      3 N1         -3.8668   -0.6226    2.6301 N.4       1 <0>        -0.2565
      4 C3         -4.0100   -2.0280    2.2269 C.3       1 <0>        -0.0237
      5 C4         -3.1315   -2.2999    1.0042 C.3       1 <0>        -0.1952
      6 C5         -4.1353    0.2473    1.4772 C.3       1 <0>        -0.0322
      7 C6         -5.5599    0.0034    0.9752 C.3       1 <0>         0.0949
      8 N2         -5.8276    0.8710   -0.1745 N.am      1 <0>        -0.7000
      9 C7         -7.0281    0.8284   -0.7858 C.2       1 <0>         0.5181
     10 O1         -7.8871    0.0714   -0.3838 O.2       1 <0>        -0.4978
     11 C8         -7.3013    1.7134   -1.9586 C.2       1 <0>         0.5180
     12 O2         -6.4423    2.4705   -2.3606 O.2       1 <0>        -0.4978
     13 N3         -8.5017    1.6708   -2.5699 N.am      1 <0>        -0.6999
     14 C9         -8.7695    2.5384   -3.7196 C.3       1 <0>         0.0949
     15 C10       -10.1940    2.2945   -4.2217 C.3       1 <0>        -0.0322
     16 N4        -10.4626    3.1645   -5.3745 N.4       1 <0>        -0.2565
     17 C11       -10.3193    4.5698   -4.9714 C.3       1 <0>        -0.0252
     18 C12       -11.3150    4.8835   -3.8528 C.3       1 <0>        -0.1945
     19 C13        -9.5066    2.8632   -6.4484 C.3       1 <0>        -0.0238
     20 C14        -9.5426    1.3653   -6.7580 C.3       1 <0>        -0.1952
     21 C15       -11.8303    2.9303   -5.8566 C.3       1 <0>         0.0329
     22 C16       -12.1630    3.9335   -6.9308 C.ar      1 <0>        -0.1447
     23 C17       -12.7133    5.1548   -6.5897 C.ar      1 <0>        -0.0924
     24 C18       -13.0184    6.0750   -7.5749 C.ar      1 <0>        -0.1044
     25 C19       -12.7734    5.7746   -8.9021 C.ar      1 <0>        -0.0701
     26 C20       -12.2232    4.5540   -9.2443 C.ar      1 <0>        -0.1000
     27 C21       -11.9123    3.6346   -8.2580 C.ar      1 <0>        -0.0263
     28 Cl1       -11.2150    2.1037   -8.6866 Cl        1 <0>        -0.0444
     29 C22        -2.4990   -0.3885    3.1121 C.3       1 <0>         0.0329
     30 C23        -2.2785   -1.1562    4.3900 C.ar      1 <0>        -0.1448
     31 C24        -2.5856   -0.5763    5.6067 C.ar      1 <0>        -0.0925
     32 C25        -2.3834   -1.2803    6.7788 C.ar      1 <0>        -0.1044
     33 C26        -1.8738   -2.5649    6.7353 C.ar      1 <0>        -0.0701
     34 C27        -1.5664   -3.1457    5.5196 C.ar      1 <0>        -0.1001
     35 C28        -1.7739   -2.4435    4.3454 C.ar      1 <0>        -0.0263
     36 Cl2        -1.3941   -3.1748    2.8175 Cl        1 <0>        -0.0444
     37 H1         -3.6587    1.3160    4.4816 H         1 <0>         0.0860
     38 H2         -4.8728    1.7878    3.2685 H         1 <0>         0.0810
     39 H3         -5.3829    1.3658    4.9208 H         1 <0>         0.1106
     40 H4         -4.6235   -0.9669    4.5594 H         1 <0>         0.1355
     41 H5         -5.8376   -0.4951    3.3463 H         1 <0>         0.1313
     42 H6         -3.7005   -2.6748    3.0478 H         1 <0>         0.1331
     43 H7         -5.0518   -2.2301    1.9780 H         1 <0>         0.1308
     44 H8         -3.5207   -1.7496    0.1475 H         1 <0>         0.0783
     45 H9         -2.1113   -1.9764    1.2107 H         1 <0>         0.0891
     46 H10        -3.1366   -3.3672    0.7833 H         1 <0>         0.1070
     47 H11        -4.0290    1.2901    1.7764 H         1 <0>         0.1420
     48 H12        -3.4260    0.0238    0.6804 H         1 <0>         0.1425
     49 H13        -5.6662   -1.0393    0.6760 H         1 <0>         0.0995
     50 H14        -6.2692    0.2270    1.7720 H         1 <0>         0.0994
     51 H15        -5.1410    1.4761   -0.4959 H         1 <0>         0.4218
     52 H16        -9.1883    1.0657   -2.2486 H         1 <0>         0.4218
     53 H17        -8.6632    3.5811   -3.4205 H         1 <0>         0.0994
     54 H18        -8.0602    2.3149   -4.5165 H         1 <0>         0.0995
     55 H19       -10.3003    1.2518   -4.5208 H         1 <0>         0.1425
     56 H20       -10.9034    2.5180   -3.4248 H         1 <0>         0.1420
     57 H21        -9.3044    4.7435   -4.6137 H         1 <0>         0.1313
     58 H22       -10.5186    5.2153   -5.8268 H         1 <0>         0.1355
     59 H23       -11.2087    5.9263   -3.5537 H         1 <0>         0.1106
     60 H24       -12.3299    4.7098   -4.2105 H         1 <0>         0.0859
     61 H25       -11.1157    4.2380   -2.9974 H         1 <0>         0.0810
     62 H26        -9.7756    3.4256   -7.3426 H         1 <0>         0.1331
     63 H27        -8.5026    3.1445   -6.1306 H         1 <0>         0.1308
     64 H28        -8.9320    1.1613   -7.6375 H         1 <0>         0.1070
     65 H29        -9.1509    0.8088   -5.9066 H         1 <0>         0.0782
     66 H30       -10.5708    1.0587   -6.9504 H         1 <0>         0.0891
     67 H31       -11.9040    1.9225   -6.2652 H         1 <0>         0.1411
     68 H32       -12.5309    3.0388   -5.0286 H         1 <0>         0.1431
     69 H33       -12.9053    5.3899   -5.5532 H         1 <0>         0.1463
     70 H34       -13.4488    7.0290   -7.3079 H         1 <0>         0.1458
     71 H35       -13.0124    6.4939   -9.6714 H         1 <0>         0.1486
     72 H36       -12.0322    4.3193  -10.2810 H         1 <0>         0.1491
     73 H37        -1.7860   -0.7240    2.3591 H         1 <0>         0.1411
     74 H38        -2.3567    0.6760    3.2986 H         1 <0>         0.1431
     75 H39        -2.9834    0.4272    5.6414 H         1 <0>         0.1464
     76 H40        -2.6232   -0.8267    7.7292 H         1 <0>         0.1457
     77 H41        -1.7157   -3.1144    7.6515 H         1 <0>         0.1486
     78 H42        -1.1680   -4.1490    5.4857 H         1 <0>         0.1491
@<TRIPOS>BOND
     1    1    2 1
     2    1   37 1
     3    1   38 1
     4    1   39 1
     5    2    3 1
     6    2   40 1
     7    2   41 1
     8    3    4 1
     9    3    6 1
    10    3   29 1
    11    4    5 1
    12    4   42 1
    13    4   43 1
    14    5   44 1
    15    5   45 1
    16    5   46 1
    17    6    7 1
    18    6   47 1
    19    6   48 1
    20    7    8 1
    21    7   49 1
    22    7   50 1
    23    8    9 am
    24    8   51 1
    25    9   10 2
    26    9   11 1
    27   11   12 2
    28   11   13 am
    29   13   14 1
    30   13   52 1
    31   14   15 1
    32   14   53 1
    33   14   54 1
    34   15   16 1
    35   15   55 1
    36   15   56 1
    37   16   17 1
    38   16   19 1
    39   16   21 1
    40   17   18 1
    41   17   57 1
    42   17   58 1
    43   18   59 1
    44   18   60 1
    45   18   61 1
    46   19   20 1
    47   19   62 1
    48   19   63 1
    49   20   64 1
    50   20   65 1
    51   20   66 1
    52   21   22 1
    53   21   67 1
    54   21   68 1
    55   22   27 ar
    56   22   23 ar
    57   23   24 ar
    58   23   69 1
    59   24   25 ar
    60   24   70 1
    61   25   26 ar
    62   25   71 1
    63   26   27 ar
    64   26   72 1
    65   27   28 1
    66   29   30 1
    67   29   73 1
    68   29   74 1
    69   30   35 ar
    70   30   31 ar
    71   31   32 ar
    72   31   75 1
    73   32   33 ar
    74   32   76 1
    75   33   34 ar
    76   33   77 1
    77   34   35 ar
    78   34   78 1
    79   35   36 1
@<TRIPOS>MOLECULE
ZINC00004227
   47    49     0     0     0
SMALL
USER_CHARGES

@<TRIPOS>ATOM
      1 C1         -0.3864    1.2876   -1.8325 C.3       1 <0>        -0.1859
      2 C2         -0.3157   -0.2095   -2.1403 C.3       1 <0>        -0.0240
      3 N1          0.6186   -0.8571   -1.2097 N.4       1 <0>        -0.3832
      4 C3          0.0897   -0.7660    0.1577 C.3       1 <0>        -0.0204
      5 C4          1.1332   -1.2937    1.1443 C.3       1 <0>        -0.1883
      6 C5          0.7782   -2.2697   -1.5800 C.3       1 <0>        -0.0016
      7 H1          1.3799   -2.7771   -0.8260 H         1 <0>         0.1421
      8 C6         -0.5979   -2.9331   -1.6655 C.3       1 <0>        -0.1800
      9 C7          1.4757   -2.3652   -2.9383 C.3       1 <0>         0.0998
     10 N2          2.7748   -1.6917   -2.8686 N.pl3     1 <0>        -0.5905
     11 C8          2.8771   -0.3657   -3.3027 C.ar      1 <0>         0.1504
     12 C9          2.1619    0.0653   -4.4091 C.ar      1 <0>        -0.1519
     13 C10         2.2696    1.3782   -4.8336 C.ar      1 <0>        -0.0755
     14 C11         3.0873    2.2665   -4.1616 C.ar      1 <0>        -0.1184
     15 C12         3.8065    1.8466   -3.0545 C.ar      1 <0>        -0.0534
     16 C13         3.7022    0.5369   -2.6267 C.ar      1 <0>        -0.1559
     17 S1          4.6067   -0.0283   -1.2193 S.3       1 <0>         0.0092
     18 C14         4.8280   -1.7433   -1.5774 C.ar      1 <0>        -0.1482
     19 C15         3.8768   -2.3910   -2.3646 C.ar      1 <0>         0.1681
     20 C16         4.0390   -3.7383   -2.6468 C.ar      1 <0>        -0.1418
     21 C17         5.1328   -4.4229   -2.1464 C.ar      1 <0>        -0.0754
     22 C18         6.0682   -3.7723   -1.3648 C.ar      1 <0>        -0.1192
     23 C19         5.9194   -2.4329   -1.0851 C.ar      1 <0>        -0.0550
     24 H2         -0.7338    1.4322   -0.8095 H         1 <0>         0.0818
     25 H3          0.6037    1.7290   -1.9459 H         1 <0>         0.0783
     26 H4         -1.0796    1.7680   -2.5230 H         1 <0>         0.1082
     27 H5         -1.3058   -0.6509   -2.0269 H         1 <0>         0.1351
     28 H6          0.0317   -0.3541   -3.1633 H         1 <0>         0.1246
     29 H7         -0.1374    0.2743    0.3909 H         1 <0>         0.1328
     30 H8         -0.8191   -1.3627    0.2363 H         1 <0>         0.1322
     31 H9          0.7229   -1.2709    2.1539 H         1 <0>         0.1079
     32 H10         1.3957   -2.3186    0.8819 H         1 <0>         0.0772
     33 H11         2.0244   -0.6677    1.1001 H         1 <0>         0.0828
     34 H12        -1.1997   -2.4256   -2.4194 H         1 <0>         0.0854
     35 H13        -0.4795   -3.9812   -1.9402 H         1 <0>         0.1081
     36 H14        -1.0948   -2.8650   -0.6977 H         1 <0>         0.0881
     37 H15         1.6234   -3.4135   -3.1980 H         1 <0>         0.1245
     38 H16         0.8584   -1.8861   -3.6983 H         1 <0>         0.1070
     39 H17         1.5211   -0.6232   -4.9398 H         1 <0>         0.1331
     40 H18         1.7110    1.7105   -5.6961 H         1 <0>         0.1391
     41 H19         3.1660    3.2891   -4.5000 H         1 <0>         0.1408
     42 H20         4.4462    2.5397   -2.5284 H         1 <0>         0.1425
     43 H21         3.3119   -4.2538   -3.2567 H         1 <0>         0.1319
     44 H22         5.2558   -5.4727   -2.3680 H         1 <0>         0.1375
     45 H23         6.9190   -4.3140   -0.9786 H         1 <0>         0.1392
     46 H24         6.6510   -1.9255   -0.4738 H         1 <0>         0.1394
     47 H25         1.5139   -0.3941   -1.2556 H         1 <0>         0.4214
@<TRIPOS>BOND
     1    1    2 1
     2    1   24 1
     3    1   25 1
     4    1   26 1
     5    2    3 1
     6    2   27 1
     7    2   28 1
     8    3    4 1
     9    3    6 1
    10    3   47 1
    11    4    5 1
    12    4   29 1
    13    4   30 1
    14    5   31 1
    15    5   32 1
    16    5   33 1
    17    6    7 1
    18    6    8 1
    19    6    9 1
    20    8   34 1
    21    8   35 1
    22    8   36 1
    23    9   10 1
    24    9   37 1
    25    9   38 1
    26   10   19 1
    27   10   11 1
    28   11   16 ar
    29   11   12 ar
    30   12   13 ar
    31   12   39 1
    32   13   14 ar
    33   13   40 1
    34   14   15 ar
    35   14   41 1
    36   15   16 ar
    37   15   42 1
    38   16   17 1
    39   17   18 1
    40   18   23 ar
    41   18   19 ar
    42   19   20 ar
    43   20   21 ar
    44   20   43 1
    45   21   22 ar
    46   21   44 1
    47   22   23 ar
    48   22   45 1
    49   23   46 1
@<TRIPOS>MOLECULE
ZINC00056651
   47    49     0     0     0
SMALL
USER_CHARGES

@<TRIPOS>ATOM
      1 C1          1.1666    0.9115   -2.7285 C.3       1 <0>        -0.1835
      2 C2          0.5062   -0.4267   -2.3911 C.3       1 <0>        -0.0270
      3 N1          1.0642   -0.9452   -1.1350 N.4       1 <0>        -0.3752
      4 C3          0.6710   -0.0670   -0.0251 C.3       1 <0>        -0.0493
      5 C4          1.3831   -0.5116    1.2540 C.3       1 <0>        -0.1755
      6 C5          0.5503   -2.3000   -0.8933 C.3       1 <0>        -0.0010
      7 H1          0.6745   -2.5532    0.1596 H         1 <0>         0.1431
      8 C6          1.3252   -3.3004   -1.7533 C.3       1 <0>        -0.1782
      9 C7         -0.9342   -2.3552   -1.2593 C.3       1 <0>         0.0981
     10 N2         -1.7069   -1.5824   -0.2836 N.pl3     1 <0>        -0.5884
     11 C8         -1.7847   -2.0387    1.0366 C.ar      1 <0>         0.1667
     12 C9         -1.8783   -3.3957    1.3033 C.ar      1 <0>        -0.1429
     13 C10        -1.9567   -3.8394    2.6119 C.ar      1 <0>        -0.0749
     14 C11        -1.9425   -2.9379    3.6590 C.ar      1 <0>        -0.1193
     15 C12        -1.8491   -1.5794    3.4040 C.ar      1 <0>        -0.0539
     16 C13        -1.7704   -1.1314    2.0992 C.ar      1 <0>        -0.1520
     17 S1         -1.6508    0.5938    1.7422 S.3       1 <0>         0.0153
     18 C14        -2.4017    0.7016    0.1476 C.ar      1 <0>        -0.1603
     19 C15        -2.3413   -0.4060   -0.6971 C.ar      1 <0>         0.1614
     20 C16        -2.9232   -0.3294   -1.9528 C.ar      1 <0>        -0.1525
     21 C17        -3.5509    0.8370   -2.3540 C.ar      1 <0>        -0.0723
     22 C18        -3.6027    1.9301   -1.5104 C.ar      1 <0>        -0.1192
     23 C19        -3.0339    1.8610   -0.2590 C.ar      1 <0>        -0.0506
     24 H2          0.9764    1.6233   -1.9252 H         1 <0>         0.0797
     25 H3          2.2414    0.7683   -2.8402 H         1 <0>         0.0811
     26 H4          0.7525    1.2963   -3.6605 H         1 <0>         0.1056
     27 H5         -0.5686   -0.2835   -2.2794 H         1 <0>         0.1274
     28 H6          0.6964   -1.1385   -3.1943 H         1 <0>         0.1299
     29 H7          0.9504    0.9605   -0.2581 H         1 <0>         0.1263
     30 H8         -0.4077   -0.1261    0.1203 H         1 <0>         0.1564
     31 H9          1.1698    0.1974    2.0539 H         1 <0>         0.1057
     32 H10         1.0287   -1.5014    1.5419 H         1 <0>         0.0735
     33 H11         2.4581   -0.5477    1.0776 H         1 <0>         0.0750
     34 H12         1.2719   -2.9983   -2.7992 H         1 <0>         0.0822
     35 H13         2.3672   -3.3231   -1.4343 H         1 <0>         0.0886
     36 H14         0.8885   -4.2926   -1.6390 H         1 <0>         0.1078
     37 H15        -1.0791   -1.9331   -2.2538 H         1 <0>         0.1132
     38 H16        -1.2721   -3.3915   -1.2517 H         1 <0>         0.1161
     39 H17        -1.8905   -4.1064    0.4902 H         1 <0>         0.1322
     40 H18        -2.0297   -4.8974    2.8160 H         1 <0>         0.1379
     41 H19        -2.0048   -3.2927    4.6771 H         1 <0>         0.1396
     42 H20        -1.8381   -0.8736    4.2214 H         1 <0>         0.1408
     43 H21        -2.8865   -1.1794   -2.6180 H         1 <0>         0.1339
     44 H22        -4.0030    0.8934   -3.3333 H         1 <0>         0.1394
     45 H23        -4.0949    2.8363   -1.8312 H         1 <0>         0.1411
     46 H24        -3.0748    2.7160    0.3995 H         1 <0>         0.1417
     47 H25         2.0707   -0.9741   -1.2007 H         1 <0>         0.4165
@<TRIPOS>BOND
     1    1    2 1
     2    1   24 1
     3    1   25 1
     4    1   26 1
     5    2    3 1
     6    2   27 1
     7    2   28 1
     8    3    4 1
     9    3    6 1
    10    3   47 1
    11    4    5 1
    12    4   29 1
    13    4   30 1
    14    5   31 1
    15    5   32 1
    16    5   33 1
    17    6    7 1
    18    6    8 1
    19    6    9 1
    20    8   34 1
    21    8   35 1
    22    8   36 1
    23    9   10 1
    24    9   37 1
    25    9   38 1
    26   10   19 1
    27   10   11 1
    28   11   16 ar
    29   11   12 ar
    30   12   13 ar
    31   12   39 1
    32   13   14 ar
    33   13   40 1
    34   14   15 ar
    35   14   41 1
    36   15   16 ar
    37   15   42 1
    38   16   17 1
    39   17   18 1
    40   18   23 ar
    41   18   19 ar
    42   19   20 ar
    43   20   21 ar
    44   20   43 1
    45   21   22 ar
    46   21   44 1
    47   22   23 ar
    48   22   45 1
    49   23   46 1
@<TRIPOS>MOLECULE
ZINC00180806
   45    47     0     0     0
SMALL
USER_CHARGES
2-(3-azepan-1-ylcarbonylpropyl)isoindoline-1,3-dione
@<TRIPOS>ATOM
      1 C1          7.2037   -3.9672    0.6031 C.ar      1 <0>        -0.0946
      2 C2          7.1903   -3.9602   -0.7791 C.ar      1 <0>        -0.0946
      3 C3          6.0520   -3.5732   -1.4688 C.ar      1 <0>        -0.0440
      4 C4          4.9202   -3.1908   -0.7668 C.ar      1 <0>        -0.1415
      5 C5          4.9338   -3.1979    0.6426 C.ar      1 <0>        -0.1415
      6 C6          6.0790   -3.5872    1.3186 C.ar      1 <0>        -0.0439
      7 C7          3.5913   -2.7436    1.0623 C.2       1 <0>         0.5752
      8 O1          3.2121   -2.6171    2.2091 O.2       1 <0>        -0.4591
      9 N1          2.8597   -2.4937   -0.0386 N.am      1 <0>        -0.5758
     10 C8          3.5682   -2.7372   -1.1559 C.2       1 <0>         0.5752
     11 O2          3.1653   -2.6042   -2.2939 O.2       1 <0>        -0.4593
     12 C9          1.4720   -2.0242   -0.0229 C.3       1 <0>         0.1110
     13 C10         1.4513   -0.4944   -0.0145 C.3       1 <0>        -0.1227
     14 C11         0.0021   -0.0041    0.0020 C.3       1 <0>        -0.1370
     15 C12        -0.0184    1.5028    0.0103 C.2       1 <0>         0.5112
     16 O3          1.0236    2.1234    0.0037 O.2       1 <0>        -0.5378
     17 N2         -1.1946    2.1607    0.0195 N.am      1 <0>        -0.6055
     18 C13        -2.4189    1.3917    0.0152 C.3       1 <0>         0.1066
     19 C14        -2.8559    1.1077   -1.4372 C.3       1 <0>        -0.1395
     20 C15        -3.3412    2.3414   -2.0745 C.3       1 <0>        -0.1201
     21 C16        -2.2887    3.4385   -2.2027 C.3       1 <0>        -0.1176
     22 C17        -2.2357    4.2328   -0.9209 C.3       1 <0>        -0.1315
     23 C18        -1.1797    3.6367    0.0274 C.3       1 <0>         0.1101
     24 H1          8.0966   -4.2711    1.1292 H         1 <0>         0.1439
     25 H2          8.0728   -4.2588   -1.3254 H         1 <0>         0.1438
     26 H3          6.0471   -3.5700   -2.5488 H         1 <0>         0.1432
     27 H4          6.0952   -3.5942    2.3985 H         1 <0>         0.1433
     28 H5          0.9717   -2.3993    0.8699 H         1 <0>         0.0990
     29 H6          0.9547   -2.3897   -0.9099 H         1 <0>         0.0990
     30 H7          1.9516   -0.1193   -0.9073 H         1 <0>         0.0784
     31 H8          1.9686   -0.1289    0.8726 H         1 <0>         0.0787
     32 H9         -0.4983   -0.3791    0.8948 H         1 <0>         0.0992
     33 H10        -0.5153   -0.3696   -0.8850 H         1 <0>         0.0992
     34 H11        -2.2552    0.4458    0.5316 H         1 <0>         0.0812
     35 H12        -3.2016    1.9527    0.5257 H         1 <0>         0.0805
     36 H13        -3.6531    0.3643   -1.4366 H         1 <0>         0.0774
     37 H14        -2.0061    0.7212   -1.9998 H         1 <0>         0.0649
     38 H15        -4.1751    2.7285   -1.4890 H         1 <0>         0.0609
     39 H16        -3.7055    2.0932   -3.0714 H         1 <0>         0.0594
     40 H17        -2.5507    4.0990   -3.0292 H         1 <0>         0.0642
     41 H18        -1.3144    2.9879   -2.3919 H         1 <0>         0.0642
     42 H19        -3.2123    4.2048   -0.4377 H         1 <0>         0.0670
     43 H20        -1.9759    5.2669   -1.1470 H         1 <0>         0.0765
     44 H21        -1.3759    3.9871    1.0407 H         1 <0>         0.0632
     45 H22        -0.1931    3.9823   -0.2815 H         1 <0>         0.0897
@<TRIPOS>BOND
     1    1    6 ar
     2    1    2 ar
     3    1   24 1
     4    2    3 ar
     5    2   25 1
     6    3    4 ar
     7    3   26 1
     8    4   10 1
     9    4    5 ar
    10    5    6 ar
    11    5    7 1
    12    6   27 1
    13    7    8 2
    14    7    9 am
    15    9   10 am
    16    9   12 1
    17   10   11 2
    18   12   13 1
    19   12   28 1
    20   12   29 1
    21   13   14 1
    22   13   30 1
    23   13   31 1
    24   14   15 1
    25   14   32 1
    26   14   33 1
    27   15   16 2
    28   15   17 am
    29   17   23 1
    30   17   18 1
    31   18   19 1
    32   18   34 1
    33   18   35 1
    34   19   20 1
    35   19   36 1
    36   19   37 1
    37   20   21 1
    38   20   38 1
    39   20   39 1
    40   21   22 1
    41   21   40 1
    42   21   41 1
    43   22   23 1
    44   22   42 1
    45   22   43 1
    46   23   44 1
    47   23   45 1
@<TRIPOS>MOLECULE
ZINC02022527
   54    55     0     0     0
SMALL
USER_CHARGES

@<TRIPOS>ATOM
      1 C1         -3.0730    2.2881   -4.2693 C.3       1 <0>        -0.1569
      2 C2         -2.3049    1.5870   -3.1471 C.3       1 <0>        -0.1270
      3 C3         -2.8110    2.0874   -1.7927 C.3       1 <0>        -0.1231
      4 C4         -2.0429    1.3862   -0.6705 C.3       1 <0>        -0.1174
      5 C5         -2.5490    1.8867    0.6839 C.3       1 <0>        -0.1006
      6 C6         -2.2117    3.3722    0.8391 C.3       1 <0>        -0.1451
      7 C7         -2.6658    3.8518    2.2196 C.3       1 <0>        -0.0114
      8 C8         -2.3347    1.6429    3.1595 C.3       1 <0>        -0.0001
      9 C9         -1.8707    1.0973    1.8070 C.3       1 <0>        -0.1442
     10 C10        -2.2939    3.5901    4.5974 C.3       1 <0>        -0.0052
     11 C11        -2.1583    5.1140    4.5919 C.3       1 <0>        -0.1459
     12 C12        -2.4764    5.6593    5.9856 C.3       1 <0>        -0.1543
     13 C13        -2.3428    7.1604    5.9803 C.2       1 <0>         0.3987
     14 O1         -2.0245    7.7371    4.9623 O.2       1 <0>        -0.4456
     15 C14        -2.5986    7.9263    7.2106 C.ar      1 <0>        -0.1885
     16 C15        -3.0878    7.2813    8.3513 C.ar      1 <0>        -0.0705
     17 C16        -3.3195    8.0047    9.5018 C.ar      1 <0>        -0.1389
     18 C17        -3.0801    9.3679    9.5265 C.ar      1 <0>        -0.0729
     19 C18        -2.6016   10.0143    8.4004 C.ar      1 <0>        -0.1345
     20 C19        -2.3594    9.3036    7.2436 C.ar      1 <0>        -0.0178
     21 C20        -1.8387   10.0095    6.0182 C.3       1 <0>        -0.1264
     22 H1         -4.1363    2.0676   -4.1746 H         1 <0>         0.0549
     23 H2         -2.9175    3.3647   -4.1985 H         1 <0>         0.0540
     24 H3         -2.7125    1.9316   -5.2342 H         1 <0>         0.0581
     25 H4         -1.2417    1.8075   -3.2417 H         1 <0>         0.0621
     26 H5         -2.4605    0.5104   -3.2179 H         1 <0>         0.0631
     27 H6         -3.8743    1.8669   -1.6981 H         1 <0>         0.0644
     28 H7         -2.6555    3.1639   -1.7219 H         1 <0>         0.0632
     29 H8         -2.1984    0.3097   -0.7413 H         1 <0>         0.0733
     30 H9         -0.9796    1.6067   -0.7651 H         1 <0>         0.0688
     31 H10        -3.6287    1.7492    0.7427 H         1 <0>         0.0884
     32 H11        -1.1354    3.5132    0.7407 H         1 <0>         0.0881
     33 H12        -2.7264    3.9447    0.0675 H         1 <0>         0.1133
     34 H13        -3.7442    3.7233    2.3122 H         1 <0>         0.1295
     35 H14        -2.4142    4.9057    2.3388 H         1 <0>         0.1342
     36 H15        -3.4146    1.5248    3.2476 H         1 <0>         0.1293
     37 H16        -1.8426    1.0924    3.9613 H         1 <0>         0.1282
     38 H17        -2.1418    0.0446    1.7270 H         1 <0>         0.1118
     39 H18        -0.7890    1.2025    1.7239 H         1 <0>         0.0880
     40 H19        -3.3133    3.3170    4.8704 H         1 <0>         0.1315
     41 H20        -1.5979    3.1659    5.3211 H         1 <0>         0.1302
     42 H21        -1.1389    5.3871    4.3190 H         1 <0>         0.0944
     43 H22        -2.8542    5.5382    3.8682 H         1 <0>         0.0968
     44 H23        -3.4115    5.4088    6.2361 H         1 <0>         0.0981
     45 H24        -1.7805    5.2352    6.7093 H         1 <0>         0.1100
     46 H25        -3.2793    6.2186    8.3321 H         1 <0>         0.1290
     47 H26        -3.6933    7.5074   10.3846 H         1 <0>         0.1322
     48 H27        -3.2682    9.9300   10.4293 H         1 <0>         0.1326
     49 H28        -2.4176   11.0782    8.4274 H         1 <0>         0.1332
     50 H29        -2.6709   10.2515    5.3572 H         1 <0>         0.0784
     51 H30        -1.3321   10.9277    6.3156 H         1 <0>         0.0652
     52 H31        -1.1365    9.3600    5.4956 H         1 <0>         0.0893
     53 N1         -1.9588    3.0696    3.2558 N.4       1 <0>        -0.3931
     54 H32        -0.9467    3.1581    3.1071 H         1 <0>         0.4272
@<TRIPOS>BOND
     1    1    2 1
     2    1   22 1
     3    1   23 1
     4    1   24 1
     5    2    3 1
     6    2   25 1
     7    2   26 1
     8    3    4 1
     9    3   27 1
    10    3   28 1
    11    4    5 1
    12    4   29 1
    13    4   30 1
    14    5    9 1
    15    5    6 1
    16    5   31 1
    17    6    7 1
    18    6   32 1
    19    6   33 1
    20    7   34 1
    21    7   35 1
    22    7   53 1
    23    8    9 1
    24    8   36 1
    25    8   37 1
    26    8   53 1
    27    9   38 1
    28    9   39 1
    29   10   11 1
    30   10   40 1
    31   10   41 1
    32   10   53 1
    33   11   12 1
    34   11   42 1
    35   11   43 1
    36   12   13 1
    37   12   44 1
    38   12   45 1
    39   13   14 2
    40   13   15 1
    41   15   20 ar
    42   15   16 ar
    43   16   17 ar
    44   16   46 1
    45   17   18 ar
    46   17   47 1
    47   18   19 ar
    48   18   48 1
    49   19   20 ar
    50   19   49 1
    51   20   21 1
    52   21   50 1
    53   21   51 1
    54   21   52 1
    55   53   54 1
@<TRIPOS>MOLECULE
ZINC56897587
   55    59     0     0     0
SMALL
USER_CHARGES

@<TRIPOS>ATOM
      1 C1         -0.2070    1.7506    0.2131 C.3       1 <0>        -0.1302
      2 C2         -0.0784    0.2306    0.0956 C.3       1 <0>        -0.0265
      3 C3          0.7109   -0.1935   -1.1625 C.3       1 <0>        -0.1105
      4 C4          2.1236   -0.4922   -0.6009 C.3       1 <0>         0.0408
      5 N1          1.8402   -1.1279    0.7107 N.3       1 <0>        -0.5326
      6 C5          0.6940   -0.3879    1.2827 C.3       1 <0>         0.2997
      7 H1          1.0301    0.3752    1.9847 H         1 <0>         0.0780
      8 N2         -0.2470   -1.3286    1.8966 N.pl3     1 <0>        -0.6086
      9 C6         -1.4486   -1.3452    1.1829 C.ar      1 <0>         0.2143
     10 C7         -1.4219   -0.4602    0.1166 C.ar      1 <0>        -0.1450
     11 C8         -2.5185   -0.3308   -0.7141 C.ar      1 <0>        -0.0515
     12 C9         -3.6583   -1.0869   -0.4856 C.ar      1 <0>         0.0449
     13 C10        -3.6932   -1.9732    0.5804 C.ar      1 <0>        -0.0631
     14 C11        -2.5994   -2.1028    1.4093 C.ar      1 <0>        -0.1667
     15 O1         -4.7377   -0.9594   -1.3033 O.3       1 <0>        -0.2979
     16 C12        -4.6386   -1.4340   -2.5596 C.2       1 <0>         0.6487
     17 O2         -3.6490   -2.0519   -2.8994 O.2       1 <0>        -0.5519
     18 N3         -5.6371   -1.2237   -3.4400 N.am      1 <0>        -0.5941
     19 C13        -5.5623   -1.7345   -4.8188 C.3       1 <0>         0.1282
     20 C14        -6.6778   -2.7628   -4.9999 C.3       1 <0>        -0.0999
     21 C15        -7.9867   -2.2314   -4.4778 C.ar      1 <0>        -0.0708
     22 C16        -9.1540   -2.8310   -4.9352 C.ar      1 <0>        -0.1186
     23 C17       -10.3857   -2.3991   -4.4898 C.ar      1 <0>        -0.1161
     24 C18       -10.4626   -1.3617   -3.5790 C.ar      1 <0>        -0.1191
     25 C19        -9.3055   -0.7624   -3.1258 C.ar      1 <0>        -0.1112
     26 C20        -8.0653   -1.1924   -3.5780 C.ar      1 <0>        -0.0985
     27 C21        -6.8446   -0.4819   -3.0612 C.3       1 <0>         0.1532
     28 C22         0.0318   -2.1361    3.0867 C.3       1 <0>         0.1098
     29 C23         3.0100   -1.0527    1.5960 C.3       1 <0>         0.0157
     30 H2          0.7865    2.1984    0.2385 H         1 <0>         0.0609
     31 H3         -0.7574    2.1361   -0.6452 H         1 <0>         0.0678
     32 H4         -0.7416    2.0003    1.1296 H         1 <0>         0.0624
     33 H5          0.2757   -1.0882   -1.6075 H         1 <0>         0.0832
     34 H6          0.7480    0.6201   -1.8870 H         1 <0>         0.0801
     35 H7          2.6597   -1.1806   -1.2542 H         1 <0>         0.0879
     36 H8          2.6876    0.4309   -0.4671 H         1 <0>         0.0507
     37 H9         -2.4879    0.3609   -1.5430 H         1 <0>         0.1226
     38 H10        -4.5795   -2.5630    0.7619 H         1 <0>         0.1318
     39 H11        -2.6327   -2.7942    2.2383 H         1 <0>         0.1268
     40 H12        -5.6987   -0.9145   -5.5239 H         1 <0>         0.0823
     41 H13        -4.5944   -2.2074   -4.9849 H         1 <0>         0.1039
     42 H14        -6.7825   -2.9954   -6.0596 H         1 <0>         0.0921
     43 H15        -6.4184   -3.6723   -4.4580 H         1 <0>         0.0832
     44 H16        -9.0962   -3.6421   -5.6459 H         1 <0>         0.1229
     45 H17       -11.2878   -2.8698   -4.8517 H         1 <0>         0.1236
     46 H18       -11.4242   -1.0222   -3.2236 H         1 <0>         0.1249
     47 H19        -9.3650    0.0478   -2.4141 H         1 <0>         0.1255
     48 H20        -6.9002   -0.4099   -1.9750 H         1 <0>         0.1033
     49 H21        -6.8039    0.5199   -3.4889 H         1 <0>         0.0850
     50 H22        -0.2631   -1.5829    3.9784 H         1 <0>         0.0490
     51 H23        -0.5318   -3.0675    3.0340 H         1 <0>         0.0676
     52 H24         1.0979   -2.3586    3.1332 H         1 <0>         0.0698
     53 H25         3.2711   -0.0080    1.7652 H         1 <0>         0.0310
     54 H26         2.7758   -1.5275    2.5487 H         1 <0>         0.0681
     55 H27         3.8513   -1.5666    1.1309 H         1 <0>         0.0734
@<TRIPOS>BOND
     1    1    2 1
     2    1   30 1
     3    1   31 1
     4    1   32 1
     5    2    6 1
     6    2   10 1
     7    2    3 1
     8    3    4 1
     9    3   33 1
    10    3   34 1
    11    4    5 1
    12    4   35 1
    13    4   36 1
    14    5    6 1
    15    5   29 1
    16    6    7 1
    17    6    8 1
    18    8    9 1
    19    8   28 1
    20    9   14 ar
    21    9   10 ar
    22   10   11 ar
    23   11   12 ar
    24   11   37 1
    25   12   13 ar
    26   12   15 1
    27   13   14 ar
    28   13   38 1
    29   14   39 1
    30   15   16 1
    31   16   17 2
    32   16   18 am
    33   18   27 1
    34   18   19 1
    35   19   20 1
    36   19   40 1
    37   19   41 1
    38   20   21 1
    39   20   42 1
    40   20   43 1
    41   21   26 ar
    42   21   22 ar
    43   22   23 ar
    44   22   44 1
    45   23   24 ar
    46   23   45 1
    47   24   25 ar
    48   24   46 1
    49   25   26 ar
    50   25   47 1
    51   26   27 1
    52   27   48 1
    53   27   49 1
    54   28   50 1
    55   28   51 1
    56   28   52 1
    57   29   53 1
    58   29   54 1
    59   29   55 1
@<TRIPOS>MOLECULE
ZINC64541014
   43    45     0     0     0
SMALL
USER_CHARGES

@<TRIPOS>ATOM
      1 C1         -2.5623   -0.3429   -2.1872 C.3       1 <0>        -0.1548
      2 C2         -1.0440   -0.5051   -2.0909 C.3       1 <0>        -0.1599
      3 C3         -0.7157   -1.8070   -1.3571 C.3       1 <0>         0.1344
      4 N1          0.7381   -1.9623   -1.2648 N.pl3     1 <0>        -0.7942
      5 C4          1.4282   -2.6373   -2.2613 C.ar      1 <0>         0.3370
      6 C5          1.8499   -1.9655   -3.4306 C.ar      1 <0>        -0.0629
      7 C6          1.5903   -0.6030   -3.6283 C.ar      1 <0>        -0.1158
      8 C7          2.0186    0.0062   -4.7746 C.ar      1 <0>         0.1475
      9 C8          2.7115   -0.7160   -5.7496 C.ar      1 <0>        -0.1137
     10 C9          2.9771   -2.0400   -5.5841 C.ar      1 <0>        -0.1027
     11 C10         2.5507   -2.6988   -4.4175 C.ar      1 <0>         0.1145
     12 N2          2.7938   -3.9973   -4.2288 N.ar      1 <0>        -0.4673
     13 C11         2.4062   -4.6437   -3.1429 C.ar      1 <0>         0.2412
     14 C12         1.7261   -3.9895   -2.1297 C.ar      1 <0>        -0.1369
     15 C13         1.2841   -4.6799   -0.8666 C.3       1 <0>        -0.0721
     16 C14         1.2925   -6.1959   -1.0520 C.3       1 <0>        -0.1319
     17 C15         2.6574   -6.6050   -1.6179 C.3       1 <0>        -0.1210
     18 C16         2.7406   -6.1129   -3.0646 C.3       1 <0>        -0.1117
     19 O1          1.7675    1.3281   -4.9681 O.3       1 <0>        -0.2992
     20 C17         2.2407    1.9068   -6.1860 C.3       1 <0>         0.0156
     21 H1         -2.9836   -1.1853   -2.7358 H         1 <0>         0.0557
     22 H2         -2.9888   -0.3123   -1.1846 H         1 <0>         0.0610
     23 H3         -2.7961    0.5846   -2.7100 H         1 <0>         0.0622
     24 H4         -0.6175   -0.5357   -3.0935 H         1 <0>         0.0668
     25 H5         -0.6226    0.3373   -1.5423 H         1 <0>         0.0723
     26 H6         -1.1422   -1.7764   -0.3545 H         1 <0>         0.0915
     27 H7         -1.1371   -2.6494   -1.9057 H         1 <0>         0.0703
     28 H8          1.2182   -1.5933   -0.5071 H         1 <0>         0.4189
     29 H9          1.0549   -0.0376   -2.8799 H         1 <0>         0.1714
     30 H10         3.0408   -0.2158   -6.6483 H         1 <0>         0.1607
     31 H11         3.5139   -2.5838   -6.3474 H         1 <0>         0.1605
     32 H12         1.9616   -4.4132   -0.0554 H         1 <0>         0.0966
     33 H13         0.2752   -4.3543   -0.6132 H         1 <0>         0.0984
     34 H14         1.1321   -6.6844   -0.0908 H         1 <0>         0.0910
     35 H15         0.5048   -6.4852   -1.7476 H         1 <0>         0.0752
     36 H16         3.4511   -6.1527   -1.0232 H         1 <0>         0.0817
     37 H17         2.7525   -7.6906   -1.5963 H         1 <0>         0.0964
     38 H18         2.0434   -6.6738   -3.6870 H         1 <0>         0.1224
     39 H19         3.7551   -6.2706   -3.4307 H         1 <0>         0.1106
     40 H20         1.7841    1.3948   -7.0331 H         1 <0>         0.0658
     41 H21         1.9746    2.9634   -6.2136 H         1 <0>         0.1168
     42 H22         3.3245    1.8035   -6.2403 H         1 <0>         0.0659
     43 H23         3.2735   -4.4861   -4.9157 H         1 <0>         0.4415
@<TRIPOS>BOND
     1    1    2 1
     2    1   21 1
     3    1   22 1
     4    1   23 1
     5    2    3 1
     6    2   24 1
     7    2   25 1
     8    3    4 1
     9    3   26 1
    10    3   27 1
    11    4    5 1
    12    4   28 1
    13    5   14 ar
    14    5    6 ar
    15    6   11 ar
    16    6    7 ar
    17    7    8 ar
    18    7   29 1
    19    8    9 ar
    20    8   19 1
    21    9   10 ar
    22    9   30 1
    23   10   11 ar
    24   10   31 1
    25   11   12 ar
    26   12   13 ar
    27   12   43 1
    28   13   18 1
    29   13   14 ar
    30   14   15 1
    31   15   16 1
    32   15   32 1
    33   15   33 1
    34   16   17 1
    35   16   34 1
    36   16   35 1
    37   17   18 1
    38   17   36 1
    39   17   37 1
    40   18   38 1
    41   18   39 1
    42   19   20 1
    43   20   40 1
    44   20   41 1
    45   20   42 1
@<TRIPOS>MOLECULE
ZINC01552001
   57    59     0     0     0
SMALL
USER_CHARGES

@<TRIPOS>ATOM
      1 C1         -0.0167    1.3784    0.0096 C.ar      1 <0>        -0.0525
      2 C2          1.1695    2.0865    0.0021 C.ar      1 <0>        -0.1434
      3 C3          2.3802    1.4093   -0.0131 C.ar      1 <0>         0.1609
      4 C4          2.3963    0.0221   -0.0206 C.ar      1 <0>        -0.2065
      5 C5          1.2074   -0.6814   -0.0130 C.ar      1 <0>        -0.0488
      6 C6          0.0021   -0.0041    0.0020 C.ar      1 <0>        -0.1921
      7 C7         -1.2934   -0.7740    0.0107 C.3       1 <0>         0.0458
      8 N1         -1.7280   -1.0167   -1.3714 N.4       1 <0>        -0.3814
      9 C8         -2.0325    0.2647   -2.0192 C.3       1 <0>        -0.0128
     10 C9         -2.4078    0.0241   -3.4830 C.3       1 <0>        -0.1444
     11 C10        -3.6375   -0.8864   -3.5460 C.3       1 <0>        -0.1403
     12 C11        -3.3334   -2.1905   -2.8029 C.3       1 <0>        -0.1462
     13 C12        -2.9239   -1.8678   -1.3643 C.3       1 <0>        -0.0078
     14 O1          3.5484    2.1036   -0.0209 O.3       1 <0>        -0.3055
     15 C13         4.7565    1.3405   -0.0365 C.3       1 <0>         0.0607
     16 C14         5.9580    2.2878   -0.0434 C.3       1 <0>        -0.1528
     17 C15         7.2515    1.4708   -0.0601 C.3       1 <0>        -0.0055
     18 N2          8.4050    2.3803   -0.0667 N.4       1 <0>        -0.3819
     19 C16         8.4087    3.1544   -1.3138 C.3       1 <0>        -0.0131
     20 C17         9.5614    4.1604   -1.2907 C.3       1 <0>        -0.1466
     21 C18        10.8871    3.4064   -1.1522 C.3       1 <0>        -0.1407
     22 C19        10.8433    2.5449    0.1131 C.3       1 <0>        -0.1472
     23 C20         9.6430    1.5987    0.0380 C.3       1 <0>        -0.0064
     24 H1         -0.9594    1.9052    0.0259 H         1 <0>         0.1422
     25 H2          1.1543    3.1664    0.0076 H         1 <0>         0.1458
     26 H3          3.3375   -0.5074   -0.0328 H         1 <0>         0.1380
     27 H4          1.2194   -1.7613   -0.0189 H         1 <0>         0.1370
     28 H5         -1.1460   -1.7274    0.5180 H         1 <0>         0.1373
     29 H6         -2.0553   -0.1973    0.5352 H         1 <0>         0.1367
     30 H7         -2.8662    0.7424   -1.5046 H         1 <0>         0.1290
     31 H8         -1.1574    0.9128   -1.9707 H         1 <0>         0.1277
     32 H9         -2.6352    0.9766   -3.9617 H         1 <0>         0.1115
     33 H10        -1.5745   -0.4533   -3.9986 H         1 <0>         0.0853
     34 H11        -4.4847   -0.3877   -3.0754 H         1 <0>         0.0831
     35 H12        -3.8749   -1.1067   -4.5868 H         1 <0>         0.0951
     36 H13        -4.2225   -2.8210   -2.7956 H         1 <0>         0.1140
     37 H14        -2.5194   -2.7139   -3.3044 H         1 <0>         0.0866
     38 H15        -2.7069   -2.7941   -0.8324 H         1 <0>         0.1308
     39 H16        -3.7386   -1.3447   -0.8637 H         1 <0>         0.1300
     40 H17         4.7979    0.7076    0.8500 H         1 <0>         0.0782
     41 H18         4.7806    0.7165   -0.9299 H         1 <0>         0.0770
     42 H19         5.9165    2.9207   -0.9299 H         1 <0>         0.1016
     43 H20         5.9338    2.9118    0.8500 H         1 <0>         0.1022
     44 H21         7.2929    0.8379    0.8264 H         1 <0>         0.1354
     45 H22         7.2756    0.8468   -0.9535 H         1 <0>         0.1333
     46 H23         8.5337    2.4787   -2.1600 H         1 <0>         0.1295
     47 H24         7.4633    3.6879   -1.4126 H         1 <0>         0.1304
     48 H25         9.5635    4.7330   -2.2183 H         1 <0>         0.1137
     49 H26         9.4373    4.8368   -0.4450 H         1 <0>         0.0887
     50 H27        11.0360    2.7679   -2.0230 H         1 <0>         0.0825
     51 H28        11.7069    4.1210   -1.0784 H         1 <0>         0.0968
     52 H29        11.7616    1.9626    0.1890 H         1 <0>         0.1149
     53 H30        10.7458    3.1878    0.9880 H         1 <0>         0.0889
     54 H31         9.6089    0.9837    0.9373 H         1 <0>         0.1313
     55 H32         9.7417    0.9562   -0.8370 H         1 <0>         0.1295
     56 H33        -0.9893   -1.4806   -1.8786 H         1 <0>         0.4200
     57 H34         8.3393    3.0110    0.7181 H         1 <0>         0.4246
@<TRIPOS>BOND
     1    1    6 ar
     2    1    2 ar
     3    1   24 1
     4    2    3 ar
     5    2   25 1
     6    3    4 ar
     7    3   14 1
     8    4    5 ar
     9    4   26 1
    10    5    6 ar
    11    5   27 1
    12    6    7 1
    13    7    8 1
    14    7   28 1
    15    7   29 1
    16    8   13 1
    17    8    9 1
    18    8   56 1
    19    9   10 1
    20    9   30 1
    21    9   31 1
    22   10   11 1
    23   10   32 1
    24   10   33 1
    25   11   12 1
    26   11   34 1
    27   11   35 1
    28   12   13 1
    29   12   36 1
    30   12   37 1
    31   13   38 1
    32   13   39 1
    33   14   15 1
    34   15   16 1
    35   15   40 1
    36   15   41 1
    37   16   17 1
    38   16   42 1
    39   16   43 1
    40   17   18 1
    41   17   44 1
    42   17   45 1
    43   18   23 1
    44   18   19 1
    45   18   57 1
    46   19   20 1
    47   19   46 1
    48   19   47 1
    49   20   21 1
    50   20   48 1
    51   20   49 1
    52   21   22 1
    53   21   50 1
    54   21   51 1
    55   22   23 1
    56   22   52 1
    57   22   53 1
    58   23   54 1
    59   23   55 1
@<TRIPOS>MOLECULE
ZINC53022004
   57    60     0     0     0
SMALL
USER_CHARGES

@<TRIPOS>ATOM
      1 C1         -6.5759   -6.7397    6.4771 C.3       1 <0>        -0.1459
      2 C2         -5.6654   -5.5161    6.3560 C.3       1 <0>        -0.0559
      3 C3         -4.2048   -5.9524    6.4863 C.3       1 <0>        -0.1454
      4 C4         -5.8769   -4.8633    5.0143 C.ar      1 <0>        -0.0905
      5 C5         -5.6410   -5.5783    3.8544 C.ar      1 <0>        -0.0916
      6 C6         -5.8339   -4.9829    2.6232 C.ar      1 <0>        -0.1249
      7 C7         -6.2653   -3.6649    2.5508 C.ar      1 <0>         0.1539
      8 C8         -6.5013   -2.9497    3.7175 C.ar      1 <0>        -0.1415
      9 C9         -6.3119   -3.5525    4.9456 C.ar      1 <0>        -0.0951
     10 N1         -6.4612   -3.0586    1.3049 N.am      1 <0>        -0.6456
     11 C10        -6.7557   -3.8128    0.2273 C.2       1 <0>         0.6418
     12 O1         -6.9596   -5.0038    0.3566 O.2       1 <0>        -0.5338
     13 O2         -6.8241   -3.2464   -0.9925 O.3       1 <0>        -0.2947
     14 C11        -7.2270   -4.0217   -2.0347 C.ar      1 <0>         0.0496
     15 C12        -6.3470   -4.3153   -3.0658 C.ar      1 <0>        -0.0665
     16 C13        -6.7555   -5.1000   -4.1234 C.ar      1 <0>        -0.1616
     17 C14        -8.0512   -5.6126   -4.1624 C.ar      1 <0>         0.1991
     18 C15        -8.9279   -5.3113   -3.1282 C.ar      1 <0>        -0.1393
     19 C16        -8.5198   -4.5218   -2.0713 C.ar      1 <0>        -0.0551
     20 C17       -10.2530   -5.9756   -3.4216 C.3       1 <0>        -0.0358
     21 C18       -10.6179   -6.9191   -2.2503 C.3       1 <0>        -0.1104
     22 C19        -9.6556   -8.1083   -2.5226 C.3       1 <0>         0.0431
     23 N2         -9.7712   -8.2804   -3.9937 N.3       1 <0>        -0.5449
     24 C20        -9.9210   -6.9480   -4.5883 C.3       1 <0>         0.3105
     25 H1        -10.7175   -6.9280   -5.3382 H         1 <0>         0.1113
     26 N3         -8.6775   -6.4059   -5.1322 N.pl3     1 <0>        -0.6392
     27 C21        -8.1768   -6.5968   -6.4961 C.3       1 <0>         0.1072
     28 C22        -8.6737   -9.0786   -4.5288 C.3       1 <0>         0.0376
     29 C23       -11.3626   -4.9911   -3.7674 C.3       1 <0>        -0.1254
     30 H2         -6.4229   -7.2118    7.4475 H         1 <0>         0.0585
     31 H3         -7.6165   -6.4289    6.3842 H         1 <0>         0.0561
     32 H4         -6.3369   -7.4501    5.6857 H         1 <0>         0.0569
     33 H5         -5.9044   -4.8056    7.1474 H         1 <0>         0.0777
     34 H6         -3.9658   -6.6628    5.6949 H         1 <0>         0.0567
     35 H7         -3.5561   -5.0806    6.4001 H         1 <0>         0.0561
     36 H8         -4.0518   -6.4245    7.4568 H         1 <0>         0.0585
     37 H9         -5.3052   -6.6032    3.9113 H         1 <0>         0.1256
     38 H10        -5.6492   -5.5417    1.7176 H         1 <0>         0.1432
     39 H11        -6.8365   -1.9244    3.6645 H         1 <0>         0.1280
     40 H12        -6.4995   -2.9982    5.8533 H         1 <0>         0.1279
     41 H13        -6.3851   -2.0957    1.2167 H         1 <0>         0.4187
     42 H14        -5.3388   -3.9289   -3.0408 H         1 <0>         0.1341
     43 H15        -6.0613   -5.3164   -4.9225 H         1 <0>         0.1273
     44 H16        -9.2076   -4.2931   -1.2704 H         1 <0>         0.1240
     45 H17       -10.3984   -6.4555   -1.2928 H         1 <0>         0.0794
     46 H18       -11.6545   -7.2376   -2.3152 H         1 <0>         0.0844
     47 H19        -8.6372   -7.8507   -2.2402 H         1 <0>         0.0490
     48 H20        -9.9936   -9.0010   -2.0001 H         1 <0>         0.0848
     49 H21        -7.2546   -6.0307   -6.6271 H         1 <0>         0.0733
     50 H22        -7.9805   -7.6555   -6.6662 H         1 <0>         0.0557
     51 H23        -8.9227   -6.2464   -7.2094 H         1 <0>         0.0589
     52 H24        -8.6810  -10.0643   -4.0636 H         1 <0>         0.0691
     53 H25        -8.7937   -9.1847   -5.6069 H         1 <0>         0.0652
     54 H26        -7.7265   -8.5832   -4.3156 H         1 <0>         0.0284
     55 H27       -11.0723   -4.4090   -4.6421 H         1 <0>         0.0600
     56 H28       -12.2799   -5.5388   -3.9836 H         1 <0>         0.0670
     57 H29       -11.5297   -4.3210   -2.9241 H         1 <0>         0.0644
@<TRIPOS>BOND
     1    1    2 1
     2    1   30 1
     3    1   31 1
     4    1   32 1
     5    2    3 1
     6    2    4 1
     7    2   33 1
     8    3   34 1
     9    3   35 1
    10    3   36 1
    11    4    9 ar
    12    4    5 ar
    13    5    6 ar
    14    5   37 1
    15    6    7 ar
    16    6   38 1
    17    7    8 ar
    18    7   10 1
    19    8    9 ar
    20    8   39 1
    21    9   40 1
    22   10   11 am
    23   10   41 1
    24   11   12 2
    25   11   13 1
    26   13   14 1
    27   14   19 ar
    28   14   15 ar
    29   15   16 ar
    30   15   42 1
    31   16   17 ar
    32   16   43 1
    33   17   26 1
    34   17   18 ar
    35   18   19 ar
    36   18   20 1
    37   19   44 1
    38   20   24 1
    39   20   21 1
    40   20   29 1
    41   21   22 1
    42   21   45 1
    43   21   46 1
    44   22   23 1
    45   22   47 1
    46   22   48 1
    47   23   24 1
    48   23   28 1
    49   24   25 1
    50   24   26 1
    51   26   27 1
    52   27   49 1
    53   27   50 1
    54   27   51 1
    55   28   52 1
    56   28   53 1
    57   28   54 1
    58   29   55 1
    59   29   56 1
    60   29   57 1
@<TRIPOS>MOLECULE
ZINC00115374
   32    33     0     0     0
SMALL
USER_CHARGES
3-(4-chlorophenyl)-N,N-dimethyl-5-methylsulfanyl-1,2,4-triazole-1-carboxamide
@<TRIPOS>ATOM
      1 C1          1.3711    5.3651   -0.4348 C.3       1 <0>         0.0990
      2 N1          0.8821    4.0287   -0.0868 N.am      1 <0>        -0.6023
      3 C2         -0.5572    3.7556   -0.0743 C.3       1 <0>         0.0634
      4 C3          1.7563    3.0504    0.2218 C.2       1 <0>         0.7213
      5 O1          2.9458    3.2932    0.2751 O.2       1 <0>        -0.5219
      6 N2          1.3113    1.8030    0.4713 N.am      1 <0>        -0.3649
      7 C4          2.0721    0.6918    0.6949 C.2       1 <0>         0.2997
      8 N3          1.2571   -0.3196    0.8961 N.2       1 <0>        -0.5200
      9 C5         -0.0146    0.0996    0.8103 C.2       1 <0>         0.3006
     10 N4         -0.0275    1.3870    0.5526 N.2       1 <0>        -0.2954
     11 C6         -1.2151   -0.7555    0.9797 C.ar      1 <0>        -0.0217
     12 C7         -2.4891   -0.2009    0.8728 C.ar      1 <0>        -0.0660
     13 C8         -3.6026   -1.0014    1.0264 C.ar      1 <0>        -0.1138
     14 C9         -3.4556   -2.3512    1.2968 C.ar      1 <0>        -0.0154
     15 C10        -2.1920   -2.9058    1.4093 C.ar      1 <0>        -0.1142
     16 C11        -1.0724   -2.1147    1.2521 C.ar      1 <0>        -0.0574
     17 Cl1        -4.8603   -3.3518    1.4951 Cl        1 <0>        -0.0600
     18 S1          3.8327    0.6253    0.7108 S.3       1 <0>         0.0946
     19 C12         4.0776   -1.1330    1.0640 C.3       1 <0>        -0.1722
     20 H1          2.0137    5.2996   -1.3128 H         1 <0>         0.0686
     21 H2          0.5246    6.0166   -0.6519 H         1 <0>         0.0865
     22 H3          1.9387    5.7734    0.4014 H         1 <0>         0.0695
     23 H4         -0.9376    3.8578    0.9421 H         1 <0>         0.0613
     24 H5         -1.0673    4.4648   -0.7262 H         1 <0>         0.0745
     25 H6         -0.7376    2.7410   -0.4294 H         1 <0>         0.1062
     26 H7         -2.6048    0.8527    0.6658 H         1 <0>         0.1419
     27 H8         -4.5903   -0.5734    0.9393 H         1 <0>         0.1426
     28 H9         -2.0825   -3.9592    1.6207 H         1 <0>         0.1427
     29 H10        -0.0871   -2.5482    1.3403 H         1 <0>         0.1462
     30 H11         3.6164   -1.3791    2.0204 H         1 <0>         0.0957
     31 H12         3.6189   -1.7293    0.2752 H         1 <0>         0.0953
     32 H13         5.1450   -1.3493    1.1090 H         1 <0>         0.1155
@<TRIPOS>BOND
     1    1    2 1
     2    1   20 1
     3    1   21 1
     4    1   22 1
     5    2    3 1
     6    2    4 am
     7    3   23 1
     8    3   24 1
     9    3   25 1
    10    4    5 2
    11    4    6 am
    12    6   10 1
    13    6    7 1
    14    7    8 2
    15    7   18 1
    16    8    9 1
    17    9   10 2
    18    9   11 1
    19   11   16 ar
    20   11   12 ar
    21   12   13 ar
    22   12   26 1
    23   13   14 ar
    24   13   27 1
    25   14   15 ar
    26   14   17 1
    27   15   16 ar
    28   15   28 1
    29   16   29 1
    30   18   19 1
    31   19   30 1
    32   19   31 1
    33   19   32 1
@<TRIPOS>MOLECULE
ZINC27330748
   26    28     0     0     0
SMALL
USER_CHARGES
BLAHamine
@<TRIPOS>ATOM
      1 C1          1.2262   -2.0953   -0.0198 C.ar      1 <0>        -0.1218
      2 C2          0.0229   -2.7391   -0.0143 C.ar      1 <0>         0.0499
      3 N1         -1.1215   -2.0728   -0.0018 N.ar      1 <0>        -0.4580
      4 C3         -1.1812   -0.7617    0.0071 C.ar      1 <0>         0.1423
      5 C4          0.0021   -0.0041    0.0020 C.ar      1 <0>         0.1522
      6 C5          1.2389   -0.6939   -0.0118 C.ar      1 <0>        -0.1533
      7 C6          2.4398    0.0525   -0.0160 C.ar      1 <0>         0.3086
      8 C7          2.3486    1.4348   -0.0062 C.ar      1 <0>        -0.2944
      9 C8          1.0967    2.0478    0.0026 C.ar      1 <0>         0.4056
     10 N2         -0.0160    1.3304    0.0094 N.ar      1 <0>        -0.5319
     11 O1          0.9744    3.4005   -0.0006 O.3       1 <0>        -0.2999
     12 C9          2.1134    4.1758    0.3722 C.3       1 <0>         0.0627
     13 C10         3.3230    3.6796   -0.4300 C.3       1 <0>        -0.1602
     14 C11         3.6226    2.2400   -0.0018 C.3       1 <0>        -0.0627
     15 N3          3.6736   -0.5810   -0.0300 N.pl3     1 <0>        -0.8657
     16 H1          2.1501   -2.6545   -0.0305 H         1 <0>         0.1313
     17 H2          0.0034   -3.8189   -0.0206 H         1 <0>         0.1565
     18 H3         -2.1402   -0.2651    0.0180 H         1 <0>         0.1734
     19 H4          1.9241    5.2362    0.1491 H         1 <0>         0.1180
     20 H5          2.3021    4.0558    1.4492 H         1 <0>         0.0698
     21 H6          3.0894    3.7138   -1.5044 H         1 <0>         0.0813
     22 H7          4.1900    4.3241   -0.2226 H         1 <0>         0.0909
     23 H8          4.0516    2.2420    1.0111 H         1 <0>         0.0757
     24 H9          4.3417    1.7924   -0.7036 H         1 <0>         0.0756
     25 H10         4.5980    0.0152   -0.0331 H         1 <0>         0.4285
     26 H11         3.7277   -1.6796   -0.0380 H         1 <0>         0.4256
@<TRIPOS>BOND
     1    1    6 ar
     2    1    2 ar
     3    1   16 1
     4    2    3 ar
     5    2   17 1
     6    3    4 ar
     7    4    5 ar
     8    4   18 1
     9    5   10 ar
    10    5    6 ar
    11    6    7 ar
    12    7    8 ar
    13    7   15 1
    14    8   14 1
    15    8    9 ar
    16    9   10 ar
    17    9   11 1
    18   11   12 1
    19   12   13 1
    20   12   19 1
    21   12   20 1
    22   13   14 1
    23   13   21 1
    24   13   22 1
    25   14   23 1
    26   14   24 1
    27   15   25 1
    28   15   26 1
@<TRIPOS>MOLECULE
ZINC27330751
   29    31     0     0     0
SMALL
USER_CHARGES
6,7,8,9-tetrahydropyrido[3,4-b]quinolin-5-amine
@<TRIPOS>ATOM
      1 C1         -2.5011    4.2600    0.0516 C.ar      1 <0>        -0.1052
      2 C2         -2.4443    5.6230    0.0605 C.ar      1 <0>         0.0928
      3 N1         -1.2889    6.2708    0.0562 N.ar      1 <0>        -0.4187
      4 C3         -0.1291    5.6573    0.0430 C.ar      1 <0>         0.1208
      5 C4         -0.0769    4.2528    0.0320 C.ar      1 <0>         0.1223
      6 C5         -1.2998    3.5372    0.0368 C.ar      1 <0>        -0.1085
      7 C6         -1.2614    2.1268    0.0315 C.ar      1 <0>         0.3593
      8 C7         -0.0183    1.5015    0.0103 C.ar      1 <0>        -0.2137
      9 C8          1.1357    2.2673    0.0034 C.ar      1 <0>         0.2706
     10 N2          1.0775    3.5883    0.0168 N.ar      1 <0>        -0.5249
     11 C9          2.5099    1.6446   -0.0234 C.3       1 <0>        -0.1131
     12 C10         2.4444    0.1787    0.3980 C.3       1 <0>        -0.1232
     13 C11         1.3692   -0.5200   -0.4426 C.3       1 <0>        -0.1282
     14 C12         0.0021   -0.0041    0.0020 C.3       1 <0>        -0.0740
     15 N3         -2.4317    1.3832    0.0420 N.pl3     1 <0>        -0.8160
     16 H1         -3.4521    3.7481    0.0554 H         1 <0>         0.1573
     17 H2         -3.3646    6.1881    0.0710 H         1 <0>         0.1811
     18 H3          0.7855    6.2317    0.0407 H         1 <0>         0.1880
     19 H4          2.9196    1.7043   -1.0425 H         1 <0>         0.1217
     20 H5          3.1711    2.1853    0.6698 H         1 <0>         0.1127
     21 H6          3.4221   -0.2958    0.2276 H         1 <0>         0.0959
     22 H7          2.1871    0.1152    1.4656 H         1 <0>         0.0798
     23 H8          1.5304   -0.2924   -1.5067 H         1 <0>         0.0763
     24 H9          1.4309   -1.6072   -0.2868 H         1 <0>         0.0904
     25 H10        -0.2086   -0.3792    1.0144 H         1 <0>         0.0931
     26 H11        -0.7635   -0.3774   -0.6941 H         1 <0>         0.0859
     27 H12        -2.3851    0.2842    0.0377 H         1 <0>         0.4541
     28 H13        -3.4067    1.8923    0.0546 H         1 <0>         0.4476
     29 H14         2.0294    4.1395    0.0151 H         1 <0>         0.4759
@<TRIPOS>BOND
     1    1    6 ar
     2    1    2 ar
     3    1   16 1
     4    2    3 ar
     5    2   17 1
     6    3    4 ar
     7    4    5 ar
     8    4   18 1
     9    5   10 ar
    10    5    6 ar
    11    6    7 ar
    12    7    8 ar
    13    7   15 1
    14    8   14 1
    15    8    9 ar
    16    9   10 ar
    17    9   11 1
    18   10   29 1
    19   11   12 1
    20   11   19 1
    21   11   20 1
    22   12   13 1
    23   12   21 1
    24   12   22 1
    25   13   14 1
    26   13   23 1
    27   13   24 1
    28   14   25 1
    29   14   26 1
    30   15   27 1
    31   15   28 1
@<TRIPOS>MOLECULE
ZINC27330751
   28    30     0     0     0
SMALL
USER_CHARGES
6,7,8,9-tetrahydropyrido[3,4-b]quinolin-5-amine
@<TRIPOS>ATOM
      1 C1         -2.5011    4.2600    0.0516 C.ar      1 <0>        -0.1294
      2 C2         -2.4443    5.6230    0.0605 C.ar      1 <0>         0.0542
      3 N1         -1.2889    6.2708    0.0562 N.ar      1 <0>        -0.4652
      4 C3         -0.1291    5.6573    0.0430 C.ar      1 <0>         0.1485
      5 C4         -0.0769    4.2528    0.0320 C.ar      1 <0>         0.1209
      6 C5         -1.2998    3.5372    0.0368 C.ar      1 <0>        -0.1384
      7 C6         -1.2614    2.1268    0.0315 C.ar      1 <0>         0.2804
      8 C7         -0.0183    1.5015    0.0103 C.ar      1 <0>        -0.2245
      9 C8          1.1357    2.2673    0.0034 C.ar      1 <0>         0.2152
     10 N2          1.0775    3.5883    0.0168 N.ar      1 <0>        -0.5185
     11 C9          2.5099    1.6446   -0.0234 C.3       1 <0>        -0.0742
     12 C10         2.4444    0.1787    0.3980 C.3       1 <0>        -0.1215
     13 C11         1.3692   -0.5200   -0.4426 C.3       1 <0>        -0.1205
     14 C12         0.0021   -0.0041    0.0020 C.3       1 <0>        -0.0639
     15 N3         -2.4317    1.3832    0.0420 N.pl3     1 <0>        -0.8692
     16 H1         -3.4521    3.7481    0.0554 H         1 <0>         0.1304
     17 H2         -3.3646    6.1881    0.0710 H         1 <0>         0.1554
     18 H3          0.7855    6.2317    0.0407 H         1 <0>         0.1711
     19 H4          2.9196    1.7043   -1.0425 H         1 <0>         0.0885
     20 H5          3.1711    2.1853    0.6698 H         1 <0>         0.0897
     21 H6          3.4221   -0.2958    0.2276 H         1 <0>         0.0753
     22 H7          2.1871    0.1152    1.4656 H         1 <0>         0.0674
     23 H8          1.5304   -0.2924   -1.5067 H         1 <0>         0.0676
     24 H9          1.4309   -1.6072   -0.2868 H         1 <0>         0.0711
     25 H10        -0.2086   -0.3792    1.0144 H         1 <0>         0.0723
     26 H11        -0.7635   -0.3774   -0.6941 H         1 <0>         0.0671
     27 H12        -2.3851    0.2842    0.0377 H         1 <0>         0.4278
     28 H13        -3.4067    1.8923    0.0546 H         1 <0>         0.4225
@<TRIPOS>BOND
     1    1    6 ar
     2    1    2 ar
     3    1   16 1
     4    2    3 ar
     5    2   17 1
     6    3    4 ar
     7    4    5 ar
     8    4   18 1
     9    5   10 ar
    10    5    6 ar
    11    6    7 ar
    12    7    8 ar
    13    7   15 1
    14    8   14 1
    15    8    9 ar
    16    9   10 ar
    17    9   11 1
    18   11   12 1
    19   11   19 1
    20   11   20 1
    21   12   13 1
    22   12   21 1
    23   12   22 1
    24   13   14 1
    25   13   23 1
    26   13   24 1
    27   14   25 1
    28   14   26 1
    29   15   27 1
    30   15   28 1
@<TRIPOS>MOLECULE
ZINC04006685
   31    33     0     0     0
SMALL
USER_CHARGES
BLAHamine
@<TRIPOS>ATOM
      1 C1         -0.0127    1.0858    0.0080 C.3       1 <0>        -0.1270
      2 C2         -0.7653    1.5992   -1.2253 C.3       1 <0>        -0.1214
      3 C3         -2.1022    0.8666   -1.3155 C.3       1 <0>        -0.1088
      4 C4         -2.8383    0.9424   -0.0021 C.ar      1 <0>         0.2100
      5 C5         -2.2079    1.2646    1.1746 C.ar      1 <0>        -0.1608
      6 C6         -2.9570    1.3067    2.3553 C.ar      1 <0>         0.3445
      7 C7         -4.3199    1.0238    2.2964 C.ar      1 <0>        -0.1903
      8 C8         -4.8858    0.7126    1.0784 C.ar      1 <0>         0.1889
      9 C9         -6.3665    0.4473    1.2595 C.3       1 <0>        -0.1007
     10 C10        -6.5519    0.2011    2.7719 C.3       1 <0>        -0.1158
     11 C11        -5.3724    0.9889    3.3813 C.3       1 <0>        -0.0756
     12 N1         -2.3516    1.6260    3.5671 N.pl3     1 <0>        -0.8073
     13 C12        -0.7389    1.5841    1.2564 C.3       1 <0>        -0.0771
     14 H1          0.0021   -0.0041    0.0020 H         1 <0>         0.0764
     15 H2          1.0084    1.4670    0.0003 H         1 <0>         0.0907
     16 H3         -0.9405    2.6706   -1.1279 H         1 <0>         0.0790
     17 H4         -0.1761    1.4044   -2.1214 H         1 <0>         0.0942
     18 H5         -2.7107    1.3241   -2.0955 H         1 <0>         0.1055
     19 H6         -1.9228   -0.1788   -1.5665 H         1 <0>         0.1141
     20 H7         -6.6644   -0.4353    0.6935 H         1 <0>         0.1071
     21 H8         -6.9486    1.3128    0.9432 H         1 <0>         0.1186
     22 H9         -6.4704   -0.8606    3.0047 H         1 <0>         0.0901
     23 H10        -7.5051    0.6025    3.1159 H         1 <0>         0.1031
     24 H11        -4.9898    0.4754    4.2634 H         1 <0>         0.0932
     25 H12        -5.6855    2.0010    3.6376 H         1 <0>         0.0996
     26 H13        -1.4021    1.8218    3.5982 H         1 <0>         0.4215
     27 H14        -2.8792    1.6527    4.3806 H         1 <0>         0.4226
     28 H15        -0.3135    1.1017    2.1364 H         1 <0>         0.0894
     29 H16        -0.6099    2.6631    1.3409 H         1 <0>         0.0961
     30 N2         -4.1776    0.6625   -0.0879 N.ar      1 <0>        -0.5246
     31 H17        -4.6246    0.4277   -0.9820 H         1 <0>         0.4647
@<TRIPOS>BOND
     1    1   13 1
     2    1    2 1
     3    1   14 1
     4    1   15 1
     5    2    3 1
     6    2   16 1
     7    2   17 1
     8    3    4 1
     9    3   18 1
    10    3   19 1
    11    4    5 ar
    12    4   30 ar
    13    5    6 ar
    14    5   13 1
    15    6    7 ar
    16    6   12 1
    17    7   11 1
    18    7    8 ar
    19    8    9 1
    20    8   30 ar
    21    9   10 1
    22    9   20 1
    23    9   21 1
    24   10   11 1
    25   10   22 1
    26   10   23 1
    27   11   24 1
    28   11   25 1
    29   12   26 1
    30   12   27 1
    31   13   28 1
    32   13   29 1
    33   30   31 1
@<TRIPOS>MOLECULE
ZINC27414794
   26    28     0     0     0
SMALL
USER_CHARGES
BLAHamine
@<TRIPOS>ATOM
      1 C1         -0.0168    1.3857    0.0097 C.ar      1 <0>        -0.2087
      2 C2          1.1625    2.0815    0.0021 C.ar      1 <0>        -0.0230
      3 C3          2.3597    1.3532   -0.0131 C.ar      1 <0>        -0.2310
      4 C4          3.6195    1.9981   -0.0213 C.ar      1 <0>         0.3232
      5 C5          4.7589    1.2094   -0.0374 C.ar      1 <0>        -0.3126
      6 C6          4.6392   -0.1779   -0.0424 C.ar      1 <0>         0.4288
      7 N1          3.4499   -0.7611   -0.0344 N.ar      1 <0>        -0.5397
      8 C7          2.3123   -0.0614   -0.0206 C.ar      1 <0>         0.3864
      9 N2          1.1270   -0.6802   -0.0127 N.ar      1 <0>        -0.4784
     10 C8          0.0021   -0.0041    0.0020 C.ar      1 <0>         0.1738
     11 O1          5.7349   -0.9798   -0.0510 O.3       1 <0>        -0.2990
     12 C9          6.9825   -0.4035   -0.4368 C.3       1 <0>         0.0630
     13 C10         7.1887    0.8889    0.3635 C.3       1 <0>        -0.1603
     14 C11         6.1049    1.8871   -0.0521 C.3       1 <0>        -0.0599
     15 N3          3.7112    3.3810   -0.0138 N.pl3     1 <0>        -0.8653
     16 H1         -0.9582    1.9149    0.0170 H         1 <0>         0.1413
     17 H2          1.1698    3.1615    0.0082 H         1 <0>         0.1314
     18 H3         -0.9343   -0.5422    0.0080 H         1 <0>         0.1666
     19 H4          7.7958   -1.1123   -0.2220 H         1 <0>         0.1184
     20 H5          6.9658   -0.1800   -1.5137 H         1 <0>         0.0705
     21 H6          7.1095    0.6709    1.4388 H         1 <0>         0.0813
     22 H7          8.1852    1.3003    0.1452 H         1 <0>         0.0909
     23 H8          6.3184    2.2565   -1.0660 H         1 <0>         0.0745
     24 H9          6.0977    2.7322    0.6520 H         1 <0>         0.0747
     25 H10         4.6981    3.8668   -0.0203 H         1 <0>         0.4289
     26 H11         2.7971    3.9928   -0.0013 H         1 <0>         0.4243
@<TRIPOS>BOND
     1    1   10 ar
     2    1    2 ar
     3    1   16 1
     4    2    3 ar
     5    2   17 1
     6    3    8 ar
     7    3    4 ar
     8    4    5 ar
     9    4   15 1
    10    5   14 1
    11    5    6 ar
    12    6    7 ar
    13    6   11 1
    14    7    8 ar
    15    8    9 ar
    16    9   10 ar
    17   10   18 1
    18   11   12 1
    19   12   13 1
    20   12   19 1
    21   12   20 1
    22   13   14 1
    23   13   21 1
    24   13   22 1
    25   14   23 1
    26   14   24 1
    27   15   25 1
    28   15   26 1
@<TRIPOS>MOLECULE
ZINC20217125
   28    30     0     0     0
SMALL
USER_CHARGES
6,7,8,9-tetrahydropyrido[2,3-b]quinolin-5-amine
@<TRIPOS>ATOM
      1 C1         -2.2172   -4.1820    0.7133 C.ar      1 <0>        -0.2025
      2 C2         -2.2978   -2.8163    0.7471 C.ar      1 <0>        -0.0305
      3 C3         -1.1644   -2.0780    0.3769 C.ar      1 <0>        -0.2158
      4 C4         -1.1625   -0.6659    0.3822 C.ar      1 <0>         0.2963
      5 C5          0.0021   -0.0041    0.0020 C.ar      1 <0>        -0.2440
      6 C6          1.1163   -0.7368   -0.3642 C.ar      1 <0>         0.2390
      7 N1          1.0916   -2.0595   -0.3658 N.ar      1 <0>        -0.5266
      8 C7          0.0126   -2.7604   -0.0146 C.ar      1 <0>         0.3534
      9 N2          0.0248   -4.0975   -0.0259 N.ar      1 <0>        -0.4758
     10 C8         -1.0322   -4.7942    0.3187 C.ar      1 <0>         0.1672
     11 C9          2.4113   -0.0764   -0.7695 C.3       1 <0>        -0.0752
     12 C10         2.1761    1.3855   -1.1414 C.3       1 <0>        -0.1209
     13 C11         1.4039    2.0581   -0.0003 C.3       1 <0>        -0.1206
     14 C12        -0.0183    1.5014    0.0103 C.3       1 <0>        -0.0609
     15 N3         -2.2918    0.0437    0.7570 N.pl3     1 <0>        -0.8685
     16 H1         -3.0706   -4.7823    0.9923 H         1 <0>         0.1405
     17 H2         -3.2083   -2.3211    1.0506 H         1 <0>         0.1307
     18 H3         -0.9807   -5.8727    0.2955 H         1 <0>         0.1650
     19 H4          3.1233   -0.1208    0.0678 H         1 <0>         0.0900
     20 H5          2.8343   -0.6014   -1.6387 H         1 <0>         0.0909
     21 H6          3.1442    1.8871   -1.2870 H         1 <0>         0.0756
     22 H7          1.5924    1.4377   -2.0723 H         1 <0>         0.0677
     23 H8          1.9009    1.8410    0.9567 H         1 <0>         0.0676
     24 H9          1.3819    3.1457   -0.1636 H         1 <0>         0.0710
     25 H10        -0.5503    1.8658   -0.8809 H         1 <0>         0.0711
     26 H11        -0.5332    1.8562    0.9153 H         1 <0>         0.0658
     27 H12        -2.2756    1.1436    0.7563 H         1 <0>         0.4284
     28 H13        -3.2046   -0.4928    1.0553 H         1 <0>         0.4213
@<TRIPOS>BOND
     1    1   10 ar
     2    1    2 ar
     3    1   16 1
     4    2    3 ar
     5    2   17 1
     6    3    8 ar
     7    3    4 ar
     8    4    5 ar
     9    4   15 1
    10    5   14 1
    11    5    6 ar
    12    6    7 ar
    13    6   11 1
    14    7    8 ar
    15    8    9 ar
    16    9   10 ar
    17   10   18 1
    18   11   12 1
    19   11   19 1
    20   11   20 1
    21   12   13 1
    22   12   21 1
    23   12   22 1
    24   13   14 1
    25   13   23 1
    26   13   24 1
    27   14   25 1
    28   14   26 1
    29   15   27 1
    30   15   28 1
@<TRIPOS>MOLECULE
ZINC20217125
   29    31     0     0     0
SMALL
USER_CHARGES
6,7,8,9-tetrahydropyrido[2,3-b]quinolin-5-amine
@<TRIPOS>ATOM
      1 C1         -2.2172   -4.1820    0.7133 C.ar      1 <0>        -0.1757
      2 C2         -2.2978   -2.8163    0.7471 C.ar      1 <0>        -0.0061
      3 C3         -1.1644   -2.0780    0.3769 C.ar      1 <0>        -0.1946
      4 C4         -1.1625   -0.6659    0.3822 C.ar      1 <0>         0.3711
      5 C5          0.0021   -0.0041    0.0020 C.ar      1 <0>        -0.2217
      6 C6          1.1163   -0.7368   -0.3642 C.ar      1 <0>         0.2837
      7 N1          1.0916   -2.0595   -0.3658 N.ar      1 <0>        -0.5322
      8 C7          0.0126   -2.7604   -0.0146 C.ar      1 <0>         0.3701
      9 N2          0.0248   -4.0975   -0.0259 N.ar      1 <0>        -0.5028
     10 C8         -1.0322   -4.7942    0.3187 C.ar      1 <0>         0.2163
     11 C9          2.4113   -0.0764   -0.7695 C.3       1 <0>        -0.1119
     12 C10         2.1761    1.3855   -1.1414 C.3       1 <0>        -0.1228
     13 C11         1.4039    2.0581   -0.0003 C.3       1 <0>        -0.1283
     14 C12        -0.0183    1.5014    0.0103 C.3       1 <0>        -0.0720
     15 N3         -2.2918    0.0437    0.7570 N.pl3     1 <0>        -0.8180
     16 H1         -3.0706   -4.7823    0.9923 H         1 <0>         0.1664
     17 H2         -3.2083   -2.3211    1.0506 H         1 <0>         0.1561
     18 H3         -0.9807   -5.8727    0.2955 H         1 <0>         0.1906
     19 H4          3.1233   -0.1208    0.0678 H         1 <0>         0.1219
     20 H5          2.8343   -0.6014   -1.6387 H         1 <0>         0.1126
     21 H6          3.1442    1.8871   -1.2870 H         1 <0>         0.0960
     22 H7          1.5924    1.4377   -2.0723 H         1 <0>         0.0800
     23 H8          1.9009    1.8410    0.9567 H         1 <0>         0.0764
     24 H9          1.3819    3.1457   -0.1636 H         1 <0>         0.0902
     25 H10        -0.5503    1.8658   -0.8809 H         1 <0>         0.0926
     26 H11        -0.5332    1.8562    0.9153 H         1 <0>         0.0852
     27 H12        -2.2756    1.1436    0.7563 H         1 <0>         0.4538
     28 H13        -3.2046   -0.4928    1.0553 H         1 <0>         0.4458
     29 H14         1.9857   -2.6259   -0.6653 H         1 <0>         0.4775
@<TRIPOS>BOND
     1    1   10 ar
     2    1    2 ar
     3    1   16 1
     4    2    3 ar
     5    2   17 1
     6    3    8 ar
     7    3    4 ar
     8    4    5 ar
     9    4   15 1
    10    5   14 1
    11    5    6 ar
    12    6    7 ar
    13    6   11 1
    14    7    8 ar
    15    7   29 1
    16    8    9 ar
    17    9   10 ar
    18   10   18 1
    19   11   12 1
    20   11   19 1
    21   11   20 1
    22   12   13 1
    23   12   21 1
    24   12   22 1
    25   13   14 1
    26   13   23 1
    27   13   24 1
    28   14   25 1
    29   14   26 1
    30   15   27 1
    31   15   28 1
@<TRIPOS>MOLECULE
ZINC00110013
   27    29     0     0     0
SMALL
USER_CHARGES
6-fluoro-3,4-dihydro-2H-pyrano[2,3-b]quinolin-5-amine
@<TRIPOS>ATOM
      1 C1          3.3474    6.2470   -0.3460 C.ar      1 <0>        -0.0585
      2 C2          2.2153    5.4978   -0.4606 C.ar      1 <0>        -0.1183
      3 C3          2.2688    4.1119   -0.2371 C.ar      1 <0>         0.2294
      4 C4          3.5069    3.5186    0.1046 C.ar      1 <0>        -0.2074
      5 C5          4.6545    4.3176    0.2133 C.ar      1 <0>         0.1374
      6 C6          4.5641    5.6621   -0.0110 C.ar      1 <0>        -0.1752
      7 F1          5.8419    3.7610    0.5381 F         1 <0>        -0.1324
      8 C7          3.5550    2.1223    0.3291 C.ar      1 <0>         0.3055
      9 C8          2.3816    1.3963    0.2032 C.ar      1 <0>        -0.2947
     10 C9          1.1975    2.0467   -0.1355 C.ar      1 <0>         0.4107
     11 N1          1.1728    3.3540   -0.3426 N.ar      1 <0>        -0.5391
     12 O1          0.0297    1.3652   -0.2631 O.3       1 <0>        -0.2989
     13 C10         0.0960   -0.0522   -0.4184 C.3       1 <0>         0.0652
     14 C11         1.0086   -0.6182    0.6771 C.3       1 <0>        -0.1595
     15 C12         2.4262   -0.0918    0.4385 C.3       1 <0>        -0.0645
     16 N2          4.7457    1.4968    0.6668 N.pl3     1 <0>        -0.8518
     17 H1          3.2994    7.3120   -0.5185 H         1 <0>         0.1416
     18 H2          1.2789    5.9682   -0.7219 H         1 <0>         0.1448
     19 H3          5.4473    6.2780    0.0732 H         1 <0>         0.1399
     20 H4         -0.9022   -0.4787   -0.3203 H         1 <0>         0.1174
     21 H5          0.5066   -0.2946   -1.3986 H         1 <0>         0.0701
     22 H6          0.6550   -0.2918    1.6551 H         1 <0>         0.0810
     23 H7          1.0080   -1.7072    0.6299 H         1 <0>         0.0906
     24 H8          3.0432   -0.3026    1.3120 H         1 <0>         0.0776
     25 H9          2.8539   -0.5845   -0.4346 H         1 <0>         0.0742
     26 H10         4.8348    0.5363    0.5654 H         1 <0>         0.4050
     27 H11         5.4896    2.0199    1.0045 H         1 <0>         0.4098
@<TRIPOS>BOND
     1    1    6 ar
     2    1    2 ar
     3    1   17 1
     4    2    3 ar
     5    2   18 1
     6    3   11 ar
     7    3    4 ar
     8    4    5 ar
     9    4    8 ar
    10    5    6 ar
    11    5    7 1
    12    6   19 1
    13    8    9 ar
    14    8   16 1
    15    9   15 1
    16    9   10 ar
    17   10   11 ar
    18   10   12 1
    19   12   13 1
    20   13   14 1
    21   13   20 1
    22   13   21 1
    23   14   15 1
    24   14   22 1
    25   14   23 1
    26   15   24 1
    27   15   25 1
    28   16   26 1
    29   16   27 1
@<TRIPOS>MOLECULE
ZINC27405635
   27    29     0     0     0
SMALL
USER_CHARGES
7-chloro-3,4-dihydro-2H-pyrano[2,3-b]quinolin-5-amine
@<TRIPOS>ATOM
      1 C1          3.4217    6.1554   -0.7743 C.ar      1 <0>        -0.0757
      2 C2          2.2650    5.4371   -0.7465 C.ar      1 <0>        -0.0970
      3 C3          2.2935    4.0819   -0.3770 C.ar      1 <0>         0.2113
      4 C4          3.5323    3.4879   -0.0390 C.ar      1 <0>        -0.1738
      5 C5          4.7039    4.2541   -0.0770 C.ar      1 <0>        -0.0613
      6 C6          4.6396    5.5675   -0.4411 C.ar      1 <0>        -0.0598
      7 Cl1         6.0924    6.5165   -0.4897 Cl        1 <0>        -0.0689
      8 C7          3.5549    2.1214    0.3314 C.ar      1 <0>         0.3158
      9 C8          2.3575    1.4254    0.3451 C.ar      1 <0>        -0.3058
     10 C9          1.1740    2.0756    0.0020 C.ar      1 <0>         0.4097
     11 N1          1.1732    3.3534   -0.3426 N.ar      1 <0>        -0.5458
     12 O1         -0.0173    1.4233    0.0099 O.3       1 <0>        -0.3011
     13 C10         0.0021   -0.0041    0.0020 C.3       1 <0>         0.0632
     14 C11         0.9588   -0.4823    1.1017 C.3       1 <0>        -0.1600
     15 C12         2.3746   -0.0305    0.7345 C.3       1 <0>        -0.0613
     16 N2          4.7452    1.4962    0.6720 N.pl3     1 <0>        -0.8671
     17 H1          3.3943    7.1967   -1.0594 H         1 <0>         0.1407
     18 H2          1.3286    5.9079   -1.0073 H         1 <0>         0.1468
     19 H3          5.6531    3.8079    0.1804 H         1 <0>         0.1304
     20 H4         -1.0117   -0.3856    0.1935 H         1 <0>         0.1171
     21 H5          0.3488   -0.3607   -0.9792 H         1 <0>         0.0696
     22 H6          0.6597   -0.0426    2.0646 H         1 <0>         0.0808
     23 H7          0.9184   -1.5794    1.1713 H         1 <0>         0.0901
     24 H8          2.7419   -0.6317   -0.1103 H         1 <0>         0.0743
     25 H9          3.0384   -0.1707    1.6003 H         1 <0>         0.0747
     26 H10         4.7464    0.4339    0.9576 H         1 <0>         0.4280
     27 H11         5.6880    2.0626    0.6566 H         1 <0>         0.4250
@<TRIPOS>BOND
     1    1    6 ar
     2    1    2 ar
     3    1   17 1
     4    2    3 ar
     5    2   18 1
     6    3   11 ar
     7    3    4 ar
     8    4    5 ar
     9    4    8 ar
    10    5    6 ar
    11    5   19 1
    12    6    7 1
    13    8    9 ar
    14    8   16 1
    15    9   15 1
    16    9   10 ar
    17   10   11 ar
    18   10   12 1
    19   12   13 1
    20   13   14 1
    21   13   20 1
    22   13   21 1
    23   14   15 1
    24   14   22 1
    25   14   23 1
    26   15   24 1
    27   15   25 1
    28   16   26 1
    29   16   27 1
@<TRIPOS>MOLECULE
ZINC27405635
   28    30     0     0     0
SMALL
USER_CHARGES
7-chloro-3,4-dihydro-2H-pyrano[2,3-b]quinolin-5-amine
@<TRIPOS>ATOM
      1 C1          3.4217    6.1554   -0.7743 C.ar      1 <0>        -0.0269
      2 C2          2.2650    5.4371   -0.7465 C.ar      1 <0>        -0.1293
      3 C3          2.2935    4.0819   -0.3770 C.ar      1 <0>         0.2032
      4 C4          3.5323    3.4879   -0.0390 C.ar      1 <0>        -0.1376
      5 C5          4.7039    4.2541   -0.0770 C.ar      1 <0>        -0.0473
      6 C6          4.6396    5.5675   -0.4411 C.ar      1 <0>        -0.0422
      7 Cl1         6.0924    6.5165   -0.4897 Cl        1 <0>        -0.0237
      8 C7          3.5549    2.1214    0.3314 C.ar      1 <0>         0.3805
      9 C8          2.3575    1.4254    0.3451 C.ar      1 <0>        -0.2937
     10 C9          1.1740    2.0756    0.0020 C.ar      1 <0>         0.4638
     11 N1          1.1732    3.3534   -0.3426 N.ar      1 <0>        -0.5407
     12 O1         -0.0173    1.4233    0.0099 O.3       1 <0>        -0.2987
     13 C10         0.0021   -0.0041    0.0020 C.3       1 <0>         0.0610
     14 C11         0.9588   -0.4823    1.1017 C.3       1 <0>        -0.1663
     15 C12         2.3746   -0.0305    0.7345 C.3       1 <0>        -0.0698
     16 N2          4.7452    1.4962    0.6720 N.pl3     1 <0>        -0.8204
     17 H1          3.3943    7.1967   -1.0594 H         1 <0>         0.1640
     18 H2          1.3286    5.9079   -1.0073 H         1 <0>         0.1657
     19 H3          5.6531    3.8079    0.1804 H         1 <0>         0.1539
     20 H4         -1.0117   -0.3856    0.1935 H         1 <0>         0.1417
     21 H5          0.3488   -0.3607   -0.9792 H         1 <0>         0.0922
     22 H6          0.6597   -0.0426    2.0646 H         1 <0>         0.0916
     23 H7          0.9184   -1.5794    1.1713 H         1 <0>         0.1119
     24 H8          2.7419   -0.6317   -0.1103 H         1 <0>         0.0947
     25 H9          3.0384   -0.1707    1.6003 H         1 <0>         0.0943
     26 H10         4.7464    0.4339    0.9576 H         1 <0>         0.4520
     27 H11         5.6880    2.0626    0.6566 H         1 <0>         0.4473
     28 H12         0.2095    3.8137   -0.6060 H         1 <0>         0.4789
@<TRIPOS>BOND
     1    1    6 ar
     2    1    2 ar
     3    1   17 1
     4    2    3 ar
     5    2   18 1
     6    3   11 ar
     7    3    4 ar
     8    4    5 ar
     9    4    8 ar
    10    5    6 ar
    11    5   19 1
    12    6    7 1
    13    8    9 ar
    14    8   16 1
    15    9   15 1
    16    9   10 ar
    17   10   11 ar
    18   10   12 1
    19   11   28 1
    20   12   13 1
    21   13   14 1
    22   13   20 1
    23   13   21 1
    24   14   15 1
    25   14   22 1
    26   14   23 1
    27   15   24 1
    28   15   25 1
    29   16   26 1
    30   16   27 1
@<TRIPOS>MOLECULE
ZINC01544807
   25    25     0     0     0
SMALL
USER_CHARGES

@<TRIPOS>ATOM
      1 C1         -0.0186    1.5216    0.0104 C.3       1 <0>        -0.1431
      2 C2          1.2815    2.3325    0.0023 C.3       1 <0>        -0.0514
      3 S1          2.5388    1.2528    0.8324 S.3       1 <0>        -0.2169
      4 S2          1.7599   -0.5564    0.1294 S.3       1 <0>        -0.1609
      5 C3          0.0021   -0.0041    0.0020 C.3       1 <0>        -0.0264
      6 H1         -0.5658   -0.3846    0.8510 H         1 <0>         0.1110
      7 C4         -0.6091   -0.5219   -1.3015 C.3       1 <0>        -0.1052
      8 C5         -0.6997   -2.0484   -1.2512 C.3       1 <0>        -0.1224
      9 C6         -1.3109   -2.5663   -2.5547 C.3       1 <0>        -0.0906
     10 C7         -1.4015   -4.0928   -2.5044 C.3       1 <0>        -0.1841
     11 C8         -2.0035   -4.6029   -3.7883 C.2       1 <0>         0.4878
     12 O1         -2.3298   -3.8182   -4.6625 O.co2     1 <0>        -0.7002
     13 O2         -2.1642   -5.8002   -3.9528 O.co2     1 <0>        -0.7085
     14 H2         -0.5824    1.8293    0.8911 H         1 <0>         0.0829
     15 H3         -0.5991    1.8387   -0.8560 H         1 <0>         0.0968
     16 H4          1.5859    2.5478   -1.0219 H         1 <0>         0.1009
     17 H5          1.1519    3.2593    0.5612 H         1 <0>         0.1206
     18 H6         -1.6074   -0.1026   -1.4265 H         1 <0>         0.0826
     19 H7          0.0184   -0.2227   -2.1410 H         1 <0>         0.0785
     20 H8          0.2986   -2.4677   -1.1262 H         1 <0>         0.0609
     21 H9         -1.3272   -2.3477   -0.4116 H         1 <0>         0.0588
     22 H10        -2.3092   -2.1470   -2.6796 H         1 <0>         0.0592
     23 H11        -0.6834   -2.2671   -3.3942 H         1 <0>         0.0599
     24 H12        -0.4031   -4.5121   -2.3794 H         1 <0>         0.0552
     25 H13        -2.0289   -4.3920   -1.6648 H         1 <0>         0.0546
@<TRIPOS>BOND
     1    1    5 1
     2    1    2 1
     3    1   14 1
     4    1   15 1
     5    2    3 1
     6    2   16 1
     7    2   17 1
     8    3    4 1
     9    4    5 1
    10    5    6 1
    11    5    7 1
    12    7    8 1
    13    7   18 1
    14    7   19 1
    15    8    9 1
    16    8   20 1
    17    8   21 1
    18    9   10 1
    19    9   22 1
    20    9   23 1
    21   10   11 1
    22   10   24 1
    23   10   25 1
    24   11   12 2
    25   11   13 1
@<TRIPOS>MOLECULE
ZINC00598356
   65    69     0     0     0
SMALL
USER_CHARGES
N-[2-[2-(1-benzyl-4-piperidyl)ethyl]-1,3-dioxo-isoindolin-5-yl]benzamide
@<TRIPOS>ATOM
      1 C1        -10.7486    5.9527    1.5375 C.ar      1 <0>        -0.0839
      2 C2        -10.6958    4.9793    0.5574 C.ar      1 <0>        -0.1136
      3 C3        -10.3269    3.6880    0.8849 C.ar      1 <0>        -0.0969
      4 C4        -10.0111    3.3700    2.1926 C.ar      1 <0>        -0.1633
      5 C5        -10.0694    4.3421    3.1737 C.ar      1 <0>        -0.0945
      6 C6        -10.4328    5.6347    2.8452 C.ar      1 <0>        -0.1130
      7 C7         -9.6093    1.9621    2.5498 C.3       1 <0>         0.0490
      8 C8         -7.6962    0.5441    2.9852 C.3       1 <0>        -0.0008
      9 C9         -6.1667    0.4952    2.9680 C.3       1 <0>        -0.1426
     10 C10        -5.6723    0.6451    1.5266 C.3       1 <0>        -0.0954
     11 C11        -6.2015    1.9603    0.9481 C.3       1 <0>        -0.1478
     12 C12        -7.7300    1.9668    1.0238 C.3       1 <0>        -0.0060
     13 C13        -4.1424    0.6580    1.5096 C.3       1 <0>        -0.1352
     14 C14        -3.6487    0.6822    0.0616 C.3       1 <0>         0.1090
     15 N1         -2.1839    0.6945    0.0453 N.am      1 <0>        -0.5790
     16 C15        -1.4321    1.8098    0.0590 C.2       1 <0>         0.5808
     17 O1         -1.8545    2.9486    0.0814 O.2       1 <0>        -0.4634
     18 C16        -0.0092    1.4202    0.0323 C.ar      1 <0>        -0.1659
     19 C17         1.1868    2.1246    0.0294 C.ar      1 <0>        -0.0156
     20 C18         2.3880    1.4402    0.0081 C.ar      1 <0>        -0.1002
     21 C19         2.4054    0.0506   -0.0124 C.ar      1 <0>         0.1796
     22 C20         1.2101   -0.6680   -0.0101 C.ar      1 <0>        -0.0688
     23 C21         0.0045    0.0094    0.0120 C.ar      1 <0>        -0.1224
     24 C22        -1.4138   -0.4083    0.0213 C.2       1 <0>         0.5801
     25 O2         -1.8160   -1.5542    0.0087 O.2       1 <0>        -0.4581
     26 N2          3.6226   -0.6276   -0.0347 N.am      1 <0>        -0.6707
     27 C23         4.6686   -0.1129   -0.7111 C.2       1 <0>         0.5666
     28 O3          4.5763    0.9815   -1.2319 O.2       1 <0>        -0.5073
     29 C24         5.9278   -0.8792   -0.8196 C.ar      1 <0>        -0.1458
     30 C25         6.0389   -2.1339   -0.2178 C.ar      1 <0>        -0.0847
     31 C26         7.2151   -2.8464   -0.3278 C.ar      1 <0>        -0.1256
     32 C27         8.2870   -2.3151   -1.0229 C.ar      1 <0>        -0.0836
     33 C28         8.1854   -1.0695   -1.6169 C.ar      1 <0>        -0.1250
     34 C29         7.0130   -0.3490   -1.5194 C.ar      1 <0>        -0.0530
     35 H1        -11.0361    6.9618    1.2815 H         1 <0>         0.1359
     36 H2        -10.9425    5.2278   -0.4643 H         1 <0>         0.1361
     37 H3        -10.2857    2.9275    0.1192 H         1 <0>         0.1307
     38 H4         -9.8269    4.0926    4.1962 H         1 <0>         0.1308
     39 H5        -10.4737    6.3953    3.6109 H         1 <0>         0.1361
     40 H6        -10.1022    1.2616    1.8757 H         1 <0>         0.1362
     41 H7         -9.9067    1.7488    3.5765 H         1 <0>         0.1346
     42 H8         -8.0926   -0.2777    2.3889 H         1 <0>         0.1315
     43 H9         -8.0510    0.4520    4.0117 H         1 <0>         0.1295
     44 H10        -5.8286   -0.4594    3.3712 H         1 <0>         0.1141
     45 H11        -5.7697    1.3085    3.5754 H         1 <0>         0.0892
     46 H12        -6.0362   -0.1899    0.9280 H         1 <0>         0.0952
     47 H13        -5.8050    2.7967    1.5237 H         1 <0>         0.0911
     48 H14        -5.8883    2.0526   -0.0919 H         1 <0>         0.1130
     49 H15        -8.1262    1.1384    0.4367 H         1 <0>         0.1304
     50 H16        -8.1093    2.9080    0.6258 H         1 <0>         0.1296
     51 H17        -3.7660   -0.2360    2.0069 H         1 <0>         0.0828
     52 H18        -3.7807    1.5438    2.0317 H         1 <0>         0.0785
     53 H19        -4.0251    1.5762   -0.4357 H         1 <0>         0.0975
     54 H20        -4.0105   -0.2036   -0.4605 H         1 <0>         0.0997
     55 H21         1.1791    3.2045    0.0446 H         1 <0>         0.1490
     56 H22         3.3183    1.9888    0.0062 H         1 <0>         0.1612
     57 H23         1.2259   -1.7478   -0.0253 H         1 <0>         0.1481
     58 H24         3.7170   -1.4702    0.4366 H         1 <0>         0.4176
     59 H25         5.2047   -2.5477    0.3292 H         1 <0>         0.1256
     60 H26         7.3010   -3.8191    0.1335 H         1 <0>         0.1333
     61 H27         9.2070   -2.8752   -1.1025 H         1 <0>         0.1324
     62 H28         9.0257   -0.6606   -2.1583 H         1 <0>         0.1351
     63 H29         6.9351    0.6232   -1.9832 H         1 <0>         0.1392
     64 N3         -8.1408    1.8439    2.4386 N.4       1 <0>        -0.3927
     65 H30        -7.7036    2.5995    2.9791 H         1 <0>         0.4259
@<TRIPOS>BOND
     1    1    6 ar
     2    1    2 ar
     3    1   35 1
     4    2    3 ar
     5    2   36 1
     6    3    4 ar
     7    3   37 1
     8    4    5 ar
     9    4    7 1
    10    5    6 ar
    11    5   38 1
    12    6   39 1
    13    7   40 1
    14    7   41 1
    15    7   64 1
    16    8    9 1
    17    8   42 1
    18    8   43 1
    19    8   64 1
    20    9   10 1
    21    9   44 1
    22    9   45 1
    23   10   11 1
    24   10   13 1
    25   10   46 1
    26   11   12 1
    27   11   47 1
    28   11   48 1
    29   12   49 1
    30   12   50 1
    31   12   64 1
    32   13   14 1
    33   13   51 1
    34   13   52 1
    35   14   15 1
    36   14   53 1
    37   14   54 1
    38   15   24 am
    39   15   16 am
    40   16   17 2
    41   16   18 1
    42   18   23 ar
    43   18   19 ar
    44   19   20 ar
    45   19   55 1
    46   20   21 ar
    47   20   56 1
    48   21   22 ar
    49   21   26 1
    50   22   23 ar
    51   22   57 1
    52   23   24 1
    53   24   25 2
    54   26   27 am
    55   26   58 1
    56   27   28 2
    57   27   29 1
    58   29   34 ar
    59   29   30 ar
    60   30   31 ar
    61   30   59 1
    62   31   32 ar
    63   31   60 1
    64   32   33 ar
    65   32   61 1
    66   33   34 ar
    67   33   62 1
    68   34   63 1
    69   64   65 1
@<TRIPOS>MOLECULE
ZINC04102384
   40    43     0     0     0
SMALL
USER_CHARGES
methoxyBLAHol
@<TRIPOS>ATOM
      1 C1          2.9013    7.0735    2.9025 C.3       1 <0>         0.0215
      2 O1          1.7685    6.8339    2.0650 O.3       1 <0>        -0.2954
      3 C2          1.6550    5.5931    1.5201 C.ar      1 <0>         0.1368
      4 C3          2.5969    4.6014    1.7654 C.ar      1 <0>        -0.1634
      5 C4          2.4698    3.3390    1.2366 C.ar      1 <0>        -0.0940
      6 C5          1.3824    2.9805    0.4249 C.ar      1 <0>        -0.1306
      7 C6          0.4797    3.9615    0.1518 C.ar      1 <0>        -0.1206
      8 C7          0.5833    5.2540    0.6846 C.ar      1 <0>         0.0971
      9 O2         -0.4134    6.0641    0.2648 O.3       1 <0>        -0.2575
     10 C8         -1.4342    5.2680   -0.3509 C.3       1 <0>         0.0966
     11 H1         -2.1724    4.9946    0.4031 H         1 <0>         0.0893
     12 C9         -0.6966    4.0056   -0.8059 C.3       1 <0>        -0.0098
     13 C10        -1.5908    2.7949   -0.6350 C.3       1 <0>        -0.1253
     14 C11        -0.9001    1.5133   -1.0007 C.3       1 <0>        -0.0105
     15 C12         1.3346    1.5427   -0.0024 C.3       1 <0>         0.0602
     16 C13        -0.1821    4.1112   -2.2039 C.2       1 <0>        -0.1428
     17 C14        -0.4256    5.0836   -3.0167 C.2       1 <0>        -0.1495
     18 C15        -1.2658    6.2698   -2.6667 C.3       1 <0>         0.1311
     19 H2         -1.9017    6.5176   -3.5165 H         1 <0>         0.0751
     20 C16        -2.1392    6.0046   -1.4574 C.3       1 <0>        -0.1198
     21 O3         -0.4103    7.3798   -2.3867 O.3       1 <0>        -0.5463
     22 H3          2.8706    8.0989    3.2707 H         1 <0>         0.1117
     23 H4          2.8817    6.3837    3.7463 H         1 <0>         0.0615
     24 H5          3.8158    6.9205    2.3294 H         1 <0>         0.0616
     25 H6          3.4506    4.8283    2.3869 H         1 <0>         0.1449
     26 H7          3.2287    2.6014    1.4522 H         1 <0>         0.1373
     27 H8         -1.9120    2.7379    0.4050 H         1 <0>         0.0946
     28 H9         -2.4695    2.9134   -1.2689 H         1 <0>         0.1214
     29 H10        -0.3280    1.6778   -1.9138 H         1 <0>         0.1318
     30 H11        -1.6591    0.7581   -1.2047 H         1 <0>         0.1350
     31 H12         1.9548    0.9534    0.6731 H         1 <0>         0.1402
     32 H13         1.7388    1.4627   -1.0115 H         1 <0>         0.1358
     33 H14         0.4449    3.3089   -2.5638 H         1 <0>         0.1096
     34 H15         0.0021    5.0377   -4.0074 H         1 <0>         0.1221
     35 H16        -3.0016    5.4171   -1.7724 H         1 <0>         0.1025
     36 H17        -2.4950    6.9589   -1.0689 H         1 <0>         0.1017
     37 H18         0.1573    7.6353   -3.1266 H         1 <0>         0.3809
     38 N1         -0.0250    0.9737    0.0380 N.4       1 <0>        -0.5090
     39 H19         0.0418   -0.0433   -0.0863 H         1 <0>         0.4417
     40 H20        -0.4392    1.1800    0.9545 H         1 <0>         0.4326
@<TRIPOS>BOND
     1    1    2 1
     2    1   22 1
     3    1   23 1
     4    1   24 1
     5    2    3 1
     6    3    8 ar
     7    3    4 ar
     8    4    5 ar
     9    4   25 1
    10    5    6 ar
    11    5   26 1
    12    6   15 1
    13    6    7 ar
    14    7   12 1
    15    7    8 ar
    16    8    9 1
    17    9   10 1
    18   10   11 1
    19   10   20 1
    20   10   12 1
    21   12   13 1
    22   12   16 1
    23   13   14 1
    24   13   27 1
    25   13   28 1
    26   14   29 1
    27   14   30 1
    28   14   38 1
    29   15   31 1
    30   15   32 1
    31   15   38 1
    32   16   17 2
    33   16   33 1
    34   17   18 1
    35   17   34 1
    36   18   19 1
    37   18   20 1
    38   18   21 1
    39   20   35 1
    40   20   36 1
    41   21   37 1
    42   38   39 1
    43   38   40 1
@<TRIPOS>MOLECULE
ZINC03814201
   68    69     0     0     0
SMALL
USER_CHARGES

@<TRIPOS>ATOM
      1 C1         -0.0178    1.4648    0.0101 C.3       1 <0>        -0.0438
      2 N1          0.0021   -0.0041    0.0020 N.4       1 <0>        -0.2059
      3 C2          0.7126   -0.4907    1.1921 C.3       1 <0>        -0.0477
      4 C3         -1.3761   -0.5125    0.0124 C.3       1 <0>         0.0265
      5 C4         -2.0815   -0.0265    1.2523 C.2       1 <0>        -0.2340
      6 C5         -3.2108    0.6292    1.1489 C.2       1 <0>        -0.1033
      7 C6          0.6564   -0.4549   -1.1482 C.ar      1 <0>        -0.0459
      8 C7         -0.0149   -1.2492   -2.0589 C.ar      1 <0>        -0.0942
      9 C8          0.6321   -1.6950   -3.1962 C.ar      1 <0>        -0.0951
     10 C9          1.9503   -1.3462   -3.4231 C.ar      1 <0>        -0.0354
     11 C10         2.6214   -0.5512   -2.5128 C.ar      1 <0>        -0.0944
     12 C11         1.9731   -0.1018   -1.3776 C.ar      1 <0>        -0.0861
     13 C12         2.6560   -1.8330   -4.6624 C.3       1 <0>        -0.0878
     14 C13         2.4608   -0.8194   -5.7918 C.3       1 <0>        -0.1661
     15 C14         3.1665   -1.3062   -7.0312 C.2       1 <0>         0.3539
     16 O1          3.7639   -2.3556   -7.0131 O.2       1 <0>        -0.4384
     17 C15         3.1267   -0.4835   -8.2932 C.3       1 <0>        -0.1661
     18 C16         3.9152   -1.1978   -9.3927 C.3       1 <0>        -0.0878
     19 C17         3.8754   -0.3751  -10.6547 C.ar      1 <0>        -0.0353
     20 C18         2.8594   -0.5660  -11.5724 C.ar      1 <0>        -0.0945
     21 C19         2.8229    0.1886  -12.7301 C.ar      1 <0>        -0.0860
     22 C20         3.8021    1.1344  -12.9698 C.ar      1 <0>        -0.0460
     23 C21         4.8176    1.3259  -12.0516 C.ar      1 <0>        -0.0941
     24 C22         4.8517    0.5743  -10.8920 C.ar      1 <0>        -0.0952
     25 N2          3.7657    1.8970  -14.1409 N.4       1 <0>        -0.2058
     26 C23         3.8389    1.0069  -15.3072 C.3       1 <0>        -0.0478
     27 C24         2.5132    2.6632  -14.1876 C.3       1 <0>        -0.0437
     28 C25         4.9066    2.8221  -14.1585 C.3       1 <0>         0.0265
     29 C26         4.8674    3.6441  -15.4210 C.2       1 <0>        -0.2340
     30 C27         4.8788    4.9522  -15.3515 C.2       1 <0>        -0.1033
     31 H1          1.0047    1.8421    0.0024 H         1 <0>         0.1202
     32 H2         -0.5450    1.8259   -0.8730 H         1 <0>         0.1198
     33 H3         -0.5280    1.8163    0.9069 H         1 <0>         0.1271
     34 H4          0.2024   -0.1392    2.0889 H         1 <0>         0.1280
     35 H5          0.7273   -1.5806    1.1861 H         1 <0>         0.1228
     36 H6          1.7352   -0.1134    1.1844 H         1 <0>         0.1209
     37 H7         -1.9033   -0.1515   -0.8706 H         1 <0>         0.1298
     38 H8         -1.3613   -1.6024    0.0064 H         1 <0>         0.1353
     39 H9         -1.6559   -0.2188    2.2261 H         1 <0>         0.1359
     40 H10        -3.6364    0.8214    0.1751 H         1 <0>         0.1108
     41 H11        -3.7163    0.9775    2.0375 H         1 <0>         0.1253
     42 H12        -1.0448   -1.5217   -1.8816 H         1 <0>         0.1491
     43 H13         0.1078   -2.3161   -3.9073 H         1 <0>         0.1476
     44 H14         3.6514   -0.2790   -2.6899 H         1 <0>         0.1477
     45 H15         2.4962    0.5224   -0.6683 H         1 <0>         0.1443
     46 H16         3.7201   -1.9448   -4.4544 H         1 <0>         0.0920
     47 H17         2.2413   -2.7954   -4.9623 H         1 <0>         0.0920
     48 H18         1.3967   -0.7076   -5.9998 H         1 <0>         0.1033
     49 H19         2.8755    0.1430   -5.4919 H         1 <0>         0.1033
     50 H20         2.0921   -0.3569   -8.6119 H         1 <0>         0.1033
     51 H21         3.5708    0.4937   -8.1040 H         1 <0>         0.1033
     52 H22         4.9498   -1.3245   -9.0741 H         1 <0>         0.0919
     53 H23         3.4711   -2.1751   -9.5819 H         1 <0>         0.0920
     54 H24         2.0943   -1.3049  -11.3852 H         1 <0>         0.1476
     55 H25         2.0295    0.0390  -13.4474 H         1 <0>         0.1443
     56 H26         5.5829    2.0646  -12.2391 H         1 <0>         0.1492
     57 H27         5.6430    0.7264  -10.1729 H         1 <0>         0.1476
     58 H28         2.9923    0.3204  -15.2942 H         1 <0>         0.1210
     59 H29         3.8105    1.6014  -16.2204 H         1 <0>         0.1281
     60 H30         4.7683    0.4383  -15.2726 H         1 <0>         0.1228
     61 H31         2.4589    3.3237  -13.3222 H         1 <0>         0.1198
     62 H32         2.4848    3.2577  -15.1007 H         1 <0>         0.1271
     63 H33         1.6666    1.9768  -14.1745 H         1 <0>         0.1202
     64 H34         4.8523    3.4826  -13.2931 H         1 <0>         0.1299
     65 H35         5.8360    2.2536  -14.1239 H         1 <0>         0.1353
     66 H36         4.8298    3.1547  -16.3831 H         1 <0>         0.1360
     67 H37         4.8507    5.5413  -16.2563 H         1 <0>         0.1253
     68 H38         4.9163    5.4416  -14.3895 H         1 <0>         0.1109
@<TRIPOS>BOND
     1    1    2 1
     2    1   31 1
     3    1   32 1
     4    1   33 1
     5    2    3 1
     6    2    4 1
     7    2    7 1
     8    3   34 1
     9    3   35 1
    10    3   36 1
    11    4    5 1
    12    4   37 1
    13    4   38 1
    14    5    6 2
    15    5   39 1
    16    6   40 1
    17    6   41 1
    18    7   12 ar
    19    7    8 ar
    20    8    9 ar
    21    8   42 1
    22    9   10 ar
    23    9   43 1
    24   10   11 ar
    25   10   13 1
    26   11   12 ar
    27   11   44 1
    28   12   45 1
    29   13   14 1
    30   13   46 1
    31   13   47 1
    32   14   15 1
    33   14   48 1
    34   14   49 1
    35   15   16 2
    36   15   17 1
    37   17   18 1
    38   17   50 1
    39   17   51 1
    40   18   19 1
    41   18   52 1
    42   18   53 1
    43   19   24 ar
    44   19   20 ar
    45   20   21 ar
    46   20   54 1
    47   21   22 ar
    48   21   55 1
    49   22   23 ar
    50   22   25 1
    51   23   24 ar
    52   23   56 1
    53   24   57 1
    54   25   26 1
    55   25   27 1
    56   25   28 1
    57   26   58 1
    58   26   59 1
    59   26   60 1
    60   27   61 1
    61   27   62 1
    62   27   63 1
    63   28   29 1
    64   28   64 1
    65   28   65 1
    66   29   30 2
    67   29   66 1
    68   30   67 1
    69   30   68 1
@<TRIPOS>MOLECULE
ZINC00367097
   41    44     0     0     0
SMALL
USER_CHARGES

@<TRIPOS>ATOM
      1 C1         -0.0187    1.5258    0.0104 C.3       1 <0>        -0.1447
      2 C2          0.0021   -0.0041    0.0020 C.3       1 <0>        -0.0990
      3 C3          0.7074   -0.4901   -1.2379 C.2       1 <0>        -0.0987
      4 C4          1.9676   -0.7761   -1.1521 C.2       1 <0>        -0.1702
      5 C5          2.8028   -1.2650   -2.2969 C.3       1 <0>        -0.0486
      6 H1          3.4403   -2.0817   -1.9583 H         1 <0>         0.1105
      7 C6          3.6734   -0.1272   -2.8302 C.3       1 <0>        -0.1024
      8 C7          2.8126    0.9269   -3.4829 C.ar      1 <0>         0.2732
      9 C8          1.5157    0.6647   -3.8896 C.ar      1 <0>        -0.1983
     10 C9          0.7664    1.6713   -4.4909 C.ar      1 <0>         0.3632
     11 C10         1.3607    2.9413   -4.6635 C.ar      1 <0>        -0.1279
     12 C11         0.6660    4.0032   -5.2580 C.ar      1 <0>        -0.0521
     13 C12         1.2793    5.2124   -5.4032 C.ar      1 <0>        -0.0378
     14 C13         2.5893    5.4044   -4.9677 C.ar      1 <0>        -0.0246
     15 C14         3.2911    4.3930   -4.3870 C.ar      1 <0>        -0.1322
     16 C15         2.6908    3.1329   -4.2197 C.ar      1 <0>         0.1838
     17 N1          3.3516    2.1216   -3.6534 N.ar      1 <0>        -0.5137
     18 Cl1         0.4186    6.5280   -6.1395 Cl        1 <0>        -0.0210
     19 N2         -0.5334    1.4332   -4.9114 N.pl3     1 <0>        -0.7960
     20 C16         0.8583   -0.6771   -3.7068 C.3       1 <0>        -0.0385
     21 H2          0.2933   -0.9307   -4.6038 H         1 <0>         0.0966
     22 C17         1.9075   -1.7565   -3.4395 C.3       1 <0>        -0.1179
     23 C18        -0.0914   -0.6216   -2.5028 C.3       1 <0>        -0.0877
     24 H3          1.0039    1.9031    0.0027 H         1 <0>         0.0503
     25 H4         -0.5459    1.8868   -0.8726 H         1 <0>         0.0487
     26 H5         -0.5289    1.8773    0.9072 H         1 <0>         0.0636
     27 H6          0.5293   -0.3651    0.8851 H         1 <0>         0.0749
     28 H7         -1.0205   -0.3814    0.0098 H         1 <0>         0.0744
     29 H8          2.4485   -0.6541   -0.1928 H         1 <0>         0.1136
     30 H9          4.2284    0.3197   -2.0054 H         1 <0>         0.1127
     31 H10         4.3766   -0.5236   -3.5627 H         1 <0>         0.1248
     32 H11        -0.3492    3.8646   -5.5996 H         1 <0>         0.1554
     33 H12         3.0551    6.3707   -5.0934 H         1 <0>         0.1648
     34 H13         4.3054    4.5583   -4.0551 H         1 <0>         0.1657
     35 H14        -0.9303    0.5568   -4.7877 H         1 <0>         0.4267
     36 H15        -1.0456    2.1430   -5.3293 H         1 <0>         0.4220
     37 H16         2.5072   -1.9197   -4.3349 H         1 <0>         0.0814
     38 H17         1.4145   -2.6845   -3.1497 H         1 <0>         0.0924
     39 H18        -0.6860   -1.5343   -2.4632 H         1 <0>         0.0975
     40 H19        -0.7538    0.2381   -2.6047 H         1 <0>         0.0742
     41 H20         4.2629    2.2688   -3.3554 H         1 <0>         0.4409
@<TRIPOS>BOND
     1    1    2 1
     2    1   24 1
     3    1   25 1
     4    1   26 1
     5    2    3 1
     6    2   27 1
     7    2   28 1
     8    3   23 1
     9    3    4 2
    10    4    5 1
    11    4   29 1
    12    5    6 1
    13    5   22 1
    14    5    7 1
    15    7    8 1
    16    7   30 1
    17    7   31 1
    18    8   17 ar
    19    8    9 ar
    20    9   10 ar
    21    9   20 1
    22   10   11 ar
    23   10   19 1
    24   11   16 ar
    25   11   12 ar
    26   12   13 ar
    27   12   32 1
    28   13   14 ar
    29   13   18 1
    30   14   15 ar
    31   14   33 1
    32   15   16 ar
    33   15   34 1
    34   16   17 ar
    35   17   41 1
    36   19   35 1
    37   19   36 1
    38   20   21 1
    39   20   22 1
    40   20   23 1
    41   22   37 1
    42   22   38 1
    43   23   39 1
    44   23   40 1
@<TRIPOS>MOLECULE
ZINC00367100
   41    44     0     0     0
SMALL
USER_CHARGES

@<TRIPOS>ATOM
      1 C1         -0.0187    1.5258    0.0104 C.3       1 <0>        -0.1499
      2 C2          0.0021   -0.0041    0.0020 C.3       1 <0>        -0.0956
      3 C3          0.7074   -0.4901   -1.2379 C.2       1 <0>        -0.0988
      4 C4          1.9676   -0.7761   -1.1521 C.2       1 <0>        -0.1703
      5 C5          2.8005   -1.2744   -2.2945 C.3       1 <0>        -0.0487
      6 H1          3.7626   -0.7621   -2.2928 H         1 <0>         0.1104
      7 C6          3.0254   -2.7802   -2.1577 C.3       1 <0>        -0.1022
      8 C7          1.7260   -3.5222   -2.3552 C.ar      1 <0>         0.2732
      9 C8          0.6357   -2.9374   -2.9761 C.ar      1 <0>        -0.1994
     10 C9         -0.5380   -3.6674   -3.1367 C.ar      1 <0>         0.3632
     11 C10        -0.5777   -4.9936   -2.6512 C.ar      1 <0>        -0.1279
     12 C11        -1.7257   -5.7876   -2.7754 C.ar      1 <0>        -0.0520
     13 C12        -1.7189   -7.0625   -2.2914 C.ar      1 <0>        -0.0379
     14 C13        -0.5835   -7.5849   -1.6745 C.ar      1 <0>        -0.0247
     15 C14         0.5470   -6.8393   -1.5382 C.ar      1 <0>        -0.1321
     16 C15         0.5769   -5.5211   -2.0257 C.ar      1 <0>         0.1838
     17 N1          1.6697   -4.7647   -1.9079 N.ar      1 <0>        -0.5137
     18 Cl1        -3.1411   -8.0460   -2.4450 Cl        1 <0>        -0.0209
     19 N2         -1.6431   -3.1061   -3.7584 N.pl3     1 <0>        -0.7960
     20 C16         0.6514   -1.5233   -3.4918 C.3       1 <0>        -0.0379
     21 H2          0.1574   -1.4846   -4.4626 H         1 <0>         0.0968
     22 C17         2.0880   -1.0175   -3.6268 C.3       1 <0>        -0.1176
     23 C18        -0.0914   -0.6216   -2.5028 C.3       1 <0>        -0.0878
     24 H3          1.0039    1.9031    0.0027 H         1 <0>         0.0584
     25 H4         -0.5459    1.8868   -0.8726 H         1 <0>         0.0565
     26 H5         -0.5289    1.8773    0.9072 H         1 <0>         0.0614
     27 H6          0.5293   -0.3651    0.8851 H         1 <0>         0.0705
     28 H7         -1.0205   -0.3814    0.0098 H         1 <0>         0.0676
     29 H8          2.4502   -0.6468   -0.1947 H         1 <0>         0.1137
     30 H9          3.7455   -3.1073   -2.9078 H         1 <0>         0.1248
     31 H10         3.4181   -2.9978   -1.1645 H         1 <0>         0.1129
     32 H11        -2.6109   -5.3920   -3.2512 H         1 <0>         0.1555
     33 H12        -0.6011   -8.5972   -1.2985 H         1 <0>         0.1648
     34 H13         1.4181   -7.2589   -1.0571 H         1 <0>         0.1658
     35 H14        -1.6036   -2.1944   -4.0873 H         1 <0>         0.4267
     36 H15        -2.4556   -3.6252   -3.8645 H         1 <0>         0.4220
     37 H16         2.0826    0.0509   -3.8430 H         1 <0>         0.0922
     38 H17         2.5963   -1.5548   -4.4274 H         1 <0>         0.0816
     39 H18        -1.0647   -1.0557   -2.2738 H         1 <0>         0.0742
     40 H19        -0.2300    0.3634   -2.9485 H         1 <0>         0.0965
     41 H20         2.4532   -5.1412   -1.4776 H         1 <0>         0.4409
@<TRIPOS>BOND
     1    1    2 1
     2    1   24 1
     3    1   25 1
     4    1   26 1
     5    2    3 1
     6    2   27 1
     7    2   28 1
     8    3   23 1
     9    3    4 2
    10    4    5 1
    11    4   29 1
    12    5    6 1
    13    5   22 1
    14    5    7 1
    15    7    8 1
    16    7   30 1
    17    7   31 1
    18    8   17 ar
    19    8    9 ar
    20    9   10 ar
    21    9   20 1
    22   10   11 ar
    23   10   19 1
    24   11   16 ar
    25   11   12 ar
    26   12   13 ar
    27   12   32 1
    28   13   14 ar
    29   13   18 1
    30   14   15 ar
    31   14   33 1
    32   15   16 ar
    33   15   34 1
    34   16   17 ar
    35   17   41 1
    36   19   35 1
    37   19   36 1
    38   20   21 1
    39   20   22 1
    40   20   23 1
    41   22   37 1
    42   22   38 1
    43   23   39 1
    44   23   40 1
@<TRIPOS>MOLECULE
ZINC13492194
   38    38     0     0     0
SMALL
USER_CHARGES
[3-[(1R)-1-dimethylaminoethyl]phenyl] N,N-dimethylcarbamate
@<TRIPOS>ATOM
      1 C1         -0.3514    5.7674   -1.6757 C.3       1 <0>        -0.1799
      2 C2         -0.0258    5.3735   -0.2336 C.3       1 <0>         0.0831
      3 H1          0.9546    5.7651    0.0375 H         1 <0>         0.1448
      4 C3         -0.0177    3.8714   -0.1128 C.ar      1 <0>        -0.1225
      5 C4         -1.2104    3.1812    0.0037 C.ar      1 <0>        -0.1248
      6 C5         -1.2066    1.8028    0.1090 C.ar      1 <0>        -0.0846
      7 C6         -0.0100    1.1121    0.1086 C.ar      1 <0>        -0.0930
      8 C7          1.1876    1.8020   -0.0082 C.ar      1 <0>         0.1263
      9 C8          1.1809    3.1850   -0.1190 C.ar      1 <0>        -0.0942
     10 O1          2.3660    1.1243   -0.0145 O.3       1 <0>        -0.3012
     11 C9          3.1573    1.2637    1.0663 C.2       1 <0>         0.6457
     12 O2          2.7604    1.8820    2.0342 O.2       1 <0>        -0.5559
     13 N1          4.3894    0.7175    1.0744 N.am      1 <0>        -0.5930
     14 C10         5.2502    0.8692    2.2501 C.3       1 <0>         0.1005
     15 C11         4.8678   -0.0279   -0.0925 C.3       1 <0>         0.0745
     16 C12        -0.8150    5.4959    2.0522 C.3       1 <0>        -0.0465
     17 C13        -1.0790    7.3975    0.5768 C.3       1 <0>        -0.0461
     18 H2         -0.3572    6.8539   -1.7631 H         1 <0>         0.0874
     19 H3          0.4030    5.3532   -2.3446 H         1 <0>         0.1067
     20 H4         -1.3318    5.3758   -1.9468 H         1 <0>         0.0833
     21 H5         -2.1466    3.7197    0.0084 H         1 <0>         0.1258
     22 H6         -2.1396    1.2657    0.1954 H         1 <0>         0.1469
     23 H7         -0.0073    0.0356    0.1946 H         1 <0>         0.1454
     24 H8          2.1121    3.7245   -0.2096 H         1 <0>         0.1373
     25 H9          4.7607    0.4276    3.1182 H         1 <0>         0.0697
     26 H10         6.1998    0.3644    2.0727 H         1 <0>         0.0917
     27 H11         5.4304    1.9283    2.4343 H         1 <0>         0.0681
     28 H12         5.3732    0.6536   -0.7768 H         1 <0>         0.0650
     29 H13         5.5648   -0.8010    0.2310 H         1 <0>         0.0840
     30 H14         4.0215   -0.4909   -0.5999 H         1 <0>         0.0802
     31 H15         0.1677    5.8327    2.3823 H         1 <0>         0.1243
     32 H16        -1.5817    5.9235    2.6983 H         1 <0>         0.1243
     33 H17        -0.8624    4.4081    2.1030 H         1 <0>         0.1227
     34 H18        -1.3182    7.6922   -0.4450 H         1 <0>         0.1241
     35 H19        -1.8400    7.7848    1.2542 H         1 <0>         0.1252
     36 H20        -0.1059    7.8031    0.8535 H         1 <0>         0.1245
     37 N2         -1.0681    5.9218    0.6596 N.4       1 <0>        -0.3961
     38 H21        -1.9836    5.5643    0.3626 H         1 <0>         0.4259
@<TRIPOS>BOND
     1    1    2 1
     2    1   18 1
     3    1   19 1
     4    1   20 1
     5    2    3 1
     6    2    4 1
     7    2   37 1
     8    4    9 ar
     9    4    5 ar
    10    5    6 ar
    11    5   21 1
    12    6    7 ar
    13    6   22 1
    14    7    8 ar
    15    7   23 1
    16    8    9 ar
    17    8   10 1
    18    9   24 1
    19   10   11 1
    20   11   12 2
    21   11   13 am
    22   13   14 1
    23   13   15 1
    24   14   25 1
    25   14   26 1
    26   14   27 1
    27   15   28 1
    28   15   29 1
    29   15   30 1
    30   16   31 1
    31   16   32 1
    32   16   33 1
    33   16   37 1
    34   17   34 1
    35   17   35 1
    36   17   36 1
    37   17   37 1
    38   37   38 1
@<TRIPOS>MOLECULE
ZINC13492195
   38    38     0     0     0
SMALL
USER_CHARGES
[3-[(1S)-1-dimethylaminoethyl]phenyl] N,N-dimethylcarbamate
@<TRIPOS>ATOM
      1 C1         -0.3223    5.9164    1.2152 C.3       1 <0>        -0.1802
      2 C2         -0.1406    5.3094   -0.1774 C.3       1 <0>         0.0839
      3 H1          0.7899    5.6727   -0.6136 H         1 <0>         0.1457
      4 C3         -0.0912    3.8071   -0.0681 C.ar      1 <0>        -0.1240
      5 C4         -1.2636    3.0846    0.0568 C.ar      1 <0>        -0.1245
      6 C5         -1.2219    1.7060    0.1520 C.ar      1 <0>        -0.0835
      7 C6         -0.0073    1.0477    0.1342 C.ar      1 <0>        -0.0975
      8 C7          1.1701    1.7702    0.0090 C.ar      1 <0>         0.1265
      9 C8          1.1252    3.1532   -0.0922 C.ar      1 <0>        -0.0901
     10 O1          2.3660    1.1243   -0.0141 O.3       1 <0>        -0.3023
     11 C9          2.6428    0.3892   -1.1080 C.2       1 <0>         0.6455
     12 O2          1.8901    0.4116   -2.0617 O.2       1 <0>        -0.5540
     13 N1          3.7549   -0.3715   -1.1451 N.am      1 <0>        -0.5928
     14 C10         4.0560   -1.1711   -2.3351 C.3       1 <0>         0.0955
     15 C11         4.6624   -0.3986    0.0046 C.3       1 <0>         0.0752
     16 C12        -1.3480    7.1623   -1.1631 C.3       1 <0>        -0.0461
     17 C13        -1.1764    5.0598   -2.3517 C.3       1 <0>        -0.0470
     18 H2         -1.2529    5.5530    1.6513 H         1 <0>         0.0831
     19 H3          0.5145    5.6257    1.8503 H         1 <0>         0.1073
     20 H4         -0.3581    7.0029    1.1361 H         1 <0>         0.0874
     21 H5         -2.2137    3.5978    0.0759 H         1 <0>         0.1257
     22 H6         -2.1392    1.1436    0.2450 H         1 <0>         0.1451
     23 H7          0.0251   -0.0290    0.2131 H         1 <0>         0.1401
     24 H8          2.0406    3.7179   -0.1901 H         1 <0>         0.1426
     25 H9          4.6569   -0.5809   -3.0269 H         1 <0>         0.0655
     26 H10         4.6099   -2.0632   -2.0427 H         1 <0>         0.0859
     27 H11         3.1254   -1.4643   -2.8209 H         1 <0>         0.0835
     28 H12         4.3613   -1.1938    0.6865 H         1 <0>         0.0659
     29 H13         5.6802   -0.5814   -0.3401 H         1 <0>         0.0834
     30 H14         4.6210    0.5595    0.5229 H         1 <0>         0.0790
     31 H15        -0.4259    7.5385   -1.6061 H         1 <0>         0.1247
     32 H16        -2.1914    7.4249   -1.8017 H         1 <0>         0.1251
     33 H17        -1.4858    7.6076   -0.1778 H         1 <0>         0.1242
     34 H18        -1.1894    3.9766   -2.2305 H         1 <0>         0.1228
     35 H19        -2.0234    5.3670   -2.9651 H         1 <0>         0.1245
     36 H20        -0.2480    5.3599   -2.8377 H         1 <0>         0.1241
     37 N2         -1.2926    5.6921   -1.0207 N.4       1 <0>        -0.3964
     38 H21        -2.1570    5.3677   -0.5717 H         1 <0>         0.4262
@<TRIPOS>BOND
     1    1    2 1
     2    1   18 1
     3    1   19 1
     4    1   20 1
     5    2    3 1
     6    2    4 1
     7    2   37 1
     8    4    9 ar
     9    4    5 ar
    10    5    6 ar
    11    5   21 1
    12    6    7 ar
    13    6   22 1
    14    7    8 ar
    15    7   23 1
    16    8    9 ar
    17    8   10 1
    18    9   24 1
    19   10   11 1
    20   11   12 2
    21   11   13 am
    22   13   14 1
    23   13   15 1
    24   14   25 1
    25   14   26 1
    26   14   27 1
    27   15   28 1
    28   15   29 1
    29   15   30 1
    30   16   31 1
    31   16   32 1
    32   16   33 1
    33   16   37 1
    34   17   34 1
    35   17   35 1
    36   17   36 1
    37   17   37 1
    38   37   38 1
@<TRIPOS>MOLECULE
ZINC03851344
   37    40     0     0     0
SMALL
USER_CHARGES
BLAHdiol
@<TRIPOS>ATOM
      1 C1          2.4695    3.3390    1.2363 C.ar      1 <0>        -0.1221
      2 C2          2.5966    4.6018    1.7654 C.ar      1 <0>        -0.0985
      3 C3          1.6548    5.5931    1.5202 C.ar      1 <0>         0.1130
      4 C4          0.5827    5.2539    0.6846 C.ar      1 <0>         0.1044
      5 C5          0.4792    3.9618    0.1518 C.ar      1 <0>        -0.1432
      6 C6          1.3824    2.9805    0.4250 C.ar      1 <0>        -0.0989
      7 C7          1.3347    1.5428   -0.0024 C.3       1 <0>         0.0554
      8 C8         -0.9001    1.5133   -1.0007 C.3       1 <0>        -0.0108
      9 C9         -1.5910    2.7948   -0.6350 C.3       1 <0>        -0.1258
     10 C10        -0.6971    4.0056   -0.8059 C.3       1 <0>        -0.0103
     11 C11        -0.1826    4.1114   -2.2039 C.2       1 <0>        -0.1431
     12 C12        -0.4261    5.0838   -3.0166 C.2       1 <0>        -0.1500
     13 C13        -1.2664    6.2700   -2.6665 C.3       1 <0>         0.1312
     14 H1         -1.9024    6.5178   -3.5163 H         1 <0>         0.0760
     15 C14        -2.1399    6.0045   -1.4572 C.3       1 <0>        -0.1202
     16 C15        -1.4348    5.2679   -0.3507 C.3       1 <0>         0.0956
     17 H2         -2.1730    4.9944    0.4032 H         1 <0>         0.0907
     18 O1         -0.4140    6.0640    0.2649 O.3       1 <0>        -0.2584
     19 O2         -0.4111    7.3799   -2.3863 O.3       1 <0>        -0.5480
     20 O3          1.7683    6.8339    2.0652 O.3       1 <0>        -0.4772
     21 H3          3.2284    2.6015    1.4519 H         1 <0>         0.1392
     22 H4          3.4502    4.8288    2.3868 H         1 <0>         0.1472
     23 H5          1.9548    0.9534    0.6730 H         1 <0>         0.1431
     24 H6          1.7388    1.4628   -1.0115 H         1 <0>         0.1383
     25 H7         -0.3279    1.6779   -1.9138 H         1 <0>         0.1320
     26 H8         -1.6590    0.7580   -1.2048 H         1 <0>         0.1358
     27 H9         -1.9122    2.7377    0.4050 H         1 <0>         0.0948
     28 H10        -2.4697    2.9131   -1.2689 H         1 <0>         0.1217
     29 H11         0.4445    3.3092   -2.5638 H         1 <0>         0.1099
     30 H12         0.0016    5.0380   -4.0073 H         1 <0>         0.1226
     31 H13        -3.0022    5.4169   -1.7724 H         1 <0>         0.1033
     32 H14        -2.4958    6.9587   -1.0687 H         1 <0>         0.1021
     33 H15         0.1566    7.6355   -3.1262 H         1 <0>         0.3815
     34 H16         2.2646    7.4592    1.5195 H         1 <0>         0.4014
     35 N1         -0.0250    0.9737    0.0380 N.4       1 <0>        -0.5089
     36 H17        -0.4393    1.1800    0.9545 H         1 <0>         0.4333
     37 H18         0.0419   -0.0433   -0.0863 H         1 <0>         0.4428
@<TRIPOS>BOND
     1    1    6 ar
     2    1    2 ar
     3    1   21 1
     4    2    3 ar
     5    2   22 1
     6    3    4 ar
     7    3   20 1
     8    4   18 1
     9    4    5 ar
    10    5   10 1
    11    5    6 ar
    12    6    7 1
    13    7   23 1
    14    7   24 1
    15    7   35 1
    16    8    9 1
    17    8   25 1
    18    8   26 1
    19    8   35 1
    20    9   10 1
    21    9   27 1
    22    9   28 1
    23   10   16 1
    24   10   11 1
    25   11   12 2
    26   11   29 1
    27   12   13 1
    28   12   30 1
    29   13   14 1
    30   13   15 1
    31   13   19 1
    32   15   16 1
    33   15   31 1
    34   15   32 1
    35   16   17 1
    36   16   18 1
    37   19   33 1
    38   20   34 1
    39   35   36 1
    40   35   37 1
@<TRIPOS>MOLECULE
ZINC04102420
   40    43     0     0     0
SMALL
USER_CHARGES
methylBLAHdiol
@<TRIPOS>ATOM
      1 C1         -6.0233    5.3113   -1.6715 C.3       1 <0>        -0.0471
      2 C2         -3.8778    4.5381   -0.9399 C.3       1 <0>        -0.0113
      3 C3         -3.2095    3.8884    0.2373 C.3       1 <0>        -0.1264
      4 C4         -2.8224    2.4501   -0.0368 C.3       1 <0>        -0.0117
      5 C5         -1.9305    2.3462   -1.2310 C.2       1 <0>        -0.1428
      6 C6         -0.7182    1.9090   -1.2188 C.2       1 <0>        -0.1500
      7 C7         -0.0173    1.4248    0.0099 C.3       1 <0>         0.1314
      8 H1          1.0084    1.7935    0.0021 H         1 <0>         0.0759
      9 C8         -0.7035    1.9020    1.2734 C.3       1 <0>        -0.1184
     10 C9         -2.2045    1.8239    1.2160 C.3       1 <0>         0.0957
     11 H2         -2.6194    2.3309    2.0871 H         1 <0>         0.0888
     12 O1         -2.6784    0.4709    1.1971 O.3       1 <0>        -0.2567
     13 C10        -3.8383    0.4251    0.5051 C.ar      1 <0>         0.1021
     14 C11        -4.0466    1.5819   -0.2588 C.ar      1 <0>        -0.1428
     15 C12        -5.1244    1.7389   -1.0745 C.ar      1 <0>        -0.0991
     16 C13        -6.0128    0.6552   -1.1540 C.ar      1 <0>        -0.1215
     17 C14        -5.8420   -0.4799   -0.3972 C.ar      1 <0>        -0.0990
     18 C15        -4.7608   -0.6275    0.4631 C.ar      1 <0>         0.1142
     19 O2         -4.6059   -1.7413    1.2278 O.3       1 <0>        -0.4759
     20 C16        -5.5228    2.9647   -1.8427 C.3       1 <0>         0.0563
     21 O3          0.0021   -0.0041    0.0020 O.3       1 <0>        -0.5468
     22 H3         -5.6093    5.5817   -2.6429 H         1 <0>         0.1293
     23 H4         -7.0668    5.0193   -1.7899 H         1 <0>         0.1244
     24 H5         -5.9594    6.1663   -0.9985 H         1 <0>         0.1228
     25 H6         -3.8072    5.6196   -0.8234 H         1 <0>         0.1336
     26 H7         -3.3385    4.2536   -1.8434 H         1 <0>         0.1337
     27 H8         -3.8906    3.9143    1.0879 H         1 <0>         0.0931
     28 H9         -2.3120    4.4532    0.4893 H         1 <0>         0.1215
     29 H10        -2.3348    2.6629   -2.1811 H         1 <0>         0.1094
     30 H11        -0.1765    1.8922   -2.1530 H         1 <0>         0.1223
     31 H12        -0.3553    1.2948    2.1090 H         1 <0>         0.1022
     32 H13        -0.4177    2.9381    1.4545 H         1 <0>         0.1031
     33 H14        -6.8544    0.7147   -1.8282 H         1 <0>         0.1394
     34 H15        -6.5664   -1.2772   -0.4735 H         1 <0>         0.1476
     35 H16        -5.0250   -1.6828    2.0973 H         1 <0>         0.3996
     36 H17        -6.5880    2.9092   -2.0675 H         1 <0>         0.1402
     37 H18        -4.9659    2.9886   -2.7794 H         1 <0>         0.1395
     38 H19         0.4417   -0.3872   -0.7693 H         1 <0>         0.3820
     39 N1         -5.2982    4.2024   -1.0543 N.4       1 <0>        -0.3873
     40 H20        -5.6683    4.0528   -0.1083 H         1 <0>         0.4285
@<TRIPOS>BOND
     1    1   22 1
     2    1   23 1
     3    1   24 1
     4    1   39 1
     5    2    3 1
     6    2   25 1
     7    2   26 1
     8    2   39 1
     9    3    4 1
    10    3   27 1
    11    3   28 1
    12    4   10 1
    13    4   14 1
    14    4    5 1
    15    5    6 2
    16    5   29 1
    17    6    7 1
    18    6   30 1
    19    7    8 1
    20    7    9 1
    21    7   21 1
    22    9   10 1
    23    9   31 1
    24    9   32 1
    25   10   11 1
    26   10   12 1
    27   12   13 1
    28   13   18 ar
    29   13   14 ar
    30   14   15 ar
    31   15   16 ar
    32   15   20 1
    33   16   17 ar
    34   16   33 1
    35   17   18 ar
    36   17   34 1
    37   18   19 1
    38   19   35 1
    39   20   36 1
    40   20   37 1
    41   20   39 1
    42   21   38 1
    43   39   40 1
@<TRIPOS>MOLECULE
ZINC21989834
   29    30     0     0     0
SMALL
USER_CHARGES
(2R)-5,7-dimethoxy-2-methyl-indan-1-one
@<TRIPOS>ATOM
      1 C1         -0.0127    1.0858    0.0080 C.3       1 <0>        -0.1423
      2 C2         -0.7288    1.5792    1.2668 C.3       1 <0>        -0.1446
      3 H1         -1.7452    1.1588    1.2541 H         1 <0>         0.1141
      4 C3         -0.7321    3.1135    1.3099 C.3       1 <0>        -0.0804
      5 C4          0.0193    3.4996    2.5645 C.ar      1 <0>         0.0333
      6 C5          0.3080    4.7332    3.0801 C.ar      1 <0>        -0.1924
      7 C6          1.0227    4.8546    4.2675 C.ar      1 <0>         0.2094
      8 C7          1.4513    3.7206    4.9429 C.ar      1 <0>        -0.3219
      9 C8          1.1673    2.4671    4.4347 C.ar      1 <0>         0.2375
     10 C9          0.4416    2.3451    3.2297 C.ar      1 <0>        -0.2674
     11 C10         0.0236    1.1444    2.5008 C.2       1 <0>         0.4166
     12 O1          0.2440   -0.0017    2.8324 O.2       1 <0>        -0.4394
     13 O2          1.5843    1.3569    5.0922 O.3       1 <0>        -0.2934
     14 C11         2.3132    1.5565    6.3050 C.3       1 <0>         0.0174
     15 O3          1.3018    6.0850    4.7664 O.3       1 <0>        -0.3055
     16 C12         2.0392    6.1373    5.9893 C.3       1 <0>         0.0196
     17 H2         -0.5715    1.4096   -0.8824 H         1 <0>         0.0712
     18 H3          0.0447   -0.0126    0.0256 H         1 <0>         0.0674
     19 H4          1.0035    1.5057   -0.0241 H         1 <0>         0.0600
     20 H5         -0.2329    3.5066    0.4120 H         1 <0>         0.1011
     21 H6         -1.7697    3.4772    1.3414 H         1 <0>         0.0996
     22 H7         -0.0215    5.6209    2.5607 H         1 <0>         0.1399
     23 H8          2.0061    3.8174    5.8644 H         1 <0>         0.1432
     24 H9          2.5886    0.5809    6.7320 H         1 <0>         0.1087
     25 H10         1.6873    2.1073    7.0225 H         1 <0>         0.0596
     26 H11         3.2247    2.1349    6.0940 H         1 <0>         0.0596
     27 H12         2.1951    7.1870    6.2788 H         1 <0>         0.1086
     28 H13         3.0138    5.6464    5.8510 H         1 <0>         0.0602
     29 H14         1.4762    5.6188    6.7794 H         1 <0>         0.0603
@<TRIPOS>BOND
     1    1    2 1
     2    1   17 1
     3    1   18 1
     4    1   19 1
     5    2    3 1
     6    2   11 1
     7    2    4 1
     8    4    5 1
     9    4   20 1
    10    4   21 1
    11    5   10 ar
    12    5    6 ar
    13    6    7 ar
    14    6   22 1
    15    7    8 ar
    16    7   15 1
    17    8    9 ar
    18    8   23 1
    19    9   10 ar
    20    9   13 1
    21   10   11 1
    22   11   12 2
    23   13   14 1
    24   14   24 1
    25   14   25 1
    26   14   26 1
    27   15   16 1
    28   16   27 1
    29   16   28 1
    30   16   29 1
@<TRIPOS>MOLECULE
ZINC21989837
   29    30     0     0     0
SMALL
USER_CHARGES
(2S)-5,7-dimethoxy-2-methyl-indan-1-one
@<TRIPOS>ATOM
      1 C1         -0.8059   -5.1784   -1.0219 C.3       1 <0>        -0.1423
      2 C2          0.4779   -4.3894   -0.7572 C.3       1 <0>        -0.1443
      3 H1          1.0828   -4.9732   -0.0478 H         1 <0>         0.1143
      4 C3          1.2182   -4.1207   -2.0747 C.3       1 <0>        -0.0808
      5 C4          1.2850   -2.6190   -2.2220 C.ar      1 <0>         0.0335
      6 C5          1.8341   -1.8488   -3.2102 C.ar      1 <0>        -0.1924
      7 C6          1.7787   -0.4605   -3.1388 C.ar      1 <0>         0.2094
      8 C7          1.1596    0.1586   -2.0621 C.ar      1 <0>        -0.3219
      9 C8          0.6045   -0.6058   -1.0534 C.ar      1 <0>         0.2375
     10 C9          0.6608   -2.0147   -1.1270 C.ar      1 <0>        -0.2675
     11 C10         0.1483   -3.0264   -0.1990 C.2       1 <0>         0.4164
     12 O1         -0.4393   -2.8063    0.8396 O.2       1 <0>        -0.4395
     13 O2          0.0021   -0.0041    0.0020 O.3       1 <0>        -0.2934
     14 C11        -0.0173    1.4248    0.0099 C.3       1 <0>         0.0173
     15 O3          2.3278    0.2900   -4.1266 O.3       1 <0>        -0.3055
     16 C12         2.2355    1.7095   -3.9904 C.3       1 <0>         0.0195
     17 H2         -0.5507   -6.1684   -1.4279 H         1 <0>         0.0712
     18 H3         -1.4280   -4.6337   -1.7474 H         1 <0>         0.0600
     19 H4         -1.3620   -5.3004   -0.0807 H         1 <0>         0.0674
     20 H5          2.2261   -4.5585   -2.0248 H         1 <0>         0.0996
     21 H6          0.6616   -4.5755   -2.9074 H         1 <0>         0.1011
     22 H7          2.3151   -2.3226   -4.0531 H         1 <0>         0.1399
     23 H8          1.1146    1.2364   -2.0109 H         1 <0>         0.1432
     24 H9         -0.5322    1.7795    0.9149 H         1 <0>         0.1087
     25 H10        -0.5493    1.7892   -0.8813 H         1 <0>         0.0596
     26 H11         1.0147    1.8055    0.0021 H         1 <0>         0.0596
     27 H12         2.7171    2.1927   -4.8533 H         1 <0>         0.1086
     28 H13         2.7414    2.0227   -3.0652 H         1 <0>         0.0603
     29 H14         1.1770    2.0057   -3.9478 H         1 <0>         0.0603
@<TRIPOS>BOND
     1    1    2 1
     2    1   17 1
     3    1   18 1
     4    1   19 1
     5    2    3 1
     6    2   11 1
     7    2    4 1
     8    4    5 1
     9    4   20 1
    10    4   21 1
    11    5   10 ar
    12    5    6 ar
    13    6    7 ar
    14    6   22 1
    15    7    8 ar
    16    7   15 1
    17    8    9 ar
    18    8   23 1
    19    9   10 ar
    20    9   13 1
    21   10   11 1
    22   11   12 2
    23   13   14 1
    24   14   24 1
    25   14   25 1
    26   14   26 1
    27   15   16 1
    28   16   27 1
    29   16   28 1
    30   16   29 1
@<TRIPOS>MOLECULE
ZINC01693359
   19    19     0     0     0
SMALL
USER_CHARGES
1-methoxy-4-methyl-benzene
@<TRIPOS>ATOM
      1 C1          1.2256   -2.1871   -0.0209 C.3       1 <0>        -0.1113
      2 C2          1.2080   -0.6802   -0.0131 C.ar      1 <0>        -0.1249
      3 C3          0.0021   -0.0041    0.0020 C.ar      1 <0>        -0.0813
      4 C4         -0.0167    1.3772    0.0096 C.ar      1 <0>        -0.1486
      5 C5          1.1759    2.0860    0.0020 C.ar      1 <0>         0.1199
      6 C6          2.3846    1.4052   -0.0127 C.ar      1 <0>        -0.2050
      7 C7          2.3980    0.0239   -0.0207 C.ar      1 <0>        -0.0813
      8 O1          1.1601    3.4449    0.0099 O.3       1 <0>        -0.3187
      9 C8          2.4257    4.1084    0.0014 C.3       1 <0>         0.0269
     10 H1          1.2198   -2.5452   -1.0504 H         1 <0>         0.0686
     11 H2          2.1247   -2.5426    0.4824 H         1 <0>         0.0648
     12 H3          0.3449   -2.5634    0.4997 H         1 <0>         0.0658
     13 H4         -0.9261   -0.5563    0.0076 H         1 <0>         0.1296
     14 H5         -0.9589    1.9049    0.0169 H         1 <0>         0.1310
     15 H6          3.3144    1.9547   -0.0186 H         1 <0>         0.1280
     16 H7          3.3387   -0.5065   -0.0325 H         1 <0>         0.1247
     17 H8          2.9947    3.8170    0.8842 H         1 <0>         0.0555
     18 H9          2.9774    3.8272   -0.8956 H         1 <0>         0.0555
     19 H10         2.2704    5.1873    0.0090 H         1 <0>         0.1010
@<TRIPOS>BOND
     1    1    2 1
     2    1   10 1
     3    1   11 1
     4    1   12 1
     5    2    7 ar
     6    2    3 ar
     7    3    4 ar
     8    3   13 1
     9    4    5 ar
    10    4   14 1
    11    5    6 ar
    12    5    8 1
    13    6    7 ar
    14    6   15 1
    15    7   16 1
    16    8    9 1
    17    9   17 1
    18    9   18 1
    19    9   19 1
@<TRIPOS>MOLECULE
ZINC02010406
   54    56     0     0     0
SMALL
USER_CHARGES
2-[1-[2-[[5-(1-piperidylmethyl)-2-furyl]methylamino]ethyl]imidazolidin-2-ylidene]propanedinitrile
@<TRIPOS>ATOM
      1 C1         -0.9215    1.5612    1.3558 C.2       1 <0>        -0.1361
      2 C2          0.1901    0.7280    1.6188 C.2       1 <0>        -0.1490
      3 C3          1.2697    1.5277    1.6843 C.2       1 <0>        -0.0511
      4 O1          0.8723    2.7946    1.4819 O.3       1 <0>        -0.1589
      5 C4         -0.4560    2.8213    1.2859 C.2       1 <0>        -0.0644
      6 C5         -1.2839    4.0534    1.0256 C.3       1 <0>         0.0932
      7 C6         -2.5625    5.8137    2.0881 C.3       1 <0>        -0.0374
      8 C7         -3.0289    6.3620    3.4382 C.3       1 <0>         0.1089
      9 N1         -3.8390    7.5637    3.2237 N.pl3     1 <0>        -0.6032
     10 C8         -3.3460    8.9468    3.2887 C.3       1 <0>         0.0874
     11 C9         -4.5869    9.8077    2.9880 C.3       1 <0>         0.0805
     12 N2         -5.6671    8.8311    2.7895 N.pl3     1 <0>        -0.6921
     13 C10        -5.1663    7.5781    2.9390 C.2       1 <0>         0.5640
     14 C11        -5.9381    6.4218    2.8134 C.2       1 <0>        -0.2493
     15 C12        -7.3568    6.5224    2.6472 C.1       1 <0>         0.2665
     16 N3         -8.4823    6.6022    2.5154 N.1       1 <0>        -0.4158
     17 C13        -5.3110    5.1349    2.8508 C.1       1 <0>         0.3252
     18 N4         -4.8136    4.1140    2.8804 N.1       1 <0>        -0.5023
     19 C14         2.6849    1.0785    1.9420 C.3       1 <0>         0.0861
     20 C15         2.7174   -0.3802    0.0103 C.3       1 <0>        -0.0096
     21 C16         3.3295   -0.5758   -1.3786 C.3       1 <0>        -0.1457
     22 C17         4.8380   -0.7989   -1.2394 C.3       1 <0>        -0.1415
     23 C18         5.4580    0.3977   -0.5126 C.3       1 <0>        -0.1476
     24 C19         4.7842    0.5650    0.8512 C.3       1 <0>        -0.0023
     25 H1         -1.9478    1.2466    1.2369 H         1 <0>         0.1781
     26 H2          0.1758   -0.3452    1.7393 H         1 <0>         0.1762
     27 H3         -0.6774    4.7956    0.5066 H         1 <0>         0.1539
     28 H4         -2.1430    3.7902    0.4086 H         1 <0>         0.1669
     29 H5         -1.9650    6.5682    1.5764 H         1 <0>         0.1459
     30 H6         -3.4305    5.5628    1.4784 H         1 <0>         0.1414
     31 H7         -3.6265    5.6076    3.9499 H         1 <0>         0.1165
     32 H8         -2.1609    6.6130    4.0479 H         1 <0>         0.1211
     33 H9         -2.9591    9.1672    4.2836 H         1 <0>         0.1049
     34 H10        -2.5771    9.1132    2.5343 H         1 <0>         0.0991
     35 H11        -4.4356   10.3976    2.0840 H         1 <0>         0.1073
     36 H12        -4.8106   10.4566    3.8347 H         1 <0>         0.1071
     37 H13        -6.5903    9.0472    2.5845 H         1 <0>         0.4494
     38 H14         3.2305    1.8717    2.4531 H         1 <0>         0.1501
     39 H15         2.6745    0.1846    2.5656 H         1 <0>         0.1656
     40 H16         2.8880   -1.2734    0.6114 H         1 <0>         0.1363
     41 H17         1.6456   -0.2069   -0.0863 H         1 <0>         0.1239
     42 H18         3.1473    0.3116   -1.9848 H         1 <0>         0.0862
     43 H19         2.8760   -1.4437   -1.8573 H         1 <0>         0.1153
     44 H20         5.2848   -0.8955   -2.2289 H         1 <0>         0.0980
     45 H21         5.0204   -1.7078   -0.6661 H         1 <0>         0.0851
     46 H22         5.3093    1.3004   -1.1052 H         1 <0>         0.0878
     47 H23         6.5252    0.2253   -0.3725 H         1 <0>         0.1178
     48 H24         5.2136    1.4249    1.3654 H         1 <0>         0.1319
     49 H25         4.9451   -0.3326    1.4484 H         1 <0>         0.1364
     50 N5         -1.7481    4.6046    2.3127 N.4       1 <0>        -0.5177
     51 H26        -0.9346    4.8467    2.8905 H         1 <0>         0.4351
     52 H27        -2.3151    3.8997    2.7983 H         1 <0>         0.4428
     53 N6          3.3392    0.8006    0.6468 N.4       1 <0>        -0.3958
     54 H28         3.2181    1.6132    0.0310 H         1 <0>         0.4278
@<TRIPOS>BOND
     1    1    5 2
     2    1    2 1
     3    1   25 1
     4    2    3 2
     5    2   26 1
     6    3    4 1
     7    3   19 1
     8    4    5 1
     9    5    6 1
    10    6   27 1
    11    6   28 1
    12    6   50 1
    13    7    8 1
    14    7   29 1
    15    7   30 1
    16    7   50 1
    17    8    9 1
    18    8   31 1
    19    8   32 1
    20    9   13 1
    21    9   10 1
    22   10   11 1
    23   10   33 1
    24   10   34 1
    25   11   12 1
    26   11   35 1
    27   11   36 1
    28   12   13 1
    29   12   37 1
    30   13   14 2
    31   14   15 1
    32   14   17 1
    33   15   16 3
    34   17   18 3
    35   19   38 1
    36   19   39 1
    37   19   53 1
    38   20   21 1
    39   20   40 1
    40   20   41 1
    41   20   53 1
    42   21   22 1
    43   21   42 1
    44   21   43 1
    45   22   23 1
    46   22   44 1
    47   22   45 1
    48   23   24 1
    49   23   46 1
    50   23   47 1
    51   24   48 1
    52   24   49 1
    53   24   53 1
    54   50   51 1
    55   50   52 1
    56   53   54 1
@<TRIPOS>MOLECULE
ZINC21989839
   29    30     0     0     0
SMALL
USER_CHARGES
(2R)-5,6-dimethoxy-2-methyl-indan-1-one
@<TRIPOS>ATOM
      1 C1          0.1483    2.4971    2.0831 C.3       1 <0>        -0.1427
      2 C2         -0.7622    1.5962    1.2463 C.3       1 <0>        -0.1439
      3 H1         -1.1027    0.7780    1.8979 H         1 <0>         0.1154
      4 C3         -0.0127    1.0858    0.0080 C.3       1 <0>        -0.0781
      5 C4         -0.7733    1.6011   -1.1907 C.ar      1 <0>        -0.0342
      6 C5         -0.5340    1.4368   -2.5402 C.ar      1 <0>        -0.1805
      7 C6         -1.3813    2.0103   -3.4776 C.ar      1 <0>         0.1447
      8 C7         -2.4824    2.7577   -3.0588 C.ar      1 <0>         0.0850
      9 C8         -2.7292    2.9270   -1.7136 C.ar      1 <0>        -0.1059
     10 C9         -1.8725    2.3472   -0.7612 C.ar      1 <0>        -0.1942
     11 C10        -1.9304    2.3876    0.7066 C.2       1 <0>         0.4135
     12 O1         -2.7704    2.9579    1.3701 O.2       1 <0>        -0.4421
     13 O2         -3.3126    3.3190   -3.9782 O.3       1 <0>        -0.3035
     14 C11        -4.4203    4.0710   -3.4786 C.3       1 <0>         0.0197
     15 O3         -1.1390    1.8435   -4.8028 O.3       1 <0>        -0.2979
     16 C12         0.0055    1.0661   -5.1603 C.3       1 <0>         0.0185
     17 H2          0.9932    1.9077    2.4688 H         1 <0>         0.0722
     18 H3         -0.4227    2.9142    2.9257 H         1 <0>         0.0677
     19 H4          0.5290    3.3171    1.4564 H         1 <0>         0.0605
     20 H5          1.0172    1.4720    0.0177 H         1 <0>         0.0962
     21 H6          0.0080   -0.0139    0.0193 H         1 <0>         0.0945
     22 H7          0.3171    0.8586   -2.8682 H         1 <0>         0.1435
     23 H8         -3.5820    3.5054   -1.3904 H         1 <0>         0.1426
     24 H9         -5.0054    4.4662   -4.3221 H         1 <0>         0.1062
     25 H10        -4.0500    4.9062   -2.8659 H         1 <0>         0.0578
     26 H11        -5.0581    3.4194   -2.8633 H         1 <0>         0.0578
     27 H12         0.0836    1.0111   -6.2561 H         1 <0>         0.1068
     28 H13        -0.0975    0.0512   -4.7486 H         1 <0>         0.0602
     29 H14         0.9113    1.5376   -4.7513 H         1 <0>         0.0602
@<TRIPOS>BOND
     1    1    2 1
     2    1   17 1
     3    1   18 1
     4    1   19 1
     5    2    3 1
     6    2   11 1
     7    2    4 1
     8    4    5 1
     9    4   20 1
    10    4   21 1
    11    5   10 ar
    12    5    6 ar
    13    6    7 ar
    14    6   22 1
    15    7    8 ar
    16    7   15 1
    17    8    9 ar
    18    8   13 1
    19    9   10 ar
    20    9   23 1
    21   10   11 1
    22   11   12 2
    23   13   14 1
    24   14   24 1
    25   14   25 1
    26   14   26 1
    27   15   16 1
    28   16   27 1
    29   16   28 1
    30   16   29 1
@<TRIPOS>MOLECULE
ZINC21989842
   29    30     0     0     0
SMALL
USER_CHARGES
(2S)-5,6-dimethoxy-2-methyl-indan-1-one
@<TRIPOS>ATOM
      1 C1          4.2062   -0.2811    5.8894 C.3       1 <0>        -0.1427
      2 C2          2.8747   -0.8904    5.4459 C.3       1 <0>        -0.1442
      3 H1          2.8659   -1.9393    5.7772 H         1 <0>         0.1154
      4 C3          1.7028   -0.0848    6.0231 C.3       1 <0>        -0.0781
      5 C4          0.9296    0.4448    4.8388 C.ar      1 <0>        -0.0342
      6 C5         -0.2073    1.2262    4.7897 C.ar      1 <0>        -0.1806
      7 C6         -0.7478    1.6020    3.5682 C.ar      1 <0>         0.1448
      8 C7         -0.1484    1.1819    2.3805 C.ar      1 <0>         0.0850
      9 C8          0.9870    0.4020    2.4198 C.ar      1 <0>        -0.1059
     10 C9          1.5403    0.0239    3.6559 C.ar      1 <0>        -0.1942
     11 C10         2.7278   -0.7913    3.9470 C.2       1 <0>         0.4136
     12 O1          3.4628   -1.2967    3.1251 O.2       1 <0>        -0.4422
     13 O2         -0.6816    1.5467    1.1837 O.3       1 <0>        -0.3035
     14 C11        -0.0127    1.0858    0.0080 C.3       1 <0>         0.0197
     15 O3         -1.8629    2.3752    3.5289 O.3       1 <0>        -0.2979
     16 C12        -2.4239    2.7690    4.7828 C.3       1 <0>         0.0185
     17 H2          4.2996   -0.3602    6.9826 H         1 <0>         0.0722
     18 H3          4.2413    0.7779    5.5941 H         1 <0>         0.0605
     19 H4          5.0350   -0.8230    5.4104 H         1 <0>         0.0677
     20 H5          1.0754   -0.7427    6.6424 H         1 <0>         0.0946
     21 H6          2.0923    0.7380    6.6406 H         1 <0>         0.0962
     22 H7         -0.6766    1.5496    5.7071 H         1 <0>         0.1435
     23 H8          1.4528    0.0809    1.4998 H         1 <0>         0.1426
     24 H9         -0.5447    1.4502   -0.8832 H         1 <0>         0.1062
     25 H10         0.0022   -0.0141    0.0020 H         1 <0>         0.0578
     26 H11         1.0193    1.4666    0.0002 H         1 <0>         0.0577
     27 H12        -3.3165    3.3874    4.6071 H         1 <0>         0.1069
     28 H13        -1.6817    3.3494    5.3504 H         1 <0>         0.0602
     29 H14        -2.7053    1.8733    5.3560 H         1 <0>         0.0602
@<TRIPOS>BOND
     1    1    2 1
     2    1   17 1
     3    1   18 1
     4    1   19 1
     5    2    3 1
     6    2   11 1
     7    2    4 1
     8    4    5 1
     9    4   20 1
    10    4   21 1
    11    5   10 ar
    12    5    6 ar
    13    6    7 ar
    14    6   22 1
    15    7    8 ar
    16    7   15 1
    17    8    9 ar
    18    8   13 1
    19    9   10 ar
    20    9   23 1
    21   10   11 1
    22   11   12 2
    23   13   14 1
    24   14   24 1
    25   14   25 1
    26   14   26 1
    27   15   16 1
    28   16   27 1
    29   16   28 1
    30   16   29 1
@<TRIPOS>MOLECULE
ZINC04575768
   40    42     0     0     0
SMALL
USER_CHARGES
4-methyl-1-(1-naphthylmethyl)piperidine
@<TRIPOS>ATOM
      1 C1         -0.3570    0.0956    0.1416 C.3       1 <0>        -0.1540
      2 C2         -0.2632    1.6225    0.1182 C.3       1 <0>        -0.1036
      3 C3         -0.9982    2.1615   -1.1122 C.3       1 <0>        -0.1437
      4 C4         -0.8492    3.6838   -1.1631 C.3       1 <0>        -0.0029
      5 C5          1.2923    3.5696   -0.0347 C.3       1 <0>        -0.0039
      6 C6          1.2073    2.0439    0.0499 C.3       1 <0>        -0.1448
      7 C7          0.7519    5.4815   -1.4178 C.3       1 <0>         0.0489
      8 C8          0.3478    5.8576   -2.8200 C.ar      1 <0>        -0.1623
      9 C9         -0.8289    6.5049   -3.0426 C.ar      1 <0>        -0.0578
     10 C10        -1.2193    6.8607   -4.3319 C.ar      1 <0>        -0.1314
     11 C11        -0.4352    6.5716   -5.4065 C.ar      1 <0>        -0.0591
     12 C12         0.7867    5.9047   -5.2161 C.ar      1 <0>        -0.0581
     13 C13         1.1862    5.5472   -3.9039 C.ar      1 <0>        -0.0315
     14 C14         2.4065    4.8763   -3.7140 C.ar      1 <0>        -0.1567
     15 C15         3.1899    4.5866   -4.7884 C.ar      1 <0>        -0.0762
     16 C16         2.7991    4.9419   -6.0783 C.ar      1 <0>        -0.1173
     17 C17         1.6227    5.5889   -6.3009 C.ar      1 <0>        -0.0827
     18 H1          0.1712   -0.2875    1.0148 H         1 <0>         0.0674
     19 H2         -1.4041   -0.2034    0.1903 H         1 <0>         0.0673
     20 H3          0.0950   -0.3101   -0.7634 H         1 <0>         0.0615
     21 H4         -0.7171    2.0293    1.0219 H         1 <0>         0.0890
     22 H5         -0.5689    1.7235   -2.0133 H         1 <0>         0.0862
     23 H6         -2.0547    1.9012   -1.0481 H         1 <0>         0.1118
     24 H7         -1.2910    4.1220   -0.2682 H         1 <0>         0.1305
     25 H8         -1.3593    4.0693   -2.0459 H         1 <0>         0.1264
     26 H9          0.8405    4.0084    0.8549 H         1 <0>         0.1321
     27 H10         2.3375    3.8721   -0.0979 H         1 <0>         0.1275
     28 H11         1.7264    1.6995    0.9443 H         1 <0>         0.1130
     29 H12         1.6712    1.6040   -0.8330 H         1 <0>         0.0870
     30 H13         0.1296    6.0204   -0.7034 H         1 <0>         0.1388
     31 H14         1.7979    5.7435   -1.2585 H         1 <0>         0.1351
     32 H15        -1.4696    6.7460   -2.2072 H         1 <0>         0.1336
     33 H16        -2.1579    7.3737   -4.4809 H         1 <0>         0.1379
     34 H17        -0.7505    6.8539   -6.4001 H         1 <0>         0.1402
     35 H18         2.7226    4.5954   -2.7202 H         1 <0>         0.1169
     36 H19         4.1287    4.0740   -4.6393 H         1 <0>         0.1326
     37 H20         3.4397    4.7005   -6.9136 H         1 <0>         0.1348
     38 H21         1.3333    5.8587   -7.3058 H         1 <0>         0.1383
     39 N1          0.5870    4.0226   -1.2526 N.4       1 <0>        -0.3956
     40 H22         0.9911    3.5470   -2.0679 H         1 <0>         0.4246
@<TRIPOS>BOND
     1    1    2 1
     2    1   18 1
     3    1   19 1
     4    1   20 1
     5    2    6 1
     6    2    3 1
     7    2   21 1
     8    3    4 1
     9    3   22 1
    10    3   23 1
    11    4   24 1
    12    4   25 1
    13    4   39 1
    14    5    6 1
    15    5   26 1
    16    5   27 1
    17    5   39 1
    18    6   28 1
    19    6   29 1
    20    7    8 1
    21    7   30 1
    22    7   31 1
    23    7   39 1
    24    8   13 ar
    25    8    9 ar
    26    9   10 ar
    27    9   32 1
    28   10   11 ar
    29   10   33 1
    30   11   12 ar
    31   11   34 1
    32   12   17 ar
    33   12   13 ar
    34   13   14 ar
    35   14   15 ar
    36   14   35 1
    37   15   16 ar
    38   15   36 1
    39   16   17 ar
    40   16   37 1
    41   17   38 1
    42   39   40 1
@<TRIPOS>MOLECULE
ZINC01694402
   21    22     0     0     0
SMALL
USER_CHARGES
2-methylindan-1-one
@<TRIPOS>ATOM
      1 C1          1.6990    2.7791    1.2565 C.3       1 <0>        -0.1402
      2 C2          1.4103    1.9566   -0.0009 C.3       1 <0>        -0.1334
      3 H1          1.5871    2.5143   -0.8119 H         1 <0>         0.1024
      4 C3          2.2734    0.6875   -0.0160 C.3       1 <0>        -0.0834
      5 C4          1.3135   -0.4781   -0.0131 C.ar      1 <0>        -0.0460
      6 C5          1.5544   -1.8390   -0.0227 C.ar      1 <0>        -0.1227
      7 C6          0.5009   -2.7346   -0.0179 C.ar      1 <0>        -0.0795
      8 C7         -0.8044   -2.2741   -0.0025 C.ar      1 <0>        -0.1368
      9 C8         -1.0607   -0.9212    0.0077 C.ar      1 <0>        -0.0497
     10 C9          0.0021   -0.0041    0.0020 C.ar      1 <0>        -0.1950
     11 C10        -0.0179    1.4681    0.0101 C.2       1 <0>         0.4088
     12 O1         -1.0091    2.1665    0.0188 O.2       1 <0>        -0.4382
     13 H2          1.5163    2.1678    2.1404 H         1 <0>         0.0613
     14 H3          2.7396    3.1032    1.2477 H         1 <0>         0.0722
     15 H4          1.0467    3.6521    1.2773 H         1 <0>         0.0675
     16 H5          2.9055    0.6541    0.8714 H         1 <0>         0.0958
     17 H6          2.8892    0.6631   -0.9150 H         1 <0>         0.0936
     18 H7          2.5705   -2.2048   -0.0343 H         1 <0>         0.1298
     19 H8          0.6970   -3.7966   -0.0258 H         1 <0>         0.1321
     20 H9         -1.6238   -2.9776    0.0019 H         1 <0>         0.1320
     21 H10        -2.0803   -0.5654    0.0197 H         1 <0>         0.1293
@<TRIPOS>BOND
     1    1    2 1
     2    1   13 1
     3    1   14 1
     4    1   15 1
     5    2    3 1
     6    2   11 1
     7    2    4 1
     8    4    5 1
     9    4   16 1
    10    4   17 1
    11    5   10 ar
    12    5    6 ar
    13    6    7 ar
    14    6   18 1
    15    7    8 ar
    16    7   19 1
    17    8    9 ar
    18    8   20 1
    19    9   10 ar
    20    9   21 1
    21   10   11 1
    22   11   12 2
@<TRIPOS>MOLECULE
ZINC02043598
   21    22     0     0     0
SMALL
USER_CHARGES
2-methylindan-1-one
@<TRIPOS>ATOM
      1 C1         -2.0872    1.8218   -1.2351 C.3       1 <0>        -0.1400
      2 C2         -1.2483    2.0778    0.0186 C.3       1 <0>        -0.1334
      3 H1         -1.8011    1.8975    0.8321 H         1 <0>         0.1022
      4 C3         -0.7274    3.5216    0.0279 C.3       1 <0>        -0.0834
      5 C4          0.7795    3.4288    0.0130 C.ar      1 <0>        -0.0460
      6 C5          1.7398    4.4228    0.0096 C.ar      1 <0>        -0.1227
      7 C6          3.0833    4.0957   -0.0046 C.ar      1 <0>        -0.0795
      8 C7          3.4766    2.7686   -0.0154 C.ar      1 <0>        -0.1368
      9 C8          2.5320    1.7669   -0.0122 C.ar      1 <0>        -0.0497
     10 C9          1.1656    2.0888    0.0021 C.ar      1 <0>        -0.1951
     11 C10        -0.0144    1.2083    0.0087 C.2       1 <0>         0.4088
     12 O1          0.0021   -0.0041    0.0020 O.2       1 <0>        -0.4382
     13 H2         -2.4111    0.7811   -1.2493 H         1 <0>         0.0676
     14 H3         -2.9605    2.4740   -1.2273 H         1 <0>         0.0723
     15 H4         -1.4877    2.0279   -2.1218 H         1 <0>         0.0613
     16 H5         -1.0618    4.0384    0.9275 H         1 <0>         0.0939
     17 H6         -1.0788    4.0489   -0.8589 H         1 <0>         0.0955
     18 H7          1.4395    5.4601    0.0177 H         1 <0>         0.1298
     19 H8          3.8279    4.8780   -0.0075 H         1 <0>         0.1321
     20 H9          4.5272    2.5182   -0.0265 H         1 <0>         0.1320
     21 H10         2.8424    0.7325   -0.0207 H         1 <0>         0.1293
@<TRIPOS>BOND
     1    1    2 1
     2    1   13 1
     3    1   14 1
     4    1   15 1
     5    2    3 1
     6    2   11 1
     7    2    4 1
     8    4    5 1
     9    4   16 1
    10    4   17 1
    11    5   10 ar
    12    5    6 ar
    13    6    7 ar
    14    6   18 1
    15    7    8 ar
    16    7   19 1
    17    8    9 ar
    18    8   20 1
    19    9   10 ar
    20    9   21 1
    21   10   11 1
    22   11   12 2
@<TRIPOS>MOLECULE
ZINC01700067
   17    17     0     0     0
SMALL
USER_CHARGES

@<TRIPOS>ATOM
      1 C1         -0.0184    1.5028    0.0103 C.3       1 <0>        -0.1266
      2 C2          0.0021   -0.0041    0.0020 C.ar      1 <0>        -0.0319
      3 C3          0.0057   -0.6887   -1.1989 C.ar      1 <0>        -0.1214
      4 C4          0.0245   -2.0709   -1.2065 C.ar      1 <0>        -0.0501
      5 C5          0.0400   -2.7685   -0.0132 C.ar      1 <0>        -0.0582
      6 C6          0.0373   -2.0839    1.1877 C.ar      1 <0>        -0.0501
      7 C7          0.0229   -0.7016    1.1953 C.ar      1 <0>        -0.1214
      8 N1          0.0591   -4.2485   -0.0213 N.pl3     1 <0>         0.0332
      9 O1          0.0611   -4.8473   -1.0717 O.2       1 <0>        -0.1590
     10 O2          0.0727   -4.8586    1.0223 O.3       1 <0>        -0.1586
     11 H1          1.0042    1.8801    0.0026 H         1 <0>         0.0849
     12 H2         -0.5455    1.8639   -0.8728 H         1 <0>         0.0777
     13 H3         -0.5286    1.8543    0.9071 H         1 <0>         0.0776
     14 H4         -0.0064   -0.1436   -2.1312 H         1 <0>         0.1478
     15 H5          0.0266   -2.6057   -2.1448 H         1 <0>         0.1541
     16 H6          0.0491   -2.6289    2.1200 H         1 <0>         0.1541
     17 H7          0.0245   -0.1667    2.1335 H         1 <0>         0.1478
@<TRIPOS>BOND
     1    1    2 1
     2    1   11 1
     3    1   12 1
     4    1   13 1
     5    2    7 ar
     6    2    3 ar
     7    3    4 ar
     8    3   14 1
     9    4    5 ar
    10    4   15 1
    11    5    6 ar
    12    5    8 1
    13    6    7 ar
    14    6   16 1
    15    7   17 1
    16    8    9 2
    17    8   10 1
@<TRIPOS>MOLECULE
ZINC21989874
   29    30     0     0     0
SMALL
USER_CHARGES
(2S)-4,5-dimethoxy-2-methyl-indan-1-one
@<TRIPOS>ATOM
      1 C1         -1.2976   -1.4471   -4.3813 C.3       1 <0>        -0.1422
      2 C2         -0.0297   -1.4123   -3.5256 C.3       1 <0>        -0.1448
      3 H1          0.8272   -1.4282   -4.2151 H         1 <0>         0.1153
      4 C3         -0.0334   -0.1733   -2.6198 C.3       1 <0>        -0.0751
      5 C4         -0.0057   -0.6872   -1.2003 C.ar      1 <0>        -0.0223
      6 C5          0.0189   -2.0840   -1.2088 C.ar      1 <0>        -0.2198
      7 C6          0.0400   -2.7817    0.0107 C.ar      1 <0>        -0.0097
      8 C7          0.0419   -2.0943    1.2019 C.ar      1 <0>        -0.2154
      9 C8          0.0230   -0.7057    1.2066 C.ar      1 <0>         0.1524
     10 C9          0.0021   -0.0041    0.0020 C.ar      1 <0>         0.0580
     11 O1         -0.0164    1.3558    0.0095 O.3       1 <0>        -0.3204
     12 C10         1.2479    2.0218    0.0010 C.3       1 <0>         0.0304
     13 O2          0.0255   -0.0312    2.3847 O.3       1 <0>        -0.2992
     14 C11         0.0474   -0.8137    3.5802 C.3       1 <0>         0.0175
     15 C12         0.0132   -2.5937   -2.5870 C.2       1 <0>         0.4157
     16 O3          0.0261   -3.7618   -2.9137 O.2       1 <0>        -0.4412
     17 H2         -1.3082   -0.5788   -5.0565 H         1 <0>         0.0728
     18 H3         -2.1819   -1.4143   -3.7279 H         1 <0>         0.0611
     19 H4         -1.3142   -2.3732   -4.9746 H         1 <0>         0.0681
     20 H5          0.8534    0.4409   -2.8350 H         1 <0>         0.0941
     21 H6         -0.9425    0.4164   -2.8089 H         1 <0>         0.1021
     22 H7          0.0543   -3.8616    0.0126 H         1 <0>         0.1372
     23 H8          0.0585   -2.6359    2.1361 H         1 <0>         0.1431
     24 H9          1.0890    3.1102    0.0084 H         1 <0>         0.0978
     25 H10         1.8053    1.7387   -0.9041 H         1 <0>         0.0458
     26 H11         1.8225    1.7291    0.8921 H         1 <0>         0.0479
     27 H12         0.0471   -0.1468    4.4550 H         1 <0>         0.1080
     28 H13         0.9540   -1.4365    3.5942 H         1 <0>         0.0608
     29 H14        -0.8420   -1.4602    3.6116 H         1 <0>         0.0621
@<TRIPOS>BOND
     1    1    2 1
     2    1   17 1
     3    1   18 1
     4    1   19 1
     5    2    3 1
     6    2   15 1
     7    2    4 1
     8    4    5 1
     9    4   20 1
    10    4   21 1
    11    5   10 ar
    12    5    6 ar
    13    6    7 ar
    14    6   15 1
    15    7    8 ar
    16    7   22 1
    17    8    9 ar
    18    8   23 1
    19    9   10 ar
    20    9   13 1
    21   10   11 1
    22   11   12 1
    23   12   24 1
    24   12   25 1
    25   12   26 1
    26   13   14 1
    27   14   27 1
    28   14   28 1
    29   14   29 1
    30   15   16 2
