@<TRIPOS>MOLECULE
ZINC13611494
   45    46     0     0     0
SMALL
USER_CHARGES
3-(6-fluorohex-1-ynyl)-5-[[(2S)-1-methylpyrrolidin-2-yl]methoxy]pyridine
@<TRIPOS>ATOM
      1 C1         -3.0878    2.3839    1.5872 C.3       1 <0>        -0.0362
      2 C2         -0.8009    1.6167    1.2317 C.3       1 <0>        -0.0070
      3 C3         -0.0127    1.0858    0.0080 C.3       1 <0>        -0.1483
      4 C4         -0.8223    1.6286   -1.1920 C.3       1 <0>        -0.1400
      5 C5         -2.2314    1.9037   -0.6350 C.3       1 <0>         0.0333
      6 H1         -2.4649    2.9648   -0.7234 H         1 <0>         0.1515
      7 C6         -3.2650    1.0734   -1.3987 C.3       1 <0>         0.0340
      8 O1         -4.5778    1.4215   -0.9545 O.3       1 <0>        -0.3197
      9 C7         -5.6191    0.7704   -1.5368 C.ar      1 <0>         0.0665
     10 C8         -6.9251    1.0535   -1.1586 C.ar      1 <0>        -0.0831
     11 C9         -7.9620    0.3572   -1.7875 C.ar      1 <0>         0.0266
     12 C10        -7.6456   -0.5884   -2.7640 C.ar      1 <0>         0.1020
     13 N1         -6.3919   -0.8234   -3.0906 N.ar      1 <0>        -0.4390
     14 C11        -5.3905   -0.1815   -2.5209 C.ar      1 <0>         0.0279
     15 C12        -9.3267    0.6101   -1.4350 C.1       1 <0>        -0.1777
     16 C13       -10.4455    0.8175   -1.1459 C.1       1 <0>        -0.0992
     17 C14       -11.8483    1.0774   -0.7835 C.3       1 <0>        -0.0179
     18 C15       -12.1814    2.5459   -1.0547 C.3       1 <0>        -0.1132
     19 C16       -13.6395    2.8161   -0.6780 C.3       1 <0>        -0.1568
     20 C17       -13.9726    4.2846   -0.9492 C.3       1 <0>         0.0608
     21 F1        -15.3058    4.5316   -0.6048 F         1 <0>        -0.2162
     22 H2         -4.1102    2.3192    1.2148 H         1 <0>         0.1288
     23 H3         -3.0608    2.0703    2.6308 H         1 <0>         0.1232
     24 H4         -2.7367    3.4128    1.5078 H         1 <0>         0.1195
     25 H5         -0.6178    0.9936    2.1071 H         1 <0>         0.1401
     26 H6         -0.5403    2.6552    1.4361 H         1 <0>         0.1359
     27 H7          0.0021   -0.0041    0.0020 H         1 <0>         0.0999
     28 H8          1.0019    1.4840    0.0005 H         1 <0>         0.1195
     29 H9         -0.3756    2.5508   -1.5636 H         1 <0>         0.1127
     30 H10        -0.8682    0.8829   -1.9857 H         1 <0>         0.1091
     31 H11        -3.1769    1.2759   -2.4660 H         1 <0>         0.1128
     32 H12        -3.0880    0.0138   -1.2141 H         1 <0>         0.0900
     33 H13        -7.1344    1.7917   -0.3985 H         1 <0>         0.1482
     34 H14        -8.4374   -1.1328   -3.2571 H         1 <0>         0.1704
     35 H15        -4.3771   -0.4026   -2.8218 H         1 <0>         0.1597
     36 H16       -12.5017    0.4405   -1.3798 H         1 <0>         0.0998
     37 H17       -11.9964    0.8606    0.2744 H         1 <0>         0.0993
     38 H18       -11.5281    3.1828   -0.4584 H         1 <0>         0.0709
     39 H19       -12.0333    2.7627   -2.1126 H         1 <0>         0.0719
     40 H20       -14.2928    2.1792   -1.2743 H         1 <0>         0.0803
     41 H21       -13.7876    2.5993    0.3799 H         1 <0>         0.0798
     42 H22       -13.3193    4.9214   -0.3529 H         1 <0>         0.0737
     43 H23       -13.8245    4.5013   -2.0071 H         1 <0>         0.0742
     44 N2         -2.1941    1.5010    0.7758 N.4       1 <0>        -0.3968
     45 H24        -2.5082    0.5278    0.8675 H         1 <0>         0.4286
@<TRIPOS>BOND
     1    1   22 1
     2    1   23 1
     3    1   24 1
     4    1   44 1
     5    2    3 1
     6    2   25 1
     7    2   26 1
     8    2   44 1
     9    3    4 1
    10    3   27 1
    11    3   28 1
    12    4    5 1
    13    4   29 1
    14    4   30 1
    15    5    6 1
    16    5    7 1
    17    5   44 1
    18    7    8 1
    19    7   31 1
    20    7   32 1
    21    8    9 1
    22    9   14 ar
    23    9   10 ar
    24   10   11 ar
    25   10   33 1
    26   11   12 ar
    27   11   15 1
    28   12   13 ar
    29   12   34 1
    30   13   14 ar
    31   14   35 1
    32   15   16 3
    33   16   17 1
    34   17   18 1
    35   17   36 1
    36   17   37 1
    37   18   19 1
    38   18   38 1
    39   18   39 1
    40   19   20 1
    41   19   40 1
    42   19   41 1
    43   20   21 1
    44   20   42 1
    45   20   43 1
    46   44   45 1
@<TRIPOS>MOLECULE
ZINC13704002
   28    29     0     0     0
SMALL
USER_CHARGES
3-chloro-5-[[(3R)-3-piperidyl]oxy]pyridine
@<TRIPOS>ATOM
      1 C1          1.1613    3.1801    0.4143 C.ar      1 <0>        -0.1652
      2 C2          1.1924    1.8053    0.2040 C.ar      1 <0>         0.0720
      3 C3          0.0015    1.0942    0.2188 C.ar      1 <0>         0.0978
      4 N1         -1.1464    1.7076    0.4288 N.ar      1 <0>        -0.4203
      5 C4         -1.2119    3.0086    0.6315 C.ar      1 <0>         0.0934
      6 C5         -0.0663    3.7849    0.6366 C.ar      1 <0>        -0.0514
      7 Cl1        -0.1657    5.4960    0.9121 Cl        1 <0>        -0.0328
      8 O1          2.3730    1.1680   -0.0134 O.3       1 <0>        -0.2753
      9 C6          3.5393    1.9852   -0.1312 C.3       1 <0>         0.0671
     10 H1          3.2787    2.9228   -0.6221 H         1 <0>         0.0968
     11 C7          4.5965    1.2507   -0.9603 C.3       1 <0>        -0.1354
     12 C8          5.8639    2.1070   -1.0311 C.3       1 <0>        -0.1424
     13 C9          6.3593    2.3944    0.3881 C.3       1 <0>        -0.0083
     14 C10         4.1016    2.2769    1.2619 C.3       1 <0>        -0.0379
     15 H2          2.0716    3.7614    0.4090 H         1 <0>         0.1424
     16 H3          0.0149    0.0265    0.0569 H         1 <0>         0.1780
     17 H4         -2.1718    3.4741    0.7996 H         1 <0>         0.1771
     18 H5          4.8285    0.2949   -0.4906 H         1 <0>         0.0977
     19 H6          4.2152    1.0788   -1.9669 H         1 <0>         0.1067
     20 H7          6.6350    1.5708   -1.5841 H         1 <0>         0.1252
     21 H8          5.6403    3.0469   -1.5358 H         1 <0>         0.0926
     22 H9          6.5958    1.4548    0.8874 H         1 <0>         0.1352
     23 H10         7.2535    3.0161    0.3417 H         1 <0>         0.1396
     24 H11         3.3562    2.8128    1.8495 H         1 <0>         0.1343
     25 H12         4.3485    1.3382    1.7578 H         1 <0>         0.1467
     26 N2          5.3140    3.1097    1.1448 N.4       1 <0>        -0.5097
     27 H13         5.0795    3.9816    0.6559 H         1 <0>         0.4329
     28 H14         5.6663    3.3281    2.0842 H         1 <0>         0.4433
@<TRIPOS>BOND
     1    1    6 ar
     2    1    2 ar
     3    1   15 1
     4    2    3 ar
     5    2    8 1
     6    3    4 ar
     7    3   16 1
     8    4    5 ar
     9    5    6 ar
    10    5   17 1
    11    6    7 1
    12    8    9 1
    13    9   10 1
    14    9   14 1
    15    9   11 1
    16   11   12 1
    17   11   18 1
    18   11   19 1
    19   12   13 1
    20   12   20 1
    21   12   21 1
    22   13   22 1
    23   13   23 1
    24   13   26 1
    25   14   24 1
    26   14   25 1
    27   14   26 1
    28   26   27 1
    29   26   28 1
@<TRIPOS>MOLECULE
ZINC13704006
   28    29     0     0     0
SMALL
USER_CHARGES
3-chloro-5-[[(3S)-3-piperidyl]oxy]pyridine
@<TRIPOS>ATOM
      1 C1         -2.1093   -0.4385   -3.5237 C.ar      1 <0>        -0.1653
      2 C2         -1.8438    0.8077   -4.0821 C.ar      1 <0>         0.0721
      3 C3         -2.5501    1.2063   -5.2075 C.ar      1 <0>         0.0977
      4 N1         -3.4540    0.4149   -5.7504 N.ar      1 <0>        -0.4202
      5 C4         -3.7303   -0.7719   -5.2471 C.ar      1 <0>         0.0933
      6 C5         -3.0714   -1.2371   -4.1227 C.ar      1 <0>        -0.0513
      7 Cl1        -3.4445   -2.8021   -3.4704 Cl        1 <0>        -0.0328
      8 O1         -0.9095    1.6255   -3.5294 O.3       1 <0>        -0.2752
      9 C6         -0.1480    1.0983   -2.4412 C.3       1 <0>         0.0671
     10 H1          0.0235    0.0336   -2.5992 H         1 <0>         0.0967
     11 C7          1.1966    1.8260   -2.3582 C.3       1 <0>        -0.1354
     12 C8          1.9812    1.2965   -1.1546 C.3       1 <0>        -0.1425
     13 C9          1.1524    1.4960    0.1163 C.3       1 <0>        -0.0083
     14 C10        -0.9152    1.3036   -1.1329 C.3       1 <0>        -0.0381
     15 H2         -1.5788   -0.7757   -2.6455 H         1 <0>         0.1424
     16 H3         -2.3543    2.1736   -5.6462 H         1 <0>         0.1780
     17 H4         -4.4811   -1.3889   -5.7183 H         1 <0>         0.1771
     18 H5          1.0251    2.8958   -2.2392 H         1 <0>         0.0978
     19 H6          1.7648    1.6466   -3.2709 H         1 <0>         0.1067
     20 H7          2.9214    1.8407   -1.0651 H         1 <0>         0.1253
     21 H8          2.1863    0.2349   -1.2924 H         1 <0>         0.0926
     22 H9          0.9594    2.5590    0.2609 H         1 <0>         0.1352
     23 H10         1.7022    1.1070    0.9733 H         1 <0>         0.1396
     24 H11        -1.8670    0.7748   -1.1833 H         1 <0>         0.1342
     25 H12        -1.0984    2.3675   -0.9825 H         1 <0>         0.1468
     26 N2         -0.1269    0.7712   -0.0051 N.4       1 <0>        -0.5096
     27 H13        -0.6623    0.8822    0.8639 H         1 <0>         0.4433
     28 H14         0.0626   -0.2250   -0.1655 H         1 <0>         0.4329
@<TRIPOS>BOND
     1    1    6 ar
     2    1    2 ar
     3    1   15 1
     4    2    3 ar
     5    2    8 1
     6    3    4 ar
     7    3   16 1
     8    4    5 ar
     9    5    6 ar
    10    5   17 1
    11    6    7 1
    12    8    9 1
    13    9   10 1
    14    9   14 1
    15    9   11 1
    16   11   12 1
    17   11   18 1
    18   11   19 1
    19   12   13 1
    20   12   20 1
    21   12   21 1
    22   13   22 1
    23   13   23 1
    24   13   26 1
    25   14   24 1
    26   14   25 1
    27   14   26 1
    28   26   27 1
    29   26   28 1
@<TRIPOS>MOLECULE
ZINC13704043
   26    27     0     0     0
SMALL
USER_CHARGES
1-(6-bromo-3-pyridyl)piperazine
@<TRIPOS>ATOM
      1 C1         -0.0168    1.3886    0.0097 C.ar      1 <0>        -0.0768
      2 C2          1.1928    2.0633    0.0018 C.ar      1 <0>        -0.1093
      3 C3          2.3708    1.3381   -0.0134 C.ar      1 <0>         0.1120
      4 N1          2.3544    0.0187   -0.0203 N.ar      1 <0>        -0.4338
      5 C4          1.2254   -0.6616   -0.0132 C.ar      1 <0>         0.0733
      6 C5          0.0021   -0.0041    0.0020 C.ar      1 <0>         0.0466
      7 N2         -1.1926   -0.7293    0.0091 N.pl3     1 <0>        -0.4814
      8 C6         -2.0492   -0.3441   -1.1212 C.3       1 <0>         0.0222
      9 C7         -3.3767   -1.1007   -1.0327 C.3       1 <0>         0.0016
     10 C8         -2.2583   -2.9320    0.0873 C.3       1 <0>         0.0026
     11 C9         -0.9309   -2.1754   -0.0011 C.3       1 <0>         0.0134
     12 Br1         4.0273    2.2501   -0.0243 Br        1 <0>         0.0158
     13 H1         -0.9518    1.9292    0.0171 H         1 <0>         0.1513
     14 H2          1.2161    3.1430    0.0077 H         1 <0>         0.1571
     15 H3          1.2519   -1.7413   -0.0189 H         1 <0>         0.1657
     16 H4         -2.2389    0.7286   -1.0846 H         1 <0>         0.1295
     17 H5         -1.5500   -0.5937   -2.0574 H         1 <0>         0.0733
     18 H6         -4.0023   -0.8384   -1.8859 H         1 <0>         0.1437
     19 H7         -3.8886   -0.8303   -0.1092 H         1 <0>         0.1422
     20 H8         -2.0686   -4.0047    0.0507 H         1 <0>         0.1447
     21 H9         -2.7574   -2.6826    1.0238 H         1 <0>         0.1423
     22 H10        -0.4190   -2.4458   -0.9246 H         1 <0>         0.0764
     23 H11        -0.3049   -2.4376    0.8518 H         1 <0>         0.1330
     24 N3         -3.1185   -2.5530   -1.0497 N.4       1 <0>        -0.5196
     25 H12        -2.6494   -2.8036   -1.9279 H         1 <0>         0.4323
     26 H13        -4.0107   -3.0567   -0.9823 H         1 <0>         0.4421
@<TRIPOS>BOND
     1    1    6 ar
     2    1    2 ar
     3    1   13 1
     4    2    3 ar
     5    2   14 1
     6    3    4 ar
     7    3   12 1
     8    4    5 ar
     9    5    6 ar
    10    5   15 1
    11    6    7 1
    12    7   11 1
    13    7    8 1
    14    8    9 1
    15    8   16 1
    16    8   17 1
    17    9   18 1
    18    9   19 1
    19    9   24 1
    20   10   11 1
    21   10   20 1
    22   10   21 1
    23   10   24 1
    24   11   22 1
    25   11   23 1
    26   24   25 1
    27   24   26 1
@<TRIPOS>MOLECULE
ZINC13704017
   32    33     0     0     0
SMALL
USER_CHARGES
1-(3-pyridyl)-1,5-diazocane
@<TRIPOS>ATOM
      1 C1         -0.0850    3.7994    0.0233 C.ar      1 <0>        -0.1186
      2 C2          1.1502    3.1722    0.0081 C.ar      1 <0>        -0.1519
      3 C3          1.1851    1.7800    0.0003 C.ar      1 <0>         0.1283
      4 C4         -0.0126    1.0758    0.0080 C.ar      1 <0>         0.0326
      5 N1         -1.1664    1.7126    0.0169 N.ar      1 <0>        -0.4412
      6 C5         -1.2332    3.0297    0.0301 C.ar      1 <0>         0.0599
      7 N2          2.4063    1.1015   -0.0155 N.pl3     1 <0>        -0.6418
      8 C6          3.6581    1.8418   -0.0295 C.3       1 <0>         0.1033
      9 C7          4.5963    1.1672   -1.0368 C.3       1 <0>        -0.1714
     10 C8          4.1648    1.5413   -2.4530 C.3       1 <0>         0.0009
     11 C9          2.9724   -0.5947   -2.4505 C.3       1 <0>        -0.0092
     12 C10         1.9172   -0.8686   -1.3629 C.3       1 <0>        -0.1753
     13 C11         2.4393   -0.3663   -0.0241 C.3       1 <0>         0.1036
     14 H1         -0.1501    4.8774    0.0293 H         1 <0>         0.1426
     15 H2          2.0635    3.7487    0.0021 H         1 <0>         0.1369
     16 H3          0.0021   -0.0041    0.0020 H         1 <0>         0.1549
     17 H4         -2.1985    3.5137    0.0423 H         1 <0>         0.1615
     18 H5          3.4737    2.8730   -0.3309 H         1 <0>         0.0940
     19 H6          4.1100    1.8216    0.9622 H         1 <0>         0.0824
     20 H7          4.5455    0.0852   -0.9150 H         1 <0>         0.1007
     21 H8          5.6187    1.5047   -0.8670 H         1 <0>         0.1240
     22 H9          4.9580    1.2783   -3.1528 H         1 <0>         0.1326
     23 H10         3.9852    2.6152   -2.5032 H         1 <0>         0.1287
     24 H11         3.9628   -0.8388   -2.0662 H         1 <0>         0.1356
     25 H12         2.7604   -1.2085   -3.3259 H         1 <0>         0.1330
     26 H13         1.7272   -1.9401   -1.3012 H         1 <0>         0.1254
     27 H14         0.9923   -0.3483   -1.6118 H         1 <0>         0.0961
     28 H15         3.4643   -0.7086    0.1189 H         1 <0>         0.1002
     29 H16         1.8105   -0.7498    0.7793 H         1 <0>         0.0914
     30 N3          2.9115    0.8299   -2.8325 N.4       1 <0>        -0.5235
     31 H17         2.7809    0.8993   -3.8485 H         1 <0>         0.4340
     32 H18         2.1173    1.2715   -2.3544 H         1 <0>         0.4303
@<TRIPOS>BOND
     1    1    6 ar
     2    1    2 ar
     3    1   14 1
     4    2    3 ar
     5    2   15 1
     6    3    4 ar
     7    3    7 1
     8    4    5 ar
     9    4   16 1
    10    5    6 ar
    11    6   17 1
    12    7   13 1
    13    7    8 1
    14    8    9 1
    15    8   18 1
    16    8   19 1
    17    9   10 1
    18    9   20 1
    19    9   21 1
    20   10   22 1
    21   10   23 1
    22   10   30 1
    23   11   12 1
    24   11   24 1
    25   11   25 1
    26   11   30 1
    27   12   13 1
    28   12   26 1
    29   12   27 1
    30   13   28 1
    31   13   29 1
    32   30   31 1
    33   30   32 1
@<TRIPOS>MOLECULE
ZINC03932135
   25    26     0     0     0
SMALL
USER_CHARGES
3-[(3S)-pyrrolidin-3-yl]oxypyridine
@<TRIPOS>ATOM
      1 C1         -1.5382   -3.5226   -1.4365 C.ar      1 <0>        -0.1295
      2 C2         -0.9914   -2.3541   -0.9304 C.ar      1 <0>        -0.1642
      3 C3         -1.6842   -1.6788    0.0690 C.ar      1 <0>         0.0529
      4 C4         -2.8871   -2.1991    0.5244 C.ar      1 <0>         0.0934
      5 N1         -3.3761   -3.3108    0.0120 N.ar      1 <0>        -0.4403
      6 C5         -2.7443   -3.9753   -0.9358 C.ar      1 <0>         0.0796
      7 O1         -1.1871   -0.5288    0.5958 O.3       1 <0>        -0.2829
      8 C6         -0.0035    0.0012   -0.0043 C.3       1 <0>         0.0648
      9 H1          0.0135   -0.2115   -1.0732 H         1 <0>         0.1133
     10 C7          0.1060    1.5272    0.2531 C.3       1 <0>        -0.1421
     11 C8          1.6366    1.7500    0.1671 C.3       1 <0>        -0.0052
     12 C9          1.2570   -0.5594    0.6874 C.3       1 <0>        -0.0392
     13 H2         -1.0281   -4.0728   -2.2133 H         1 <0>         0.1457
     14 H3         -0.0506   -1.9768   -1.3031 H         1 <0>         0.1354
     15 H4         -3.4310   -1.6851    1.3032 H         1 <0>         0.1684
     16 H5         -3.1753   -4.8853   -1.3263 H         1 <0>         0.1678
     17 H6         -0.4148    2.0920   -0.5201 H         1 <0>         0.1276
     18 H7         -0.2709    1.7842    1.2431 H         1 <0>         0.1143
     19 H8          1.9497    1.8352   -0.8735 H         1 <0>         0.1392
     20 H9          1.9221    2.6421    0.7244 H         1 <0>         0.1467
     21 H10         1.0034   -0.9201    1.6843 H         1 <0>         0.1457
     22 H11         1.6766   -1.3707    0.0926 H         1 <0>         0.1399
     23 N2          2.2232    0.5454    0.7833 N.4       1 <0>        -0.5129
     24 H12         2.4359    0.7322    1.7702 H         1 <0>         0.4410
     25 H13         3.0867    0.2915    0.2892 H         1 <0>         0.4405
@<TRIPOS>BOND
     1    1    6 ar
     2    1    2 ar
     3    1   13 1
     4    2    3 ar
     5    2   14 1
     6    3    4 ar
     7    3    7 1
     8    4    5 ar
     9    4   15 1
    10    5    6 ar
    11    6   16 1
    12    7    8 1
    13    8    9 1
    14    8   12 1
    15    8   10 1
    16   10   11 1
    17   10   17 1
    18   10   18 1
    19   11   19 1
    20   11   20 1
    21   11   23 1
    22   12   21 1
    23   12   22 1
    24   12   23 1
    25   23   24 1
    26   23   25 1
@<TRIPOS>MOLECULE
ZINC04638275
   25    26     0     0     0
SMALL
USER_CHARGES
3-[(3R)-pyrrolidin-3-yl]oxypyridine
@<TRIPOS>ATOM
      1 C1         -0.4633   -1.6335   -3.6576 C.ar      1 <0>        -0.1297
      2 C2         -0.6186   -0.5235   -2.8426 C.ar      1 <0>        -0.1656
      3 C3          0.1256    0.6162   -3.1289 C.ar      1 <0>         0.0533
      4 C4          0.9869    0.6028   -4.2166 C.ar      1 <0>         0.0942
      5 N1          1.1101   -0.4762   -4.9637 N.ar      1 <0>        -0.4397
      6 C5          0.4189   -1.5725   -4.7198 C.ar      1 <0>         0.0798
      7 O1          0.0067    1.7288   -2.3575 O.3       1 <0>        -0.2801
      8 C6         -0.9877    1.7038   -1.3315 C.3       1 <0>         0.0647
      9 H1         -1.8801    1.1800   -1.6740 H         1 <0>         0.1099
     10 C7         -1.3381    3.1366   -0.8688 C.3       1 <0>        -0.1457
     11 C8         -1.5028    3.0368    0.6591 C.3       1 <0>        -0.0051
     12 C9         -0.4292    1.0502   -0.0426 C.3       1 <0>        -0.0393
     13 H2         -1.0252   -2.5355   -3.4652 H         1 <0>         0.1458
     14 H3         -1.3011   -0.5428   -2.0058 H         1 <0>         0.1340
     15 H4          1.5661    1.4838   -4.4505 H         1 <0>         0.1689
     16 H5          0.5442   -2.4344   -5.3584 H         1 <0>         0.1679
     17 H6         -0.5290    3.8232   -1.1180 H         1 <0>         0.1212
     18 H7         -2.2698    3.4656   -1.3290 H         1 <0>         0.1175
     19 H8         -0.7628    3.6657    1.1542 H         1 <0>         0.1389
     20 H9         -2.5069    3.3495    0.9455 H         1 <0>         0.1439
     21 H10        -0.5352   -0.0338   -0.0838 H         1 <0>         0.1448
     22 H11         0.6139    1.3279    0.1087 H         1 <0>         0.1486
     23 N2         -1.2750    1.6324    1.0090 N.4       1 <0>        -0.5094
     24 H12        -2.1706    1.1325    1.0562 H         1 <0>         0.4377
     25 H13        -0.7996    1.5694    1.9169 H         1 <0>         0.4435
@<TRIPOS>BOND
     1    1    6 ar
     2    1    2 ar
     3    1   13 1
     4    2    3 ar
     5    2   14 1
     6    3    4 ar
     7    3    7 1
     8    4    5 ar
     9    4   15 1
    10    5    6 ar
    11    6   16 1
    12    7    8 1
    13    8    9 1
    14    8   12 1
    15    8   10 1
    16   10   11 1
    17   10   17 1
    18   10   18 1
    19   11   19 1
    20   11   20 1
    21   11   23 1
    22   12   21 1
    23   12   22 1
    24   12   23 1
    25   23   24 1
    26   23   25 1
@<TRIPOS>MOLECULE
ZINC00391812
   27    28     0     0     0
SMALL
USER_CHARGES

@<TRIPOS>ATOM
      1 C1          0.3944    1.5372   -0.0882 C.3       1 <0>        -0.0517
      2 N1          0.2218    0.0783   -0.0924 N.4       1 <0>        -0.3878
      3 C2          0.9063   -0.4989   -1.2638 C.3       1 <0>        -0.0125
      4 C3          1.9925   -1.4575   -0.7321 C.3       1 <0>        -0.1421
      5 C4          2.2411   -0.9393    0.7089 C.3       1 <0>        -0.1364
      6 C5          0.8181   -0.4968    1.1321 C.3       1 <0>         0.0811
      7 H1          0.2382   -1.3559    1.4692 H         1 <0>         0.1507
      8 C6          0.8940    0.5453    2.2181 C.ar      1 <0>        -0.2036
      9 C7          1.8431    1.5545    2.1577 C.ar      1 <0>        -0.0573
     10 C8          1.8760    2.4913    3.1790 C.ar      1 <0>        -0.1660
     11 C9          0.9680    2.3891    4.2162 C.ar      1 <0>         0.1377
     12 N2          0.0793    1.4154    4.2410 N.ar      1 <0>        -0.4739
     13 C10         0.0150    0.5105    3.2837 C.ar      1 <0>         0.1353
     14 H2          1.4576    1.7772   -0.0812 H         1 <0>         0.1215
     15 H3         -0.0678    1.9603   -0.9800 H         1 <0>         0.1243
     16 H4         -0.0786    1.9564    0.7999 H         1 <0>         0.1209
     17 H5          0.1926   -1.0502   -1.8760 H         1 <0>         0.1353
     18 H6          1.3676    0.2945   -1.8519 H         1 <0>         0.1319
     19 H7          1.6257   -2.4838   -0.7146 H         1 <0>         0.1029
     20 H8          2.9001   -1.3816   -1.3309 H         1 <0>         0.1144
     21 H9          2.6094   -1.7378    1.3529 H         1 <0>         0.1203
     22 H10         2.9285   -0.0933    0.7065 H         1 <0>         0.0978
     23 H11         2.5404    1.6091    1.3347 H         1 <0>         0.1428
     24 H12         2.6020    3.2907    3.1646 H         1 <0>         0.1512
     25 H13         0.9870    3.1149    5.0157 H         1 <0>         0.1712
     26 H14        -0.7302   -0.2695    3.3356 H         1 <0>         0.1637
     27 H15        -0.7608   -0.1480   -0.1301 H         1 <0>         0.4285
@<TRIPOS>BOND
     1    1    2 1
     2    1   14 1
     3    1   15 1
     4    1   16 1
     5    2    6 1
     6    2    3 1
     7    2   27 1
     8    3    4 1
     9    3   17 1
    10    3   18 1
    11    4    5 1
    12    4   19 1
    13    4   20 1
    14    5    6 1
    15    5   21 1
    16    5   22 1
    17    6    7 1
    18    6    8 1
    19    8   13 ar
    20    8    9 ar
    21    9   10 ar
    22    9   23 1
    23   10   11 ar
    24   10   24 1
    25   11   12 ar
    26   11   25 1
    27   12   13 ar
    28   13   26 1
@<TRIPOS>MOLECULE
ZINC00023623
   29    30     0     0     0
SMALL
USER_CHARGES
1-(6-bromo-3-pyridyl)-1,4-diazepane
@<TRIPOS>ATOM
      1 C1          0.1776    4.1074   -0.4567 C.ar      1 <0>        -0.0947
      2 C2          0.2175    5.3917   -0.9740 C.ar      1 <0>        -0.1217
      3 C3          1.3932    5.8581   -1.5345 C.ar      1 <0>         0.1269
      4 N1          2.4714    5.0987   -1.5775 N.ar      1 <0>        -0.4454
      5 C4          2.4772    3.8730   -1.0925 C.ar      1 <0>         0.1353
      6 C5          1.3352    3.3349   -0.5133 C.ar      1 <0>         0.0317
      7 N2          1.3459    2.0351    0.0001 N.pl3     1 <0>        -0.4957
      8 C6          0.0572    1.3521   -0.2575 C.3       1 <0>         0.0302
      9 C7          0.1930   -0.1029   -0.2523 C.3       1 <0>        -0.1386
     10 C8          0.6917   -0.6295    1.1091 C.3       1 <0>        -0.0087
     11 C9          2.5060    0.8531    1.8470 C.3       1 <0>         0.0118
     12 C10         1.6267    2.0404    1.4151 C.3       1 <0>         0.0291
     13 Br1         1.4557    7.6076   -2.2494 Br        1 <0>         0.0170
     14 H1         -0.7278    3.7160   -0.0170 H         1 <0>         0.1453
     15 H2         -0.6600    6.0205   -0.9433 H         1 <0>         0.1537
     16 H3          3.3791    3.2813   -1.1458 H         1 <0>         0.1702
     17 H4         -0.3229    1.6684   -1.2288 H         1 <0>         0.1006
     18 H5         -0.6576    1.6434    0.5122 H         1 <0>         0.0640
     19 H6         -0.7762   -0.5505   -0.4723 H         1 <0>         0.1200
     20 H7          0.9015   -0.3959   -1.0271 H         1 <0>         0.0961
     21 H8          0.1943   -0.0894    1.9147 H         1 <0>         0.1283
     22 H9          0.4749   -1.6946    1.1911 H         1 <0>         0.1338
     23 H10         2.4260    0.7308    2.9271 H         1 <0>         0.1339
     24 H11         3.5429    1.0753    1.5946 H         1 <0>         0.1316
     25 H12         0.6846    1.9984    1.9616 H         1 <0>         0.0746
     26 H13         2.1383    2.9687    1.6694 H         1 <0>         0.1138
     27 N3          2.1386   -0.4399    1.1797 N.4       1 <0>        -0.5156
     28 H14         2.5193   -0.4407    0.2261 H         1 <0>         0.4370
     29 H15         2.5484   -1.2161    1.7124 H         1 <0>         0.4354
@<TRIPOS>BOND
     1    1    6 ar
     2    1    2 ar
     3    1   14 1
     4    2    3 ar
     5    2   15 1
     6    3    4 ar
     7    3   13 1
     8    4    5 ar
     9    5    6 ar
    10    5   16 1
    11    6    7 1
    12    7   12 1
    13    7    8 1
    14    8    9 1
    15    8   17 1
    16    8   18 1
    17    9   10 1
    18    9   19 1
    19    9   20 1
    20   10   21 1
    21   10   22 1
    22   10   27 1
    23   11   12 1
    24   11   23 1
    25   11   24 1
    26   11   27 1
    27   12   25 1
    28   12   26 1
    29   27   28 1
    30   27   29 1
@<TRIPOS>MOLECULE
ZINC06525315
   25    26     0     0     0
SMALL
USER_CHARGES
3-(azetidin-2-ylmethoxy)-2-fluoro-pyridine
@<TRIPOS>ATOM
      1 C1          1.7767   -0.5074   -3.1314 C.ar      1 <0>        -0.1390
      2 C2          1.1669    0.1527   -2.0749 C.ar      1 <0>        -0.1326
      3 C3          0.6061   -0.6074   -1.0562 C.ar      1 <0>         0.0398
      4 C4          0.6664   -1.9943   -1.1374 C.ar      1 <0>         0.2992
      5 N1          1.2519   -2.5828   -2.1630 N.ar      1 <0>        -0.4717
      6 C5          1.7982   -1.8881   -3.1430 C.ar      1 <0>         0.1183
      7 F1          0.1208   -2.7463   -0.1566 F         1 <0>        -0.1011
      8 O1          0.0021   -0.0041    0.0020 O.3       1 <0>        -0.3070
      9 C6         -0.0173    1.4248    0.0099 C.3       1 <0>         0.0437
     10 C7         -0.7334    1.9182    1.2687 C.3       1 <0>         0.0138
     11 H1         -1.6681    1.3897    1.4563 H         1 <0>         0.1745
     12 C8         -0.8689    3.4458    1.3361 C.3       1 <0>        -0.1667
     13 C9         -0.5657    3.2343    2.8261 C.3       1 <0>        -0.0227
     14 H2          2.2262    0.0524   -3.9383 H         1 <0>         0.1565
     15 H3          1.1323    1.2317   -2.0430 H         1 <0>         0.1507
     16 H4          2.2683   -2.4065   -3.9656 H         1 <0>         0.1803
     17 H5          1.0053    1.8021    0.0021 H         1 <0>         0.0891
     18 H6         -0.5445    1.7859   -0.8732 H         1 <0>         0.1145
     19 H7         -0.0927    3.9870    0.7951 H         1 <0>         0.1292
     20 H8         -1.8745    3.8141    1.1332 H         1 <0>         0.1322
     21 H9         -1.4561    3.0580    3.4296 H         1 <0>         0.1557
     22 H10         0.0864    3.9979    3.2501 H         1 <0>         0.1552
     23 N2          0.0393    2.0739    2.3977 N.4       1 <0>        -0.4741
     24 H11         1.0351    2.2017    2.1825 H         1 <0>         0.4375
     25 H12        -0.0704    1.3000    3.0635 H         1 <0>         0.4249
@<TRIPOS>BOND
     1    1    6 ar
     2    1    2 ar
     3    1   14 1
     4    2    3 ar
     5    2   15 1
     6    3    4 ar
     7    3    8 1
     8    4    5 ar
     9    4    7 1
    10    5    6 ar
    11    6   16 1
    12    8    9 1
    13    9   10 1
    14    9   17 1
    15    9   18 1
    16   10   11 1
    17   10   12 1
    18   10   23 1
    19   12   13 1
    20   12   19 1
    21   12   20 1
    22   13   21 1
    23   13   22 1
    24   13   23 1
    25   23   24 1
    26   23   25 1
@<TRIPOS>MOLECULE
ZINC13474371
   26    27     0     0     0
SMALL
USER_CHARGES

@<TRIPOS>ATOM
      1 C1         -0.0167    1.3825    0.0096 C.ar      1 <0>        -0.0333
      2 C2          1.1930    2.0590    0.0017 C.ar      1 <0>        -0.1495
      3 C3          2.3709    1.3334   -0.0134 C.ar      1 <0>         0.1928
      4 N1          2.3501    0.0138   -0.0207 N.ar      1 <0>        -0.4714
      5 C4          1.2174   -0.6616   -0.0136 C.ar      1 <0>         0.1389
      6 C5          0.0021   -0.0041    0.0020 C.ar      1 <0>        -0.1976
      7 C6         -1.2872   -0.7844    0.0101 C.3       1 <0>         0.1761
      8 N2         -1.7181   -1.0298   -1.3684 N.pl3     1 <0>        -0.5857
      9 C7         -2.5850   -0.1498   -2.1697 C.3       1 <0>         0.0823
     10 C8         -2.7002   -0.8954   -3.5142 C.3       1 <0>         0.0760
     11 N3         -1.8895   -2.1056   -3.3203 N.pl3     1 <0>        -0.6516
     12 C9         -1.3789   -2.1126   -2.1323 C.cat     1 <0>         0.7174
     13 N4         -0.5681   -3.1241   -1.6745 N.pl3     1 <0>        -0.8092
     14 Cl1         3.8931    2.1680   -0.0235 Cl        1 <0>        -0.0026
     15 H1         -0.9519    1.9225    0.0259 H         1 <0>         0.1525
     16 H2          1.2158    3.1388    0.0070 H         1 <0>         0.1577
     17 H3          1.2399   -1.7413   -0.0203 H         1 <0>         0.1568
     18 H4         -1.1323   -1.7366    0.5174 H         1 <0>         0.1096
     19 H5         -2.0538   -0.2139    0.5344 H         1 <0>         0.1289
     20 H6         -3.5643   -0.0456   -1.7026 H         1 <0>         0.1207
     21 H7         -2.1188    0.8255   -2.3096 H         1 <0>         0.1145
     22 H8         -3.7382   -1.1593   -3.7170 H         1 <0>         0.1252
     23 H9         -2.2939   -0.2888   -4.3235 H         1 <0>         0.1228
     24 H10        -0.2099   -3.0885   -0.7738 H         1 <0>         0.4337
     25 H11        -0.3541   -3.8733   -2.2523 H         1 <0>         0.4395
     26 H12        -1.7539   -2.7964   -3.9876 H         1 <0>         0.4556
@<TRIPOS>BOND
     1    1    6 ar
     2    1    2 ar
     3    1   15 1
     4    2    3 ar
     5    2   16 1
     6    3    4 ar
     7    3   14 1
     8    4    5 ar
     9    5    6 ar
    10    5   17 1
    11    6    7 1
    12    7    8 1
    13    7   18 1
    14    7   19 1
    15    8   12 1
    16    8    9 1
    17    9   10 1
    18    9   20 1
    19    9   21 1
    20   10   11 1
    21   10   22 1
    22   10   23 1
    23   11   12 2
    24   11   26 1
    25   12   13 1
    26   13   24 1
    27   13   25 1
@<TRIPOS>MOLECULE
ZINC13611482
   33    34     0     0     0
SMALL
USER_CHARGES
3-ethynyl-5-[[(2S)-1-methylpyrrolidin-2-yl]methoxy]pyridine
@<TRIPOS>ATOM
      1 C1         -3.0878    2.3839    1.5872 C.3       1 <0>        -0.0362
      2 C2         -0.8009    1.6167    1.2317 C.3       1 <0>        -0.0070
      3 C3         -0.0127    1.0858    0.0080 C.3       1 <0>        -0.1484
      4 C4         -0.8223    1.6286   -1.1920 C.3       1 <0>        -0.1399
      5 C5         -2.2314    1.9037   -0.6350 C.3       1 <0>         0.0333
      6 H1         -2.4649    2.9648   -0.7234 H         1 <0>         0.1516
      7 C6         -3.2650    1.0734   -1.3987 C.3       1 <0>         0.0340
      8 O1         -4.5778    1.4215   -0.9545 O.3       1 <0>        -0.3195
      9 C7         -5.6191    0.7704   -1.5368 C.ar      1 <0>         0.0655
     10 C8         -6.9251    1.0535   -1.1586 C.ar      1 <0>        -0.0809
     11 C9         -7.9620    0.3572   -1.7875 C.ar      1 <0>         0.0173
     12 C10        -7.6456   -0.5884   -2.7640 C.ar      1 <0>         0.1039
     13 N1         -6.3919   -0.8234   -3.0906 N.ar      1 <0>        -0.4399
     14 C11        -5.3905   -0.1815   -2.5209 C.ar      1 <0>         0.0297
     15 C12        -9.3267    0.6101   -1.4350 C.1       1 <0>        -0.1834
     16 C13       -10.4455    0.8175   -1.1459 C.1       1 <0>        -0.1169
     17 H2         -4.1102    2.3192    1.2148 H         1 <0>         0.1289
     18 H3         -3.0608    2.0703    2.6308 H         1 <0>         0.1233
     19 H4         -2.7367    3.4128    1.5078 H         1 <0>         0.1195
     20 H5         -0.6178    0.9936    2.1071 H         1 <0>         0.1401
     21 H6         -0.5403    2.6552    1.4361 H         1 <0>         0.1359
     22 H7          0.0021   -0.0041    0.0020 H         1 <0>         0.0999
     23 H8          1.0019    1.4840    0.0005 H         1 <0>         0.1194
     24 H9         -0.3756    2.5508   -1.5636 H         1 <0>         0.1127
     25 H10        -0.8682    0.8829   -1.9857 H         1 <0>         0.1091
     26 H11        -3.1769    1.2759   -2.4660 H         1 <0>         0.1129
     27 H12        -3.0880    0.0138   -1.2141 H         1 <0>         0.0900
     28 H13        -7.1344    1.7917   -0.3985 H         1 <0>         0.1492
     29 H14        -8.4374   -1.1328   -3.2571 H         1 <0>         0.1713
     30 H15        -4.3771   -0.4026   -2.8218 H         1 <0>         0.1600
     31 H16       -11.4462    1.0029   -0.8874 H         1 <0>         0.2326
     32 N2         -2.1941    1.5010    0.7758 N.4       1 <0>        -0.3968
     33 H17        -2.5082    0.5278    0.8675 H         1 <0>         0.4286
@<TRIPOS>BOND
     1    1   17 1
     2    1   18 1
     3    1   19 1
     4    1   32 1
     5    2    3 1
     6    2   20 1
     7    2   21 1
     8    2   32 1
     9    3    4 1
    10    3   22 1
    11    3   23 1
    12    4    5 1
    13    4   24 1
    14    4   25 1
    15    5    6 1
    16    5    7 1
    17    5   32 1
    18    7    8 1
    19    7   26 1
    20    7   27 1
    21    8    9 1
    22    9   14 ar
    23    9   10 ar
    24   10   11 ar
    25   10   28 1
    26   11   12 ar
    27   11   15 1
    28   12   13 ar
    29   12   29 1
    30   13   14 ar
    31   14   30 1
    32   15   16 3
    33   16   31 1
    34   32   33 1
@<TRIPOS>MOLECULE
ZINC13703893
   26    27     0     0     0
SMALL
USER_CHARGES
1-(5-bromo-6-chloro-3-pyridyl)piperazine
@<TRIPOS>ATOM
      1 C1          2.3811    1.3540   -0.0135 C.ar      1 <0>        -0.0455
      2 C2          1.1683    2.0393    0.0019 C.ar      1 <0>         0.0432
      3 C3         -0.0158    1.3144    0.0093 C.ar      1 <0>         0.0947
      4 N1          0.0021   -0.0041    0.0020 N.ar      1 <0>        -0.4394
      5 C4          1.1326   -0.6837   -0.0125 C.ar      1 <0>         0.1877
      6 C5          2.3544   -0.0311   -0.0207 C.ar      1 <0>        -0.1128
      7 Br1         3.9667   -1.0191   -0.0408 Br        1 <0>         0.0149
      8 Cl1         1.0886   -2.4191   -0.0208 Cl        1 <0>         0.0152
      9 N2          1.1439    3.4368    0.0096 N.pl3     1 <0>        -0.4793
     10 C6          1.8868    3.9829   -1.1347 C.3       1 <0>         0.0205
     11 C7          1.9038    5.5108   -1.0463 C.3       1 <0>         0.0019
     12 C8         -0.2201    5.4672    0.1140 C.3       1 <0>         0.0029
     13 C9         -0.2370    3.9394    0.0256 C.3       1 <0>         0.0125
     14 H1          3.3191    1.8893   -0.0193 H         1 <0>         0.1608
     15 H2         -0.9615    1.8359    0.0166 H         1 <0>         0.1738
     16 H3          2.9095    3.6063   -1.1174 H         1 <0>         0.1298
     17 H4          1.4021    3.6777   -2.0620 H         1 <0>         0.0752
     18 H5          2.4294    5.9192   -1.9094 H         1 <0>         0.1447
     19 H6          2.4126    5.8165   -0.1321 H         1 <0>         0.1430
     20 H7         -1.2428    5.8438    0.0967 H         1 <0>         0.1456
     21 H8          0.2643    5.7724    1.0415 H         1 <0>         0.1430
     22 H9         -0.7458    3.6336   -0.8886 H         1 <0>         0.0779
     23 H10        -0.7628    3.5307    0.8885 H         1 <0>         0.1342
     24 N3          0.5191    6.0195   -1.0370 N.4       1 <0>        -0.5199
     25 H11         0.0498    5.7408   -1.9066 H         1 <0>         0.4326
     26 H12         0.5348    7.0440   -0.9698 H         1 <0>         0.4427
@<TRIPOS>BOND
     1    1    6 ar
     2    1    2 ar
     3    1   14 1
     4    2    3 ar
     5    2    9 1
     6    3    4 ar
     7    3   15 1
     8    4    5 ar
     9    5    6 ar
    10    5    8 1
    11    6    7 1
    12    9   13 1
    13    9   10 1
    14   10   11 1
    15   10   16 1
    16   10   17 1
    17   11   18 1
    18   11   19 1
    19   11   24 1
    20   12   13 1
    21   12   20 1
    22   12   21 1
    23   12   24 1
    24   13   22 1
    25   13   23 1
    26   24   25 1
    27   24   26 1
@<TRIPOS>MOLECULE
ZINC04474604
   27    28     0     0     0
SMALL
USER_CHARGES

@<TRIPOS>ATOM
      1 C1         -3.3367   -1.7998    0.9454 C.ar      1 <0>        -0.0334
      2 C2         -4.5646   -1.6558    1.5720 C.ar      1 <0>        -0.1529
      3 C3         -5.0109   -0.3872    1.8967 C.ar      1 <0>         0.1850
      4 N1         -4.2820    0.6766    1.6158 N.ar      1 <0>        -0.4783
      5 C4         -3.1096    0.5761    1.0204 C.ar      1 <0>         0.1406
      6 C5         -2.5996   -0.6587    0.6670 C.ar      1 <0>        -0.1735
      7 C6         -1.2589   -0.7638   -0.0131 C.3       1 <0>         0.1409
      8 N2         -1.4547   -1.0350   -1.4394 N.pl3     1 <0>        -0.6047
      9 C7         -2.0000   -0.0849   -2.4203 C.3       1 <0>         0.0817
     10 C8         -1.9876   -0.8726   -3.7447 C.3       1 <0>         0.0919
     11 N3         -1.4366   -2.1836   -3.3705 N.pl3     1 <0>        -0.6727
     12 C9         -1.1599   -2.1867   -2.0588 C.2       1 <0>         0.6986
     13 N4         -0.6367   -3.2512   -1.4207 N.2       1 <0>        -0.4971
     14 N5         -0.2558   -3.1441   -0.1929 N.pl3     1 <0>         0.2230
     15 O1         -1.0477   -3.5462    0.7796 O.2       1 <0>        -0.2500
     16 O2          0.9248   -2.6326    0.0881 O.3       1 <0>        -0.2646
     17 Cl1        -6.5469   -0.1924    2.6818 Cl        1 <0>        -0.0218
     18 H1         -2.9608   -2.7780    0.6841 H         1 <0>         0.1595
     19 H2         -5.1654   -2.5229    1.8036 H         1 <0>         0.1514
     20 H3         -2.5416    1.4692    0.8061 H         1 <0>         0.1672
     21 H4         -0.7159    0.1737    0.1073 H         1 <0>         0.1114
     22 H5         -0.6864   -1.5755    0.4358 H         1 <0>         0.1266
     23 H6         -3.0181    0.1985   -2.1533 H         1 <0>         0.1007
     24 H7         -1.3633    0.7968   -2.4937 H         1 <0>         0.1061
     25 H8         -2.9995   -0.9803   -4.1352 H         1 <0>         0.1056
     26 H9         -1.3448   -0.3820   -4.4756 H         1 <0>         0.1086
     27 H10        -1.2930   -2.9268   -3.9770 H         1 <0>         0.4500
@<TRIPOS>BOND
     1    1    6 ar
     2    1    2 ar
     3    1   18 1
     4    2    3 ar
     5    2   19 1
     6    3    4 ar
     7    3   17 1
     8    4    5 ar
     9    5    6 ar
    10    5   20 1
    11    6    7 1
    12    7    8 1
    13    7   21 1
    14    7   22 1
    15    8   12 1
    16    8    9 1
    17    9   10 1
    18    9   23 1
    19    9   24 1
    20   10   11 1
    21   10   25 1
    22   10   26 1
    23   11   12 1
    24   11   27 1
    25   12   13 2
    26   13   14 1
    27   14   15 2
    28   14   16 1
@<TRIPOS>MOLECULE
ZINC04474604
   27    28     0     0     0
SMALL
USER_CHARGES

@<TRIPOS>ATOM
      1 C1         -0.0232    1.3761    0.0289 C.ar      1 <0>        -0.0422
      2 C2          1.1873    2.0511    0.0320 C.ar      1 <0>        -0.1593
      3 C3          2.3644    1.3241    0.0228 C.ar      1 <0>         0.1860
      4 N1          2.3421    0.0046    0.0108 N.ar      1 <0>        -0.4757
      5 C4          1.2085   -0.6694    0.0076 C.ar      1 <0>         0.1546
      6 C5         -0.0061   -0.0105    0.0167 C.ar      1 <0>        -0.1801
      7 C6         -1.2963   -0.7892    0.0129 C.3       1 <0>         0.1880
      8 N2         -1.7176   -1.0294   -1.3695 N.pl3     1 <0>        -0.5686
      9 C7         -2.5772   -0.1402   -2.1650 C.3       1 <0>         0.0889
     10 C8         -2.6991   -0.8603   -3.5219 C.3       1 <0>         0.0864
     11 N3         -1.8954   -2.0794   -3.3480 N.pl3     1 <0>        -0.7201
     12 C9         -1.3761   -2.0919   -2.1122 C.2       1 <0>         0.6973
     13 N4         -0.5862   -3.0832   -1.6570 N.2       1 <0>        -0.4965
     14 N5         -0.3770   -4.1272   -2.3854 N.pl3     1 <0>         0.1954
     15 O1          0.6891   -4.1894   -3.1562 O.2       1 <0>        -0.2389
     16 O2         -1.2294   -5.1307   -2.3581 O.3       1 <0>        -0.2492
     17 Cl1         3.8877    2.1568    0.0265 Cl        1 <0>        -0.0218
     18 H1         -0.9578    1.9172    0.0403 H         1 <0>         0.1476
     19 H2          1.2115    3.1308    0.0410 H         1 <0>         0.1502
     20 H3          1.2298   -1.7492   -0.0027 H         1 <0>         0.1706
     21 H4         -1.1463   -1.7433    0.5180 H         1 <0>         0.1138
     22 H5         -2.0660   -0.2195    0.5335 H         1 <0>         0.1128
     23 H6         -3.5565   -0.0362   -1.6978 H         1 <0>         0.1084
     24 H7         -2.1067    0.8350   -2.2905 H         1 <0>         0.1016
     25 H8         -3.7389   -1.1139   -3.7283 H         1 <0>         0.1055
     26 H9         -2.2892   -0.2426   -4.3210 H         1 <0>         0.1031
     27 H10        -1.7598   -2.7640   -4.0217 H         1 <0>         0.4422
@<TRIPOS>BOND
     1    1    6 ar
     2    1    2 ar
     3    1   18 1
     4    2    3 ar
     5    2   19 1
     6    3    4 ar
     7    3   17 1
     8    4    5 ar
     9    5    6 ar
    10    5   20 1
    11    6    7 1
    12    7    8 1
    13    7   21 1
    14    7   22 1
    15    8   12 1
    16    8    9 1
    17    9   10 1
    18    9   23 1
    19    9   24 1
    20   10   11 1
    21   10   25 1
    22   10   26 1
    23   11   12 1
    24   11   27 1
    25   12   13 2
    26   13   14 1
    27   14   15 2
    28   14   16 1
@<TRIPOS>MOLECULE
ZINC04474604
   26    27     0     0     0
SMALL
USER_CHARGES

@<TRIPOS>ATOM
      1 C1         -0.0167    1.3825    0.0096 C.ar      1 <0>        -0.0553
      2 C2          1.1930    2.0590    0.0017 C.ar      1 <0>        -0.1627
      3 C3          2.3709    1.3334   -0.0134 C.ar      1 <0>         0.1701
      4 N1          2.3501    0.0138   -0.0207 N.ar      1 <0>        -0.4798
      5 C4          1.2174   -0.6616   -0.0136 C.ar      1 <0>         0.1507
      6 C5          0.0021   -0.0041    0.0020 C.ar      1 <0>        -0.1462
      7 C6         -1.2872   -0.7844    0.0101 C.3       1 <0>         0.1949
      8 N2         -1.7181   -1.0298   -1.3684 N.pl3     1 <0>        -0.6322
      9 C7         -2.5850   -0.1498   -2.1697 C.3       1 <0>         0.0920
     10 C8         -2.6997   -0.8951   -3.5144 C.3       1 <0>         0.0364
     11 N3         -1.8888   -2.1052   -3.3206 N.2       1 <0>        -0.6245
     12 C9         -1.3789   -2.1126   -2.1323 C.2       1 <0>         0.5431
     13 N4         -0.5682   -3.1241   -1.6745 N.2       1 <0>        -0.5178
     14 N5         -0.2592   -4.2062   -2.5090 N.pl3     1 <0>         0.2255
     15 O1         -0.7055   -4.2504   -3.6317 O.2       1 <0>        -0.2969
     16 O2          0.4537   -5.0958   -2.1064 O.3       1 <0>        -0.3190
     17 Cl1         3.8931    2.1680   -0.0235 Cl        1 <0>        -0.0438
     18 H1         -0.9519    1.9225    0.0259 H         1 <0>         0.1402
     19 H2          1.2158    3.1388    0.0070 H         1 <0>         0.1408
     20 H3          1.2399   -1.7413   -0.0203 H         1 <0>         0.1760
     21 H4         -1.1323   -1.7366    0.5174 H         1 <0>         0.0957
     22 H5         -2.0538   -0.2139    0.5344 H         1 <0>         0.0768
     23 H6         -3.5644   -0.0459   -1.7028 H         1 <0>         0.0602
     24 H7         -2.1189    0.8257   -2.3093 H         1 <0>         0.0548
     25 H8         -3.7376   -1.1591   -3.7176 H         1 <0>         0.0616
     26 H9         -2.2933   -0.2883   -4.3235 H         1 <0>         0.0592
@<TRIPOS>BOND
     1    1    6 ar
     2    1    2 ar
     3    1   18 1
     4    2    3 ar
     5    2   19 1
     6    3    4 ar
     7    3   17 1
     8    4    5 ar
     9    5    6 ar
    10    5   20 1
    11    6    7 1
    12    7    8 1
    13    7   21 1
    14    7   22 1
    15    8   12 1
    16    8    9 1
    17    9   10 1
    18    9   23 1
    19    9   24 1
    20   10   11 1
    21   10   25 1
    22   10   26 1
    23   11   12 2
    24   12   13 1
    25   13   14 1
    26   14   15 2
    27   14   16 1
@<TRIPOS>MOLECULE
ZINC04474604
   26    27     0     0     0
SMALL
USER_CHARGES

@<TRIPOS>ATOM
      1 C1         -0.0167    1.3825    0.0096 C.ar      1 <0>        -0.0532
      2 C2          1.1930    2.0590    0.0017 C.ar      1 <0>        -0.1625
      3 C3          2.3709    1.3334   -0.0134 C.ar      1 <0>         0.1721
      4 N1          2.3501    0.0138   -0.0207 N.ar      1 <0>        -0.4788
      5 C4          1.2174   -0.6616   -0.0136 C.ar      1 <0>         0.1506
      6 C5          0.0021   -0.0041    0.0020 C.ar      1 <0>        -0.1498
      7 C6         -1.2872   -0.7844    0.0101 C.3       1 <0>         0.1883
      8 N2         -1.7181   -1.0298   -1.3684 N.pl3     1 <0>        -0.6118
      9 C7         -2.5845   -0.1444   -2.1607 C.3       1 <0>         0.0913
     10 C8         -2.7153   -0.8693   -3.5142 C.3       1 <0>         0.0217
     11 N3         -1.9088   -2.0868   -3.3420 N.2       1 <0>        -0.5777
     12 C9         -1.3806   -2.0944   -2.1099 C.2       1 <0>         0.5255
     13 N4         -0.5862   -3.0832   -1.6570 N.2       1 <0>        -0.4227
     14 N5         -0.2991   -4.0814   -2.4221 N.pl3     1 <0>         0.2681
     15 O1         -0.7828   -4.1336   -3.6459 O.2       1 <0>        -0.3946
     16 O2          0.4777   -5.0484   -1.9793 O.3       1 <0>        -0.4246
     17 Cl1         3.8931    2.1680   -0.0235 Cl        1 <0>        -0.0420
     18 H1         -0.9519    1.9225    0.0259 H         1 <0>         0.1414
     19 H2          1.2158    3.1388    0.0070 H         1 <0>         0.1418
     20 H3          1.2399   -1.7413   -0.0203 H         1 <0>         0.1764
     21 H4         -1.1323   -1.7366    0.5174 H         1 <0>         0.1001
     22 H5         -2.0538   -0.2139    0.5344 H         1 <0>         0.0828
     23 H6         -3.5605   -0.0401   -1.6868 H         1 <0>         0.0654
     24 H7         -2.1161    0.8309   -2.2928 H         1 <0>         0.0600
     25 H8         -3.7562   -1.1248   -3.7123 H         1 <0>         0.0673
     26 H9         -2.3118   -0.2538   -4.3183 H         1 <0>         0.0649
@<TRIPOS>BOND
     1    1    6 ar
     2    1    2 ar
     3    1   18 1
     4    2    3 ar
     5    2   19 1
     6    3    4 ar
     7    3   17 1
     8    4    5 ar
     9    5    6 ar
    10    5   20 1
    11    6    7 1
    12    7    8 1
    13    7   21 1
    14    7   22 1
    15    8   12 1
    16    8    9 1
    17    9   10 1
    18    9   23 1
    19    9   24 1
    20   10   11 1
    21   10   25 1
    22   10   26 1
    23   11   12 1
    24   12   13 2
    25   13   14 1
    26   14   15 2
    27   14   16 1
@<TRIPOS>MOLECULE
ZINC04474604
   26    27     0     0     0
SMALL
USER_CHARGES

@<TRIPOS>ATOM
      1 C1         -3.3367   -1.7998    0.9453 C.ar      1 <0>        -0.0336
      2 C2         -4.5646   -1.6558    1.5720 C.ar      1 <0>        -0.1545
      3 C3         -5.0109   -0.3872    1.8967 C.ar      1 <0>         0.1698
      4 N1         -4.2820    0.6766    1.6158 N.ar      1 <0>        -0.4846
      5 C4         -3.1096    0.5761    1.0204 C.ar      1 <0>         0.1245
      6 C5         -2.5996   -0.6587    0.6670 C.ar      1 <0>        -0.1426
      7 C6         -1.2589   -0.7638   -0.0131 C.3       1 <0>         0.1390
      8 N2         -1.4547   -1.0350   -1.4394 N.pl3     1 <0>        -0.6490
      9 C7         -2.0000   -0.0849   -2.4203 C.3       1 <0>         0.0881
     10 C8         -1.9876   -0.8726   -3.7447 C.3       1 <0>         0.0485
     11 N3         -1.4366   -2.1836   -3.3705 N.2       1 <0>        -0.6488
     12 C9         -1.1599   -2.1867   -2.0588 C.2       1 <0>         0.6094
     13 N4         -0.6367   -3.2512   -1.4207 N.2       1 <0>        -0.5267
     14 N5         -0.2558   -3.1441   -0.1929 N.pl3     1 <0>         0.2724
     15 O1         -1.0477   -3.5462    0.7796 O.2       1 <0>        -0.3324
     16 O2          0.9248   -2.6326    0.0881 O.3       1 <0>        -0.3484
     17 Cl1        -6.5469   -0.1924    2.6818 Cl        1 <0>        -0.0430
     18 H1         -2.9608   -2.7780    0.6841 H         1 <0>         0.1647
     19 H2         -5.1654   -2.5229    1.8036 H         1 <0>         0.1445
     20 H3         -2.5416    1.4692    0.8061 H         1 <0>         0.1613
     21 H4         -0.7159    0.1737    0.1073 H         1 <0>         0.0780
     22 H5         -0.6864   -1.5755    0.4358 H         1 <0>         0.1225
     23 H6         -3.0181    0.1985   -2.1533 H         1 <0>         0.0583
     24 H7         -1.3633    0.7968   -2.4937 H         1 <0>         0.0626
     25 H8         -2.9995   -0.9803   -4.1352 H         1 <0>         0.0586
     26 H9         -1.3448   -0.3820   -4.4756 H         1 <0>         0.0617
@<TRIPOS>BOND
     1    1    6 ar
     2    1    2 ar
     3    1   18 1
     4    2    3 ar
     5    2   19 1
     6    3    4 ar
     7    3   17 1
     8    4    5 ar
     9    5    6 ar
    10    5   20 1
    11    6    7 1
    12    7    8 1
    13    7   21 1
    14    7   22 1
    15    8   12 1
    16    8    9 1
    17    9   10 1
    18    9   23 1
    19    9   24 1
    20   10   11 1
    21   10   25 1
    22   10   26 1
    23   11   12 1
    24   12   13 2
    25   13   14 1
    26   14   15 2
    27   14   16 1
@<TRIPOS>MOLECULE
ZINC06068314
   56    60     0     0     0
SMALL
USER_CHARGES

@<TRIPOS>ATOM
      1 C1          5.1604   -4.2760    0.2466 C.3       1 <0>        -0.0403
      2 N1          3.7227   -3.9751    0.2237 N.4       1 <0>        -0.2769
      3 C2          3.1017   -4.2858    1.5388 C.3       1 <0>         0.0376
      4 H1          3.7007   -3.9227    2.3739 H         1 <0>         0.1476
      5 C3          2.9680   -5.8261    1.5414 C.3       1 <0>        -0.1433
      6 C4          2.9093   -6.2202    0.0509 C.3       1 <0>        -0.1433
      7 C5          3.0128   -4.8822   -0.7169 C.3       1 <0>         0.0393
      8 H2          3.5415   -4.9903   -1.6639 H         1 <0>         0.1507
      9 C6          1.5890   -4.3307   -0.8944 C.3       1 <0>        -0.1530
     10 C7          0.8585   -4.4021    0.4496 C.3       1 <0>         0.0801
     11 C8          1.6901   -3.6774    1.5312 C.3       1 <0>        -0.1653
     12 O1         -0.4163   -3.7673    0.3320 O.3       1 <0>        -0.3566
     13 C9         -1.4919   -4.5126    0.9062 C.3       1 <0>         0.1720
     14 C10        -1.2931   -4.4647    2.3703 C.ar      1 <0>        -0.0967
     15 C11        -1.3296   -3.1481    2.8761 C.ar      1 <0>        -0.1050
     16 C12        -1.2265   -2.8914    4.2203 C.ar      1 <0>        -0.1202
     17 C13        -1.0946   -3.9576    5.0916 C.ar      1 <0>        -0.1073
     18 C14        -1.0377   -5.2296    4.5856 C.ar      1 <0>        -0.1344
     19 C15        -1.1036   -5.4876    3.1955 C.ar      1 <0>        -0.0589
     20 C16        -0.8519   -6.9587    2.9470 C.3       1 <0>        -0.0740
     21 C17        -1.7549   -7.5889    1.9337 C.3       1 <0>        -0.0839
     22 C18        -1.6541   -7.0065    0.5391 C.ar      1 <0>        -0.0537
     23 C19        -1.6113   -5.7486    0.1070 C.ar      1 <0>        -0.1023
     24 C20        -1.6586   -5.4866   -1.2792 C.ar      1 <0>        -0.1048
     25 C21        -1.6743   -6.4984   -2.2051 C.ar      1 <0>        -0.1235
     26 C22        -1.6345   -7.8078   -1.7606 C.ar      1 <0>        -0.1063
     27 C23        -1.6306   -8.0519   -0.4122 C.ar      1 <0>        -0.1347
     28 C24         3.4944   -2.5705   -0.1407 C.3       1 <0>        -0.0567
     29 H3          5.5753   -4.1434   -0.7525 H         1 <0>         0.1200
     30 H4          5.6617   -3.6015    0.9407 H         1 <0>         0.1198
     31 H5          5.3108   -5.3064    0.5687 H         1 <0>         0.1196
     32 H6          3.8349   -6.2813    2.0202 H         1 <0>         0.0999
     33 H7          2.0516   -6.1265    2.0495 H         1 <0>         0.1092
     34 H8          3.7474   -6.8691   -0.2032 H         1 <0>         0.0999
     35 H9          1.9641   -6.7144   -0.1739 H         1 <0>         0.1106
     36 H10         1.6380   -3.2944   -1.2287 H         1 <0>         0.1006
     37 H11         1.0550   -4.9293   -1.6324 H         1 <0>         0.1142
     38 H12         0.7184   -5.4458    0.7311 H         1 <0>         0.0895
     39 H13         1.2245   -3.8232    2.5058 H         1 <0>         0.1130
     40 H14         1.7531   -2.6118    1.3104 H         1 <0>         0.1003
     41 H15        -2.3896   -3.9291    0.7018 H         1 <0>         0.1114
     42 H16        -1.4409   -2.3224    2.1889 H         1 <0>         0.1267
     43 H17        -1.2476   -1.8770    4.5904 H         1 <0>         0.1285
     44 H18        -1.0369   -3.7896    6.1568 H         1 <0>         0.1269
     45 H19        -0.9392   -6.0607    5.2682 H         1 <0>         0.1229
     46 H20         0.1784   -7.0798    2.6124 H         1 <0>         0.0678
     47 H21        -0.9680   -7.4919    3.8905 H         1 <0>         0.0859
     48 H22        -1.5223   -8.6525    1.8800 H         1 <0>         0.0848
     49 H23        -2.7840   -7.4831    2.2771 H         1 <0>         0.0809
     50 H24        -1.6833   -4.4621   -1.6199 H         1 <0>         0.1275
     51 H25        -1.7173   -6.2770   -3.2613 H         1 <0>         0.1280
     52 H26        -1.6073   -8.6255   -2.4657 H         1 <0>         0.1268
     53 H27        -1.6089   -9.0745   -0.0655 H         1 <0>         0.1230
     54 H28         3.9221   -2.3762   -1.1243 H         1 <0>         0.1210
     55 H29         2.4231   -2.3708   -0.1644 H         1 <0>         0.1344
     56 H30         3.9685   -1.9222    0.5962 H         1 <0>         0.1204
@<TRIPOS>BOND
     1    1    2 1
     2    1   29 1
     3    1   30 1
     4    1   31 1
     5    2    7 1
     6    2    3 1
     7    2   28 1
     8    3    4 1
     9    3   11 1
    10    3    5 1
    11    5    6 1
    12    5   32 1
    13    5   33 1
    14    6    7 1
    15    6   34 1
    16    6   35 1
    17    7    8 1
    18    7    9 1
    19    9   10 1
    20    9   36 1
    21    9   37 1
    22   10   11 1
    23   10   12 1
    24   10   38 1
    25   11   39 1
    26   11   40 1
    27   12   13 1
    28   13   23 1
    29   13   14 1
    30   13   41 1
    31   14   19 ar
    32   14   15 ar
    33   15   16 ar
    34   15   42 1
    35   16   17 ar
    36   16   43 1
    37   17   18 ar
    38   17   44 1
    39   18   19 ar
    40   18   45 1
    41   19   20 1
    42   20   21 1
    43   20   46 1
    44   20   47 1
    45   21   22 1
    46   21   48 1
    47   21   49 1
    48   22   27 ar
    49   22   23 ar
    50   23   24 ar
    51   24   25 ar
    52   24   50 1
    53   25   26 ar
    54   25   51 1
    55   26   27 ar
    56   26   52 1
    57   27   53 1
    58   28   54 1
    59   28   55 1
    60   28   56 1
@<TRIPOS>MOLECULE
ZINC01599730
   29    31     0     0     0
SMALL
USER_CHARGES

@<TRIPOS>ATOM
      1 C1         -0.0164    1.3600    0.0095 C.2       1 <0>        -0.0245
      2 C2          1.1996    2.0523    0.0016 C.2       1 <0>        -0.1843
      3 C3          2.3778    1.3768   -0.0442 C.2       1 <0>         0.0941
      4 N1          2.3937    0.0268   -0.1381 N.am      1 <0>        -0.5087
      5 C4          1.2352   -0.6700   -0.0346 C.2       1 <0>         0.5066
      6 O1          1.2662   -1.8886    0.0278 O.2       1 <0>        -0.5237
      7 C5          0.0021   -0.0041    0.0020 C.2       1 <0>        -0.2160
      8 C6          3.6089   -0.7431   -0.4070 C.3       1 <0>         0.0769
      9 C7          4.8712    0.0424   -0.0913 C.3       1 <0>        -0.1209
     10 H1          5.7197   -0.4721   -0.5424 H         1 <0>         0.1427
     11 C8          4.7670    1.4398   -0.7098 C.3       1 <0>        -0.1321
     12 C9          3.6522    2.1878    0.0311 C.3       1 <0>        -0.0636
     13 H2          3.5027    3.1776   -0.4001 H         1 <0>         0.1512
     14 C10         4.0502    2.2840    1.5133 C.3       1 <0>        -0.0032
     15 N2          4.0742    0.9227    2.0685 N.4       1 <0>        -0.5068
     16 C11         5.1112    0.1456    1.4075 C.3       1 <0>        -0.0085
     17 H3         -0.9536    1.8964    0.0258 H         1 <0>         0.1488
     18 H4          1.2018    3.1319    0.0318 H         1 <0>         0.1548
     19 H5         -0.9213   -0.5637    0.0243 H         1 <0>         0.1605
     20 H6          3.5951   -1.6485    0.1997 H         1 <0>         0.1127
     21 H7          3.6225   -1.0255   -1.4597 H         1 <0>         0.1058
     22 H8          5.7120    1.9695   -0.5893 H         1 <0>         0.1044
     23 H9          4.5190    1.3590   -1.7681 H         1 <0>         0.1039
     24 H10         5.0388    2.7347    1.6006 H         1 <0>         0.1478
     25 H11         3.3204    2.8884    2.0520 H         1 <0>         0.1423
     26 H12         4.2644    0.9675    3.0584 H         1 <0>         0.4367
     27 H13         5.1185   -0.8558    1.8380 H         1 <0>         0.1365
     28 H14         6.0788    0.6158    1.5829 H         1 <0>         0.1433
     29 H15         3.1779    0.4839    1.9198 H         1 <0>         0.4231
@<TRIPOS>BOND
     1    1    7 2
     2    1    2 1
     3    1   17 1
     4    2    3 2
     5    2   18 1
     6    3   12 1
     7    3    4 1
     8    4    5 am
     9    4    8 1
    10    5    6 2
    11    5    7 1
    12    7   19 1
    13    8    9 1
    14    8   20 1
    15    8   21 1
    16    9   10 1
    17    9   16 1
    18    9   11 1
    19   11   12 1
    20   11   22 1
    21   11   23 1
    22   12   13 1
    23   12   14 1
    24   14   15 1
    25   14   24 1
    26   14   25 1
    27   15   16 1
    28   15   26 1
    29   15   29 1
    30   16   27 1
    31   16   28 1
@<TRIPOS>MOLECULE
ZINC03805142
   25    26     0     0     0
SMALL
USER_CHARGES
3-(azetidin-2-ylmethoxy)pyridine
@<TRIPOS>ATOM
      1 C1          3.6404    0.9113    5.5508 C.ar      1 <0>        -0.1268
      2 C2          3.2165    0.4989    4.2975 C.ar      1 <0>        -0.0959
      3 C3          2.7161    1.4560    3.4209 C.ar      1 <0>         0.0579
      4 C4          2.6650    2.7814    3.8281 C.ar      1 <0>         0.0241
      5 N1          3.0729    3.1315    5.0317 N.ar      1 <0>        -0.4473
      6 C5          3.5529    2.2492    5.8863 C.ar      1 <0>         0.0804
      7 O1          2.2884    1.0988    2.1813 O.3       1 <0>        -0.3149
      8 C6          1.7886    2.1417    1.3419 C.3       1 <0>         0.0434
      9 C7          1.3579    1.5520   -0.0026 C.3       1 <0>         0.0140
     10 H1          2.0964    0.8664   -0.4180 H         1 <0>         0.1732
     11 C8          0.8692    2.6072   -1.0048 C.3       1 <0>        -0.1675
     12 C9         -0.1751    1.5387   -1.3575 C.3       1 <0>        -0.0228
     13 H2          4.0341    0.1955    6.2572 H         1 <0>         0.1518
     14 H3          3.2735   -0.5401    4.0083 H         1 <0>         0.1465
     15 H4          2.2825    3.5333    3.1537 H         1 <0>         0.1551
     16 H5          3.8817    2.5765    6.8615 H         1 <0>         0.1677
     17 H6          2.5705    2.8836    1.1795 H         1 <0>         0.1137
     18 H7          0.9323    2.6155    1.8219 H         1 <0>         0.0883
     19 H8          0.4531    3.5025   -0.5428 H         1 <0>         0.1295
     20 H9          1.5771    2.8248   -1.8045 H         1 <0>         0.1319
     21 H10         0.1542    0.8499   -2.1354 H         1 <0>         0.1551
     22 H11        -1.1674    1.9475   -1.5479 H         1 <0>         0.1549
     23 N2          0.0682    1.0763   -0.0834 N.4       1 <0>        -0.4736
     24 H12        -0.5543    1.4964    0.6168 H         1 <0>         0.4378
     25 H13         0.0177    0.0530   -0.0162 H         1 <0>         0.4235
@<TRIPOS>BOND
     1    1    6 ar
     2    1    2 ar
     3    1   13 1
     4    2    3 ar
     5    2   14 1
     6    3    4 ar
     7    3    7 1
     8    4    5 ar
     9    4   15 1
    10    5    6 ar
    11    6   16 1
    12    7    8 1
    13    8    9 1
    14    8   17 1
    15    8   18 1
    16    9   10 1
    17    9   11 1
    18    9   23 1
    19   11   12 1
    20   11   19 1
    21   11   20 1
    22   12   21 1
    23   12   22 1
    24   12   23 1
    25   23   24 1
    26   23   25 1
@<TRIPOS>MOLECULE
ZINC00967913
   28    30     0     0     0
SMALL
USER_CHARGES

@<TRIPOS>ATOM
      1 C1          1.2171   -0.6545    0.1555 C.ar      1 <0>        -0.0752
      2 C2          2.3777    0.1031    0.1418 C.ar      1 <0>        -0.1425
      3 C3          2.2860    1.4736   -0.0235 C.ar      1 <0>         0.1878
      4 N1          1.1116    2.0586   -0.1663 N.ar      1 <0>        -0.4633
      5 C4         -0.0121    1.3684   -0.1581 C.ar      1 <0>         0.1458
      6 C5          0.0021   -0.0041    0.0020 C.ar      1 <0>        -0.1631
      7 C6         -1.2872   -0.7844    0.0101 C.3       1 <0>        -0.0612
      8 H1         -2.1393   -0.1141    0.1233 H         1 <0>         0.1365
      9 C7         -1.2749   -1.8456    1.1375 C.3       1 <0>        -0.1443
     10 C8         -1.4042   -3.1952    0.3689 C.3       1 <0>         0.0384
     11 H2         -1.0647   -4.0789    0.9092 H         1 <0>         0.1726
     12 C9         -2.8802   -3.2368   -0.1294 C.3       1 <0>        -0.1467
     13 C10        -2.9122   -2.1745   -1.2554 C.3       1 <0>        -0.1410
     14 C11        -1.4241   -1.6312   -1.2910 C.3       1 <0>         0.0452
     15 H3         -1.1139   -1.1348   -2.2105 H         1 <0>         0.1734
     16 N2         -0.6607   -2.8754   -0.9018 N.4       1 <0>        -0.5418
     17 Cl1         3.7316    2.4346   -0.0426 Cl        1 <0>        -0.0014
     18 H4          1.2583   -1.7267    0.2784 H         1 <0>         0.1305
     19 H5          3.3413   -0.3704    0.2590 H         1 <0>         0.1568
     20 H6         -0.9547    1.8820   -0.2775 H         1 <0>         0.1733
     21 H7         -0.3364   -1.8073    1.6905 H         1 <0>         0.1022
     22 H8         -2.1225   -1.7031    1.8079 H         1 <0>         0.1235
     23 H9         -3.1240   -4.2228   -0.5251 H         1 <0>         0.1015
     24 H10        -3.5644   -2.9648    0.6743 H         1 <0>         0.1177
     25 H11        -3.1719   -2.6339   -2.2092 H         1 <0>         0.1026
     26 H12        -3.6123   -1.3759   -1.0098 H         1 <0>         0.1175
     27 H13         0.3118   -2.6745   -0.7232 H         1 <0>         0.4224
     28 H14        -0.7670   -3.6066   -1.5889 H         1 <0>         0.4327
@<TRIPOS>BOND
     1    1    6 ar
     2    1    2 ar
     3    1   18 1
     4    2    3 ar
     5    2   19 1
     6    3    4 ar
     7    3   17 1
     8    4    5 ar
     9    5    6 ar
    10    5   20 1
    11    6    7 1
    12    7    8 1
    13    7   14 1
    14    7    9 1
    15    9   10 1
    16    9   21 1
    17    9   22 1
    18   10   11 1
    19   10   16 1
    20   10   12 1
    21   12   13 1
    22   12   23 1
    23   12   24 1
    24   13   14 1
    25   13   25 1
    26   13   26 1
    27   14   15 1
    28   14   16 1
    29   16   27 1
    30   16   28 1
@<TRIPOS>MOLECULE
ZINC02565794
   28    30     0     0     0
SMALL
USER_CHARGES

@<TRIPOS>ATOM
      1 C1          1.0928   -0.4585   -0.7237 C.ar      1 <0>        -0.0620
      2 C2          2.2584    0.2913   -0.7024 C.ar      1 <0>        -0.1496
      3 C3          2.2945    1.4601    0.0370 C.ar      1 <0>         0.1879
      4 N1          1.2364    1.8615    0.7161 N.ar      1 <0>        -0.4678
      5 C4          0.1118    1.1728    0.7180 C.ar      1 <0>         0.1387
      6 C5          0.0021   -0.0041    0.0020 C.ar      1 <0>        -0.1517
      7 C6         -1.2872   -0.7844    0.0101 C.3       1 <0>        -0.0603
      8 H1         -2.1406   -0.1121    0.0984 H         1 <0>         0.1214
      9 C7         -1.4069   -1.6526   -1.2663 C.3       1 <0>        -0.1520
     10 C8         -1.4635   -3.1084   -0.7127 C.3       1 <0>         0.0416
     11 H2         -1.8985   -3.8501   -1.3825 H         1 <0>         0.1732
     12 C9         -0.0153   -3.4112   -0.2228 C.3       1 <0>        -0.1506
     13 C10         0.1242   -2.5441    1.0524 C.3       1 <0>        -0.1538
     14 C11        -1.2892   -1.8286    1.1671 C.3       1 <0>         0.0430
     15 H3         -1.5584   -1.4416    2.1499 H         1 <0>         0.1768
     16 N2         -2.1888   -2.8932    0.5901 N.4       1 <0>        -0.5340
     17 Cl1         3.7479    2.4089    0.0725 Cl        1 <0>        -0.0051
     18 H4          1.0341   -1.3727   -1.2956 H         1 <0>         0.1499
     19 H5          3.1274   -0.0328   -1.2557 H         1 <0>         0.1556
     20 H6         -0.7333    1.5325    1.2862 H         1 <0>         0.1691
     21 H7         -2.3211   -1.4127   -1.8092 H         1 <0>         0.1082
     22 H8         -0.5337   -1.5186   -1.9048 H         1 <0>         0.1199
     23 H9          0.0951   -4.4685    0.0180 H         1 <0>         0.1039
     24 H10         0.7148   -3.1093   -0.9738 H         1 <0>         0.1130
     25 H11         0.3037   -3.1717    1.9253 H         1 <0>         0.1016
     26 H12         0.9234   -1.8126    0.9335 H         1 <0>         0.1174
     27 H13        -3.1247   -2.5463    0.4419 H         1 <0>         0.4324
     28 H14        -2.1894   -3.7275    1.1576 H         1 <0>         0.4332
@<TRIPOS>BOND
     1    1    6 ar
     2    1    2 ar
     3    1   18 1
     4    2    3 ar
     5    2   19 1
     6    3    4 ar
     7    3   17 1
     8    4    5 ar
     9    5    6 ar
    10    5   20 1
    11    6    7 1
    12    7    8 1
    13    7   14 1
    14    7    9 1
    15    9   10 1
    16    9   21 1
    17    9   22 1
    18   10   11 1
    19   10   16 1
    20   10   12 1
    21   12   13 1
    22   12   23 1
    23   12   24 1
    24   13   14 1
    25   13   25 1
    26   13   26 1
    27   14   15 1
    28   14   16 1
    29   16   27 1
    30   16   28 1
@<TRIPOS>MOLECULE
ZINC13704061
   29    30     0     0     0
SMALL
USER_CHARGES
1-(3-pyridyl)-1,4-diazepane
@<TRIPOS>ATOM
      1 C1          0.2184    5.3917   -0.9740 C.ar      1 <0>        -0.1545
      2 C2          0.1795    4.1092   -0.4515 C.ar      1 <0>        -0.1024
      3 C3          1.3352    3.3344   -0.5131 C.ar      1 <0>         0.0165
      4 C4          2.4790    3.8750   -1.0874 C.ar      1 <0>         0.1247
      5 N1          2.4708    5.0982   -1.5778 N.ar      1 <0>        -0.4699
      6 C5          1.3930    5.8570   -1.5347 C.ar      1 <0>         0.1098
      7 N2          1.3459    2.0351    0.0001 N.pl3     1 <0>        -0.4951
      8 C6          0.0571    1.3522   -0.2573 C.3       1 <0>         0.0313
      9 C7          0.1929   -0.1029   -0.2521 C.3       1 <0>        -0.1384
     10 C8          0.6917   -0.6295    1.1092 C.3       1 <0>        -0.0082
     11 C9          2.5062    0.8531    1.8468 C.3       1 <0>         0.0118
     12 C10         1.6269    2.0404    1.4151 C.3       1 <0>         0.0297
     13 H1         -0.6589    6.0208   -0.9431 H         1 <0>         0.1435
     14 H2         -0.7248    3.7196   -0.0077 H         1 <0>         0.1344
     15 H3          3.3824    3.2852   -1.1367 H         1 <0>         0.1602
     16 H4          1.4285    6.8559   -1.9437 H         1 <0>         0.1654
     17 H5         -0.3231    1.6685   -1.2286 H         1 <0>         0.0992
     18 H6         -0.6576    1.6435    0.5124 H         1 <0>         0.0617
     19 H7         -0.7764   -0.5504   -0.4720 H         1 <0>         0.1188
     20 H8          0.9012   -0.3959   -1.0270 H         1 <0>         0.0955
     21 H9          0.1944   -0.0894    1.9149 H         1 <0>         0.1278
     22 H10         0.4749   -1.6945    1.1912 H         1 <0>         0.1333
     23 H11         2.4264    0.7308    2.9270 H         1 <0>         0.1328
     24 H12         3.5431    1.0752    1.5943 H         1 <0>         0.1310
     25 H13         0.6848    1.9985    1.9617 H         1 <0>         0.0721
     26 H14         2.1386    2.9687    1.6693 H         1 <0>         0.1127
     27 N3          2.1386   -0.4400    1.1795 N.4       1 <0>        -0.5153
     28 H15         2.5192   -0.4408    0.2259 H         1 <0>         0.4370
     29 H16         2.5485   -1.2161    1.7123 H         1 <0>         0.4348
@<TRIPOS>BOND
     1    1    6 ar
     2    1    2 ar
     3    1   13 1
     4    2    3 ar
     5    2   14 1
     6    3    4 ar
     7    3    7 1
     8    4    5 ar
     9    4   15 1
    10    5    6 ar
    11    6   16 1
    12    7   12 1
    13    7    8 1
    14    8    9 1
    15    8   17 1
    16    8   18 1
    17    9   10 1
    18    9   19 1
    19    9   20 1
    20   10   21 1
    21   10   22 1
    22   10   27 1
    23   11   12 1
    24   11   23 1
    25   11   24 1
    26   11   27 1
    27   12   25 1
    28   12   26 1
    29   27   28 1
    30   27   29 1
@<TRIPOS>MOLECULE
ZINC00023624
   33    34     0     0     0
SMALL
USER_CHARGES
1-(5-methoxy-3-pyridyl)-1,4-diazepane
@<TRIPOS>ATOM
      1 C1          2.6075   -2.5875   -0.0363 C.3       1 <0>         0.0201
      2 O1          1.3032   -2.0040   -0.0207 O.3       1 <0>        -0.3077
      3 C2          1.2345   -0.6466   -0.0132 C.ar      1 <0>         0.1112
      4 C3          0.0021   -0.0041    0.0020 C.ar      1 <0>        -0.1350
      5 C4         -0.0168    1.3875    0.0097 C.ar      1 <0>         0.0863
      6 C5          1.1885    2.0793    0.0019 C.ar      1 <0>         0.0206
      7 N1          2.3368    1.4330   -0.0121 N.ar      1 <0>        -0.4195
      8 C6          2.3939    0.1159   -0.0202 C.ar      1 <0>         0.0065
      9 N2         -1.2305    2.0793    0.0192 N.pl3     1 <0>        -0.4931
     10 C7         -1.0189    3.4641    0.0257 C.3       1 <0>         0.0417
     11 C8         -2.3391    4.2378    0.2400 C.3       1 <0>        -0.1403
     12 C9         -3.1296    4.2218   -1.0435 C.3       1 <0>        -0.0041
     13 C10        -3.5471    1.8171   -0.6152 C.3       1 <0>        -0.0006
     14 C11        -2.1217    1.5993   -1.0561 C.3       1 <0>         0.0341
     15 H1          3.1576   -2.2713    0.8500 H         1 <0>         0.0641
     16 H2          2.5195   -3.6739   -0.0409 H         1 <0>         0.1112
     17 H3          3.1403   -2.2623   -0.9299 H         1 <0>         0.0633
     18 H4         -0.9176   -0.5703    0.0074 H         1 <0>         0.1467
     19 H5          1.1839    3.1593    0.0074 H         1 <0>         0.1611
     20 H6          3.3553   -0.3760   -0.0320 H         1 <0>         0.1652
     21 H7         -0.3250    3.7146    0.8281 H         1 <0>         0.1085
     22 H8         -0.5820    3.7621   -0.9274 H         1 <0>         0.0543
     23 H9         -2.9176    3.7605    1.0309 H         1 <0>         0.0987
     24 H10        -2.1171    5.2679    0.5189 H         1 <0>         0.1227
     25 H11        -3.6797    5.1589   -1.1288 H         1 <0>         0.1333
     26 H12        -2.4368    4.1464   -1.8816 H         1 <0>         0.1244
     27 H13        -3.5852    1.8175    0.4741 H         1 <0>         0.1428
     28 H14        -4.1632    0.9997   -0.9900 H         1 <0>         0.1382
     29 H15        -1.9297    2.1598   -1.9711 H         1 <0>         0.0745
     30 H16        -1.9487    0.5374   -1.2311 H         1 <0>         0.1276
     31 N3         -4.1183    3.0999   -1.1267 N.4       1 <0>        -0.5298
     32 H17        -4.3949    2.9728   -2.1073 H         1 <0>         0.4355
     33 H18        -4.9441    3.3425   -0.5668 H         1 <0>         0.4375
@<TRIPOS>BOND
     1    1    2 1
     2    1   15 1
     3    1   16 1
     4    1   17 1
     5    2    3 1
     6    3    8 ar
     7    3    4 ar
     8    4    5 ar
     9    4   18 1
    10    5    6 ar
    11    5    9 1
    12    6    7 ar
    13    6   19 1
    14    7    8 ar
    15    8   20 1
    16    9   14 1
    17    9   10 1
    18   10   11 1
    19   10   21 1
    20   10   22 1
    21   11   12 1
    22   11   23 1
    23   11   24 1
    24   12   25 1
    25   12   26 1
    26   12   31 1
    27   13   14 1
    28   13   27 1
    29   13   28 1
    30   13   31 1
    31   14   29 1
    32   14   30 1
    33   31   32 1
    34   31   33 1
@<TRIPOS>MOLECULE
ZINC13704048
   40    41     0     0     0
SMALL
USER_CHARGES
1-[5-(2-methoxyethoxy)-3-pyridyl]-1,4-diazepane
@<TRIPOS>ATOM
      1 C1         -1.3347    3.5964   -2.4111 C.3       1 <0>         0.0296
      2 O1         -0.6718    3.0184   -1.2848 O.3       1 <0>        -0.3885
      3 C2         -0.7527    1.5927   -1.2315 C.3       1 <0>         0.0604
      4 C3         -0.0127    1.0858    0.0080 C.3       1 <0>         0.0565
      5 O2         -0.6816    1.5467    1.1837 O.3       1 <0>        -0.2972
      6 C4         -0.1488    1.1821    2.3797 C.ar      1 <0>         0.1161
      7 C5         -0.7417    1.5908    3.5685 C.ar      1 <0>        -0.1345
      8 C6         -0.1592    1.1921    4.7679 C.ar      1 <0>         0.0868
      9 C7          0.9860    0.4055    4.7339 C.ar      1 <0>         0.0196
     10 N1          1.5181    0.0386    3.5855 N.ar      1 <0>        -0.4189
     11 C8          0.9910    0.3922    2.4299 C.ar      1 <0>         0.0044
     12 N2         -0.7175    1.5777    5.9891 N.pl3     1 <0>        -0.4930
     13 C9          0.0243    1.0693    7.0631 C.3       1 <0>         0.0418
     14 C10        -0.6895    1.3147    8.4113 C.3       1 <0>        -0.1403
     15 C11        -0.5226    2.7623    8.7971 C.3       1 <0>        -0.0040
     16 C12        -2.0956    3.3077    6.9617 C.3       1 <0>        -0.0005
     17 C13        -0.9395    3.0371    6.0323 C.3       1 <0>         0.0339
     18 H1         -0.8899    3.2145   -3.3299 H         1 <0>         0.0457
     19 H2         -2.3925    3.3352   -2.3835 H         1 <0>         0.0447
     20 H3         -1.2273    4.6807   -2.3788 H         1 <0>         0.0898
     21 H4         -0.2958    1.1691   -2.1259 H         1 <0>         0.0792
     22 H5         -1.7985    1.2898   -1.1795 H         1 <0>         0.0644
     23 H6          0.0021   -0.0041    0.0020 H         1 <0>         0.0863
     24 H7          1.0099    1.4631    0.0003 H         1 <0>         0.0793
     25 H8         -1.6317    2.2026    3.5617 H         1 <0>         0.1464
     26 H9          1.4454    0.0915    5.6594 H         1 <0>         0.1607
     27 H10         1.4548    0.0666    1.5105 H         1 <0>         0.1638
     28 H11         0.1638   -0.0027    6.9239 H         1 <0>         0.1085
     29 H12         1.0002    1.5546    7.0833 H         1 <0>         0.0542
     30 H13        -1.7500    1.0839    8.3100 H         1 <0>         0.0985
     31 H14        -0.2479    0.6793    9.1790 H         1 <0>         0.1226
     32 H15        -0.4559    2.8309    9.8828 H         1 <0>         0.1331
     33 H16         0.4064    3.1356    8.3663 H         1 <0>         0.1244
     34 H17        -2.7403    2.4293    6.9909 H         1 <0>         0.1427
     35 H18        -2.6676    4.1532    6.5795 H         1 <0>         0.1382
     36 H19        -0.0440    3.5349    6.4042 H         1 <0>         0.0745
     37 H20        -1.1769    3.4031    5.0334 H         1 <0>         0.1280
     38 N3         -1.6528    3.6378    8.3503 N.4       1 <0>        -0.5298
     39 H21        -1.3451    4.6170    8.3770 H         1 <0>         0.4355
     40 H22        -2.4451    3.5104    8.9908 H         1 <0>         0.4373
@<TRIPOS>BOND
     1    1    2 1
     2    1   18 1
     3    1   19 1
     4    1   20 1
     5    2    3 1
     6    3    4 1
     7    3   21 1
     8    3   22 1
     9    4    5 1
    10    4   23 1
    11    4   24 1
    12    5    6 1
    13    6   11 ar
    14    6    7 ar
    15    7    8 ar
    16    7   25 1
    17    8    9 ar
    18    8   12 1
    19    9   10 ar
    20    9   26 1
    21   10   11 ar
    22   11   27 1
    23   12   17 1
    24   12   13 1
    25   13   14 1
    26   13   28 1
    27   13   29 1
    28   14   15 1
    29   14   30 1
    30   14   31 1
    31   15   32 1
    32   15   33 1
    33   15   38 1
    34   16   17 1
    35   16   34 1
    36   16   35 1
    37   16   38 1
    38   17   36 1
    39   17   37 1
    40   38   39 1
    41   38   40 1
@<TRIPOS>MOLECULE
ZINC13704010
   28    29     0     0     0
SMALL
USER_CHARGES
3-[[(3S)-3-piperidyl]oxy]pyridine
@<TRIPOS>ATOM
      1 C1          4.3962    4.1149    1.9232 C.ar      1 <0>        -0.1294
      2 C2          3.4154    3.4100    1.2439 C.ar      1 <0>        -0.1701
      3 C3          2.3936    4.1254    0.6284 C.ar      1 <0>         0.0550
      4 C4          2.3963    5.5104    0.7112 C.ar      1 <0>         0.0936
      5 N1          3.3450    6.1428    1.3726 N.ar      1 <0>        -0.4385
      6 C5          4.3279    5.4946    1.9666 C.ar      1 <0>         0.0784
      7 O1          1.4097    3.4773   -0.0492 O.3       1 <0>        -0.2808
      8 C6          1.4160    2.0494    0.0061 C.3       1 <0>         0.0693
      9 H1          1.7666    1.7241    0.9856 H         1 <0>         0.0955
     10 C7         -0.0021    1.5224   -0.2301 C.3       1 <0>        -0.1361
     11 C8          0.0240   -0.0086   -0.2290 C.3       1 <0>        -0.1422
     12 C9          0.9946   -0.4982   -1.3062 C.3       1 <0>        -0.0080
     13 C10         2.3462    1.5001   -1.0779 C.3       1 <0>        -0.0372
     14 H2          5.2044    3.5922    2.4132 H         1 <0>         0.1451
     15 H3          3.4435    2.3315    1.1939 H         1 <0>         0.1313
     16 H4          1.6101    6.0759    0.2331 H         1 <0>         0.1694
     17 H5          5.0894    6.0493    2.4945 H         1 <0>         0.1677
     18 H6         -0.3679    1.8797   -1.1928 H         1 <0>         0.0966
     19 H7         -0.6592    1.8761    0.5643 H         1 <0>         0.1057
     20 H8          0.3527   -0.3662    0.7467 H         1 <0>         0.0921
     21 H9         -0.9753   -0.3898   -0.4392 H         1 <0>         0.1244
     22 H10         1.0263   -1.5877   -1.2984 H         1 <0>         0.1389
     23 H11         0.6578   -0.1516   -2.2832 H         1 <0>         0.1347
     24 H12         3.3596    1.8620   -0.9043 H         1 <0>         0.1343
     25 H13         2.0028    1.8372   -2.0559 H         1 <0>         0.1450
     26 N2          2.3465    0.0255   -1.0328 N.4       1 <0>        -0.5094
     27 H14         2.9981   -0.3344   -1.7401 H         1 <0>         0.4425
     28 H15         2.6473   -0.2844   -0.1013 H         1 <0>         0.4324
@<TRIPOS>BOND
     1    1    6 ar
     2    1    2 ar
     3    1   14 1
     4    2    3 ar
     5    2   15 1
     6    3    4 ar
     7    3    7 1
     8    4    5 ar
     9    4   16 1
    10    5    6 ar
    11    6   17 1
    12    7    8 1
    13    8    9 1
    14    8   13 1
    15    8   10 1
    16   10   11 1
    17   10   18 1
    18   10   19 1
    19   11   12 1
    20   11   20 1
    21   11   21 1
    22   12   22 1
    23   12   23 1
    24   12   26 1
    25   13   24 1
    26   13   25 1
    27   13   26 1
    28   26   27 1
    29   26   28 1
@<TRIPOS>MOLECULE
ZINC13704014
   28    29     0     0     0
SMALL
USER_CHARGES
3-[[(3R)-3-piperidyl]oxy]pyridine
@<TRIPOS>ATOM
      1 C1          2.3494    0.0460    0.5856 C.ar      1 <0>        -0.1294
      2 C2          1.1969   -0.6985    0.3913 C.ar      1 <0>        -0.1699
      3 C3         -0.0038   -0.0215    0.2044 C.ar      1 <0>         0.0550
      4 C4         -0.0043    1.3659    0.2191 C.ar      1 <0>         0.0936
      5 N1          1.1146    2.0370    0.4071 N.ar      1 <0>        -0.4386
      6 C5          2.2692    1.4257    0.5873 C.ar      1 <0>         0.0784
      7 O1         -1.1598   -0.7092    0.0098 O.3       1 <0>        -0.2809
      8 C6         -1.0575   -2.1295   -0.1098 C.3       1 <0>         0.0692
      9 H1         -0.1279   -2.3859   -0.6182 H         1 <0>         0.0955
     10 C7         -2.2450   -2.6614   -0.9169 C.3       1 <0>        -0.1361
     11 C8         -2.1599   -4.1886   -0.9891 C.3       1 <0>        -0.1422
     12 C9         -2.1403   -4.7612    0.4299 C.3       1 <0>        -0.0079
     13 C10        -1.0689   -2.7618    1.2838 C.3       1 <0>        -0.0371
     14 H2          3.2992   -0.4462    0.7343 H         1 <0>         0.1451
     15 H3          1.2293   -1.7781    0.3896 H         1 <0>         0.1313
     16 H4         -0.9310    1.9015    0.0753 H         1 <0>         0.1693
     17 H5          3.1640    2.0112    0.7385 H         1 <0>         0.1677
     18 H6         -3.1758   -2.3711   -0.4297 H         1 <0>         0.0966
     19 H7         -2.2161   -2.2460   -1.9242 H         1 <0>         0.1057
     20 H8         -3.0256   -4.5763   -1.5261 H         1 <0>         0.1244
     21 H9         -1.2477   -4.4779   -1.5109 H         1 <0>         0.0921
     22 H10        -3.0590   -4.4830    0.9465 H         1 <0>         0.1347
     23 H11        -2.0652   -5.8475    0.3822 H         1 <0>         0.1389
     24 H12        -0.2160   -2.3959    1.8556 H         1 <0>         0.1344
     25 H13        -1.9922   -2.4930    1.7970 H         1 <0>         0.1449
     26 N2         -0.9767   -4.2296    1.1650 N.4       1 <0>        -0.5095
     27 H14        -0.1169   -4.4746    0.6600 H         1 <0>         0.4324
     28 H15        -0.9519   -4.6439    2.1041 H         1 <0>         0.4424
@<TRIPOS>BOND
     1    1    6 ar
     2    1    2 ar
     3    1   14 1
     4    2    3 ar
     5    2   15 1
     6    3    4 ar
     7    3    7 1
     8    4    5 ar
     9    4   16 1
    10    5    6 ar
    11    6   17 1
    12    7    8 1
    13    8    9 1
    14    8   13 1
    15    8   10 1
    16   10   11 1
    17   10   18 1
    18   10   19 1
    19   11   12 1
    20   11   20 1
    21   11   21 1
    22   12   22 1
    23   12   23 1
    24   12   26 1
    25   13   24 1
    26   13   25 1
    27   13   26 1
    28   26   27 1
    29   26   28 1
