@<TRIPOS>MOLECULE
ZINC00008089
   24    25     0     0     0
SMALL
USER_CHARGES
3-methyl-5-[(2S)-pyrrolidin-2-yl]isoxazole
@<TRIPOS>ATOM
      1 C1         -5.8651    0.2746   -3.8050 C.3       1 <0>        -0.0899
      2 C2         -4.8057    0.3689   -2.7374 C.2       1 <0>         0.0302
      3 C3         -4.0562    1.5153   -2.3869 C.2       1 <0>        -0.1599
      4 C4         -3.2494    1.0859   -1.3872 C.2       1 <0>        -0.1195
      5 O1         -3.5312   -0.2115   -1.2029 O.3       1 <0>         0.1072
      6 N1         -4.3988   -0.5893   -1.9558 N.2       1 <0>        -0.3306
      7 C5         -2.2314    1.9037   -0.6350 C.3       1 <0>         0.1355
      8 H1         -2.4663    2.9642   -0.7266 H         1 <0>         0.1691
      9 C6         -0.8223    1.6286   -1.1920 C.3       1 <0>        -0.1425
     10 C7         -0.0127    1.0858    0.0080 C.3       1 <0>        -0.1491
     11 C8         -0.8009    1.6167    1.2317 C.3       1 <0>        -0.0042
     12 H2         -5.4031   -0.0065   -4.7515 H         1 <0>         0.0917
     13 H3         -6.6003   -0.4787   -3.5218 H         1 <0>         0.0864
     14 H4         -6.3580    1.2406   -3.9141 H         1 <0>         0.0916
     15 H5         -4.1137    2.5044   -2.8167 H         1 <0>         0.1871
     16 H6         -0.3756    2.5508   -1.5636 H         1 <0>         0.1165
     17 H7         -0.8682    0.8829   -1.9857 H         1 <0>         0.1085
     18 H8          0.0021   -0.0041    0.0020 H         1 <0>         0.1017
     19 H9          1.0019    1.4840    0.0005 H         1 <0>         0.1220
     20 H10        -0.6178    0.9936    2.1071 H         1 <0>         0.1467
     21 H11        -0.5403    2.6552    1.4361 H         1 <0>         0.1405
     22 N2         -2.2000    1.5144    0.7760 N.4       1 <0>        -0.5194
     23 H12        -2.5334    0.5490    0.8811 H         1 <0>         0.4393
     24 H13        -2.7953    2.1439    1.3270 H         1 <0>         0.4411
@<TRIPOS>BOND
     1    1    2 1
     2    1   12 1
     3    1   13 1
     4    1   14 1
     5    2    6 2
     6    2    3 1
     7    3    4 2
     8    3   15 1
     9    4    5 1
    10    4    7 1
    11    5    6 1
    12    7    8 1
    13    7    9 1
    14    7   22 1
    15    9   10 1
    16    9   16 1
    17    9   17 1
    18   10   11 1
    19   10   18 1
    20   10   19 1
    21   11   20 1
    22   11   21 1
    23   11   22 1
    24   22   23 1
    25   22   24 1
@<TRIPOS>MOLECULE
ZINC13819699
   21    21     0     0     0
SMALL
USER_CHARGES
2-[(5-chloro-3-pyridyl)oxy]ethanamine
@<TRIPOS>ATOM
      1 C1         -0.7416    1.5908    3.5700 C.ar      1 <0>        -0.0908
      2 C2         -0.1488    1.1821    2.3797 C.ar      1 <0>         0.0743
      3 C3          0.9906    0.3925    2.4307 C.ar      1 <0>         0.0295
      4 N1          1.5141    0.0396    3.5881 N.ar      1 <0>        -0.4282
      5 C4          0.9782    0.4096    4.7344 C.ar      1 <0>         0.0970
      6 C5         -0.1619    1.1934    4.7650 C.ar      1 <0>        -0.0512
      7 Cl1        -0.8581    1.6726    6.2814 Cl        1 <0>        -0.0224
      8 O1         -0.6816    1.5467    1.1837 O.3       1 <0>        -0.3223
      9 C6         -0.0127    1.0858    0.0080 C.3       1 <0>         0.0164
     10 C7         -0.7527    1.5927   -1.2315 C.3       1 <0>         0.0082
     11 H1         -1.6314    2.2028    3.5633 H         1 <0>         0.1574
     12 H2          1.4559    0.0662    1.5123 H         1 <0>         0.1647
     13 H3          1.4348    0.0966    5.6618 H         1 <0>         0.1772
     14 H4          0.0021   -0.0041    0.0020 H         1 <0>         0.1146
     15 H5          1.0099    1.4631    0.0003 H         1 <0>         0.0930
     16 H6         -0.2958    1.1691   -2.1259 H         1 <0>         0.1579
     17 H7         -1.7985    1.2898   -1.1795 H         1 <0>         0.1449
     18 H8          0.2910    3.3668   -1.2701 H         1 <0>         0.4378
     19 H9         -1.1511    3.4177   -2.0968 H         1 <0>         0.4437
     20 N2         -0.6816    3.0641   -1.2648 N.4       1 <0>        -0.6479
     21 H10        -1.1460    3.4434   -0.4314 H         1 <0>         0.4461
@<TRIPOS>BOND
     1    1    6 ar
     2    1    2 ar
     3    1   11 1
     4    2    3 ar
     5    2    8 1
     6    3    4 ar
     7    3   12 1
     8    4    5 ar
     9    5    6 ar
    10    5   13 1
    11    6    7 1
    12    8    9 1
    13    9   10 1
    14    9   14 1
    15    9   15 1
    16   10   16 1
    17   10   17 1
    18   10   20 1
    19   18   20 1
    20   19   20 1
    21   20   21 1
@<TRIPOS>MOLECULE
ZINC13589050
   24    24     0     0     0
SMALL
USER_CHARGES
N-methyl-2-(3-pyridyloxy)ethanamine
@<TRIPOS>ATOM
      1 C1         -5.6415    6.1621    1.3823 C.3       1 <0>        -0.0435
      2 C2         -3.6213    5.9165    0.0704 C.3       1 <0>         0.0046
      3 C3         -2.2257    5.2898    0.0532 C.3       1 <0>         0.0202
      4 O1         -2.3430    3.8657    0.0462 O.3       1 <0>        -0.3252
      5 C4         -1.1869    3.1513    0.0309 C.ar      1 <0>         0.0578
      6 C5         -1.2170    1.7603    0.0173 C.ar      1 <0>        -0.0962
      7 C6         -0.0126    1.0758    0.0080 C.ar      1 <0>        -0.1278
      8 C7          1.1704    1.7914    0.0005 C.ar      1 <0>         0.0820
      9 N1          1.1639    3.1098    0.0081 N.ar      1 <0>        -0.4474
     10 C8          0.0399    3.7986    0.0226 C.ar      1 <0>         0.0264
     11 H1         -5.5685    7.2470    1.3072 H         1 <0>         0.1241
     12 H2         -6.2366    5.7797    0.5530 H         1 <0>         0.1239
     13 H3         -6.1182    5.8945    2.3253 H         1 <0>         0.1269
     14 H4         -3.5343    6.9997   -0.0139 H         1 <0>         0.1526
     15 H5         -4.2024    5.5324   -0.7680 H         1 <0>         0.1429
     16 H6         -1.6751    5.6047    0.9397 H         1 <0>         0.0900
     17 H7         -1.6924    5.6148   -0.8402 H         1 <0>         0.1123
     18 H8         -2.1563    1.2273    0.0184 H         1 <0>         0.1461
     19 H9          0.0021   -0.0041    0.0020 H         1 <0>         0.1517
     20 H10         2.1124    1.2633   -0.0114 H         1 <0>         0.1677
     21 H11         0.0746    4.8780    0.0285 H         1 <0>         0.1565
     22 N2         -4.2912    5.5699    1.3381 N.4       1 <0>        -0.5214
     23 H12        -4.3666    4.5487    1.4131 H         1 <0>         0.4411
     24 H13        -3.7372    5.9309    2.1236 H         1 <0>         0.4346
@<TRIPOS>BOND
     1    1   11 1
     2    1   12 1
     3    1   13 1
     4    1   22 1
     5    2    3 1
     6    2   14 1
     7    2   15 1
     8    2   22 1
     9    3    4 1
    10    3   16 1
    11    3   17 1
    12    4    5 1
    13    5   10 ar
    14    5    6 ar
    15    6    7 ar
    16    6   18 1
    17    7    8 ar
    18    7   19 1
    19    8    9 ar
    20    8   20 1
    21    9   10 ar
    22   10   21 1
    23   22   23 1
    24   22   24 1
@<TRIPOS>MOLECULE
ZINC13819629
   30    30     0     0     0
SMALL
USER_CHARGES
(2R)-1-[(6-fluoro-3-pyridyl)oxy]-N,N-dimethyl-propan-2-amine
@<TRIPOS>ATOM
      1 C1          0.2678    7.9917   -1.1362 C.3       1 <0>        -0.1849
      2 C2          1.1542    7.5620    0.0344 C.3       1 <0>         0.0396
      3 H1          2.1345    8.0288   -0.0617 H         1 <0>         0.1577
      4 C3          1.3108    6.0401    0.0238 C.3       1 <0>         0.0220
      5 O1          0.0195    5.4283    0.0324 O.3       1 <0>        -0.3157
      6 C4         -0.0198    4.0693    0.0246 C.ar      1 <0>         0.0493
      7 C5         -1.2395    3.3990    0.0326 C.ar      1 <0>        -0.0654
      8 C6         -1.2303    2.0145    0.0189 C.ar      1 <0>        -0.1491
      9 C7         -0.0162    1.3468    0.0094 C.ar      1 <0>         0.2941
     10 N1          1.1226    2.0141    0.0022 N.ar      1 <0>        -0.4770
     11 C8          1.1543    3.3330    0.0089 C.ar      1 <0>         0.0645
     12 F1          0.0021   -0.0041    0.0020 F         1 <0>        -0.1010
     13 C9          1.3104    7.5038    2.4500 C.3       1 <0>        -0.0500
     14 C10         0.3674    9.4404    1.3441 C.3       1 <0>        -0.0467
     15 H2          0.1562    9.0760   -1.1286 H         1 <0>         0.0865
     16 H3          0.7281    7.6804   -2.0739 H         1 <0>         0.1067
     17 H4         -0.7125    7.5249   -1.0401 H         1 <0>         0.0900
     18 H5          1.8676    5.7259    0.9066 H         1 <0>         0.0921
     19 H6          1.8507    5.7367   -0.8732 H         1 <0>         0.1122
     20 H7         -2.1708    3.9457    0.0444 H         1 <0>         0.1584
     21 H8         -2.1581    1.4617    0.0203 H         1 <0>         0.1649
     22 H9          2.1055    3.8444    0.0026 H         1 <0>         0.1673
     23 H10         2.3194    7.9135    2.4030 H         1 <0>         0.1262
     24 H11         0.8291    7.8284    3.3725 H         1 <0>         0.1268
     25 H12         1.3590    6.4151    2.4290 H         1 <0>         0.1195
     26 H13        -0.2696    9.7596    0.5192 H         1 <0>         0.1245
     27 H14        -0.0939    9.7239    2.2901 H         1 <0>         0.1249
     28 H15         1.3422    9.9202    1.2571 H         1 <0>         0.1247
     29 N2          0.5078    7.9697    1.2996 N.4       1 <0>        -0.3977
     30 H16        -0.4252    7.5440    1.3497 H         1 <0>         0.4354
@<TRIPOS>BOND
     1    1    2 1
     2    1   15 1
     3    1   16 1
     4    1   17 1
     5    2    3 1
     6    2    4 1
     7    2   29 1
     8    4    5 1
     9    4   18 1
    10    4   19 1
    11    5    6 1
    12    6   11 ar
    13    6    7 ar
    14    7    8 ar
    15    7   20 1
    16    8    9 ar
    17    8   21 1
    18    9   10 ar
    19    9   12 1
    20   10   11 ar
    21   11   22 1
    22   13   23 1
    23   13   24 1
    24   13   25 1
    25   13   29 1
    26   14   26 1
    27   14   27 1
    28   14   28 1
    29   14   29 1
    30   29   30 1
@<TRIPOS>MOLECULE
ZINC13819631
   30    30     0     0     0
SMALL
USER_CHARGES
(2S)-1-[(6-fluoro-3-pyridyl)oxy]-N,N-dimethyl-propan-2-amine
@<TRIPOS>ATOM
      1 C1         -2.2405    1.4762   -1.0179 C.3       1 <0>        -0.1849
      2 C2         -0.8017    1.9868   -1.1173 C.3       1 <0>         0.0394
      3 H1         -0.3600    1.6485   -2.0545 H         1 <0>         0.1577
      4 C3         -0.7993    3.5163   -1.0752 C.3       1 <0>         0.0217
      5 O1         -1.4822    3.9616    0.0984 O.3       1 <0>        -0.3155
      6 C4         -1.5705    5.3048    0.2889 C.ar      1 <0>         0.0493
      7 C5         -2.2202    5.8172    1.4081 C.ar      1 <0>        -0.0654
      8 C6         -2.2848    7.1918    1.5604 C.ar      1 <0>        -0.1491
      9 C7         -1.7051    8.0061    0.6009 C.ar      1 <0>         0.2941
     10 N1         -1.0961    7.4866   -0.4487 N.ar      1 <0>        -0.4769
     11 C8         -1.0098    6.1822   -0.6258 C.ar      1 <0>         0.0645
     12 F1         -1.7635    9.3485    0.7415 F         1 <0>        -0.1010
     13 C9          0.0021   -0.0041    0.0020 C.3       1 <0>        -0.0465
     14 C10         1.3463    2.0098   -0.0000 C.3       1 <0>        -0.0506
     15 H2         -2.2422    0.3866   -1.0478 H         1 <0>         0.0865
     16 H3         -2.6823    1.8145   -0.0806 H         1 <0>         0.0900
     17 H4         -2.8222    1.8635   -1.8544 H         1 <0>         0.1067
     18 H5          0.2288    3.8776   -1.0565 H         1 <0>         0.0923
     19 H6         -1.3050    3.9048   -1.9592 H         1 <0>         0.1124
     20 H7         -2.6629    5.1583    2.1404 H         1 <0>         0.1584
     21 H8         -2.7814    7.6241    2.4165 H         1 <0>         0.1649
     22 H9         -0.5002    5.7937   -1.4952 H         1 <0>         0.1673
     23 H10         0.5890   -0.3641    0.8470 H         1 <0>         0.1249
     24 H11        -1.0174   -0.3817    0.0806 H         1 <0>         0.1245
     25 H12         0.4494   -0.3563   -0.9275 H         1 <0>         0.1248
     26 H13         1.8658    1.6723   -0.8968 H         1 <0>         0.1265
     27 H14         1.3024    3.0989    0.0063 H         1 <0>         0.1197
     28 H15         1.8828    1.6627    0.8830 H         1 <0>         0.1266
     29 N2         -0.0305    1.4733    0.0344 N.4       1 <0>        -0.3976
     30 H16        -0.4856    1.7779    0.9029 H         1 <0>         0.4354
@<TRIPOS>BOND
     1    1    2 1
     2    1   15 1
     3    1   16 1
     4    1   17 1
     5    2    3 1
     6    2    4 1
     7    2   29 1
     8    4    5 1
     9    4   18 1
    10    4   19 1
    11    5    6 1
    12    6   11 ar
    13    6    7 ar
    14    7    8 ar
    15    7   20 1
    16    8    9 ar
    17    8   21 1
    18    9   10 ar
    19    9   12 1
    20   10   11 ar
    21   11   22 1
    22   13   23 1
    23   13   24 1
    24   13   25 1
    25   13   29 1
    26   14   26 1
    27   14   27 1
    28   14   28 1
    29   14   29 1
    30   29   30 1
@<TRIPOS>MOLECULE
ZINC13819658
   26    26     0     0     0
SMALL
USER_CHARGES
N-methyl-2-[(5-nitro-3-pyridyl)oxy]ethanamine
@<TRIPOS>ATOM
      1 C1         -1.3707    3.5816   -2.4663 C.3       1 <0>        -0.0440
      2 C2         -0.7527    1.5927   -1.2315 C.3       1 <0>         0.0046
      3 C3         -0.0127    1.0858    0.0080 C.3       1 <0>         0.0170
      4 O1         -0.6816    1.5467    1.1837 O.3       1 <0>        -0.3156
      5 C4         -0.1488    1.1821    2.3797 C.ar      1 <0>         0.0683
      6 C5         -0.7416    1.5907    3.5703 C.ar      1 <0>        -0.0357
      7 C6         -0.1621    1.1941    4.7644 C.ar      1 <0>        -0.0567
      8 C7          0.9773    0.4115    4.7345 C.ar      1 <0>         0.1553
      9 N1          1.5142    0.0413    3.5887 N.ar      1 <0>        -0.4271
     10 C8          0.9906    0.3926    2.4308 C.ar      1 <0>         0.0756
     11 N2         -0.7559    1.6030    6.0570 N.pl3     1 <0>         0.0229
     12 O2         -1.7600    2.2922    6.0750 O.2       1 <0>        -0.1396
     13 O3         -0.2405    1.2502    7.1027 O.3       1 <0>        -0.1254
     14 H1         -2.4208    3.2925   -2.4229 H         1 <0>         0.1250
     15 H2         -1.2935    4.6688   -2.4824 H         1 <0>         0.1282
     16 H3         -0.9181    3.1718   -3.3693 H         1 <0>         0.1251
     17 H4         -0.2958    1.1691   -2.1259 H         1 <0>         0.1566
     18 H5         -1.7985    1.2898   -1.1795 H         1 <0>         0.1456
     19 H6          0.0021   -0.0041    0.0020 H         1 <0>         0.1178
     20 H7          1.0099    1.4631    0.0003 H         1 <0>         0.0955
     21 H8         -1.6316    2.2025    3.5636 H         1 <0>         0.1771
     22 H9          1.4334    0.0989    5.6623 H         1 <0>         0.1965
     23 H10         1.4562    0.0661    1.5127 H         1 <0>         0.1793
     24 N3         -0.6645    3.0644   -1.2791 N.4       1 <0>        -0.5225
     25 H11        -1.0928    3.4569   -0.4325 H         1 <0>         0.4411
     26 H12         0.3227    3.3432   -1.3240 H         1 <0>         0.4351
@<TRIPOS>BOND
     1    1   14 1
     2    1   15 1
     3    1   16 1
     4    1   24 1
     5    2    3 1
     6    2   17 1
     7    2   18 1
     8    2   24 1
     9    3    4 1
    10    3   19 1
    11    3   20 1
    12    4    5 1
    13    5   10 ar
    14    5    6 ar
    15    6    7 ar
    16    6   21 1
    17    7    8 ar
    18    7   11 1
    19    8    9 ar
    20    8   22 1
    21    9   10 ar
    22   10   23 1
    23   11   12 2
    24   11   13 1
    25   24   25 1
    26   24   26 1
@<TRIPOS>MOLECULE
ZINC13819609
   27    27     0     0     0
SMALL
USER_CHARGES
2-[(5-bromo-3-pyridyl)oxy]-N,N-dimethyl-ethanamine
@<TRIPOS>ATOM
      1 C1          0.5417    3.6059   -1.5896 C.3       1 <0>        -0.0483
      2 C2         -1.8225    3.5786   -2.1113 C.3       1 <0>        -0.0429
      3 C3         -0.7543    1.5926   -1.2296 C.3       1 <0>         0.0037
      4 C4         -0.0306    1.0863    0.0197 C.3       1 <0>         0.0193
      5 O1         -0.7779    1.4485    1.1827 O.3       1 <0>        -0.3211
      6 C5         -0.2691    1.0713    2.3852 C.ar      1 <0>         0.0682
      7 C6         -0.9375    1.3861    3.5640 C.ar      1 <0>        -0.0697
      8 C7         -0.3796    0.9797    4.7661 C.ar      1 <0>        -0.1097
      9 C8          0.8138    0.2799    4.7540 C.ar      1 <0>         0.1142
     10 N1          1.4210   -0.0024    3.6184 N.ar      1 <0>        -0.4341
     11 C9          0.9210    0.3620    2.4542 C.ar      1 <0>         0.0402
     12 Br1        -1.2398    1.3762    6.4028 Br        1 <0>        -0.0001
     13 H1          0.8111    3.2640   -2.5889 H         1 <0>         0.1269
     14 H2          0.5001    4.6950   -1.5772 H         1 <0>         0.1257
     15 H3          1.2892    3.2627   -0.8743 H         1 <0>         0.1190
     16 H4         -2.7999    3.2880   -1.7260 H         1 <0>         0.1232
     17 H5         -1.7580    4.6658   -2.1554 H         1 <0>         0.1245
     18 H6         -1.6887    3.1658   -3.1111 H         1 <0>         0.1250
     19 H7         -0.2332    1.2395   -2.1195 H         1 <0>         0.1541
     20 H8         -1.7774    1.2165   -1.2344 H         1 <0>         0.1431
     21 H9          0.0626    0.0014   -0.0290 H         1 <0>         0.1141
     22 H10         0.9617    1.5343    0.0714 H         1 <0>         0.0907
     23 H11        -1.8679    1.9341    3.5430 H         1 <0>         0.1567
     24 H12         1.2536   -0.0396    5.6872 H         1 <0>         0.1766
     25 H13         1.4454    0.1087    1.5446 H         1 <0>         0.1647
     26 N2         -0.7786    3.0701   -1.1967 N.4       1 <0>        -0.4014
     27 H14        -0.9930    3.3790   -0.2413 H         1 <0>         0.4373
@<TRIPOS>BOND
     1    1   13 1
     2    1   14 1
     3    1   15 1
     4    1   26 1
     5    2   16 1
     6    2   17 1
     7    2   18 1
     8    2   26 1
     9    3    4 1
    10    3   19 1
    11    3   20 1
    12    3   26 1
    13    4    5 1
    14    4   21 1
    15    4   22 1
    16    5    6 1
    17    6   11 ar
    18    6    7 ar
    19    7    8 ar
    20    7   23 1
    21    8    9 ar
    22    8   12 1
    23    9   10 ar
    24    9   24 1
    25   10   11 ar
    26   11   25 1
    27   26   27 1
@<TRIPOS>MOLECULE
ZINC03079336
   26    25     0     0     0
SMALL
USER_CHARGES

@<TRIPOS>ATOM
      1 C1          0.4567    1.0915    0.2066 C.3       1 <0>        -0.1505
      2 C2          0.2519   -0.4009    0.1635 C.2       1 <0>         0.4622
      3 O1          1.2065   -1.1415    0.1480 O.2       1 <0>        -0.4897
      4 O2         -0.9909   -0.9074    0.1422 O.3       1 <0>        -0.3664
      5 C3         -1.1108   -2.3308    0.1015 C.3       1 <0>         0.0295
      6 C4         -2.5910   -2.7176    0.0823 C.3       1 <0>        -0.0006
      7 N1         -3.1974   -2.2714   -1.1791 N.4       1 <0>        -0.2721
      8 C5         -2.4263   -2.8064   -2.3093 C.3       1 <0>        -0.0542
      9 C6         -4.5812   -2.7582   -1.2563 C.3       1 <0>        -0.0453
     10 C7         -3.1910   -0.8034   -1.2332 C.3       1 <0>        -0.0471
     11 H1          1.5242    1.3115    0.2188 H         1 <0>         0.1116
     12 H2          0.0021    1.5462   -0.6735 H         1 <0>         0.1044
     13 H3         -0.0079    1.4962    1.1057 H         1 <0>         0.1080
     14 H4         -0.6243   -2.7109   -0.7968 H         1 <0>         0.0948
     15 H5         -0.6343   -2.7609    0.9824 H         1 <0>         0.1144
     16 H6         -2.6847   -3.8002    0.1675 H         1 <0>         0.1489
     17 H7         -3.1018   -2.2417    0.9193 H         1 <0>         0.1414
     18 H8         -2.4311   -3.8957   -2.2692 H         1 <0>         0.1244
     19 H9         -2.8763   -2.4753   -3.2452 H         1 <0>         0.1264
     20 H10        -1.3995   -2.4452   -2.2520 H         1 <0>         0.1197
     21 H11        -5.1533   -2.3613   -0.4177 H         1 <0>         0.1231
     22 H12        -5.0311   -2.4272   -2.1923 H         1 <0>         0.1241
     23 H13        -4.5859   -3.8475   -1.2162 H         1 <0>         0.1220
     24 H14        -2.1697   -0.4495   -1.3740 H         1 <0>         0.1297
     25 H15        -3.8098   -0.4678   -2.0653 H         1 <0>         0.1185
     26 H16        -3.5886   -0.4038   -0.3003 H         1 <0>         0.1230
@<TRIPOS>BOND
     1    1    2 1
     2    1   11 1
     3    1   12 1
     4    1   13 1
     5    2    3 2
     6    2    4 1
     7    4    5 1
     8    5    6 1
     9    5   14 1
    10    5   15 1
    11    6    7 1
    12    6   16 1
    13    6   17 1
    14    7    8 1
    15    7    9 1
    16    7   10 1
    17    8   18 1
    18    8   19 1
    19    8   20 1
    20    9   21 1
    21    9   22 1
    22    9   23 1
    23   10   24 1
    24   10   25 1
    25   10   26 1
@<TRIPOS>MOLECULE
ZINC00001624
   53    55     0     0     0
SMALL
USER_CHARGES

@<TRIPOS>ATOM
      1 C1         -0.5345    1.3876    0.5891 C.3       1 <0>        -0.0637
      2 N1         -0.8728   -0.0335    0.7443 N.4       1 <0>        -0.3784
      3 C2         -0.4779   -0.7639   -0.4661 C.3       1 <0>         0.0307
      4 H1          0.6039   -0.7076   -0.5872 H         1 <0>         0.1441
      5 C3         -0.9012   -2.2292   -0.3430 C.3       1 <0>        -0.1432
      6 C4         -0.2165   -2.8519    0.8771 C.3       1 <0>        -0.1338
      7 C5         -0.5761   -2.0373    2.1231 C.3       1 <0>        -0.1438
      8 C6         -0.1648   -0.5791    1.9086 C.3       1 <0>         0.0380
      9 H2          0.9103   -0.5268    1.7369 H         1 <0>         0.1451
     10 C7         -0.5220    0.2389    3.1513 C.3       1 <0>        -0.1973
     11 C8          0.3188   -0.2212    4.3142 C.2       1 <0>         0.4111
     12 O1          1.1969   -1.0393    4.1414 O.2       1 <0>        -0.4393
     13 C9          0.0741    0.3223    5.6598 C.ar      1 <0>        -0.1847
     14 C10        -0.9416    1.2617    5.8643 C.ar      1 <0>        -0.0760
     15 C11        -1.1650    1.7660    7.1280 C.ar      1 <0>        -0.1304
     16 C12        -0.3872    1.3448    8.1926 C.ar      1 <0>        -0.0738
     17 C13         0.6201    0.4158    7.9982 C.ar      1 <0>        -0.1275
     18 C14         0.8522   -0.1021    6.7416 C.ar      1 <0>        -0.0530
     19 C15        -1.1601   -0.1379   -1.6841 C.3       1 <0>        -0.1764
     20 C16        -0.6804   -0.8417   -2.9551 C.3       1 <0>         0.1585
     21 H3         -0.8469   -1.9148   -2.8610 H         1 <0>         0.1186
     22 C17        -1.4483   -0.3163   -4.1406 C.ar      1 <0>        -0.1341
     23 C18        -1.0265    0.8327   -4.7831 C.ar      1 <0>        -0.1096
     24 C19        -1.7309    1.3147   -5.8705 C.ar      1 <0>        -0.1139
     25 C20        -2.8567    0.6474   -6.3157 C.ar      1 <0>        -0.1081
     26 C21        -3.2779   -0.5021   -5.6737 C.ar      1 <0>        -0.1139
     27 C22        -2.5711   -0.9865   -4.5890 C.ar      1 <0>        -0.1085
     28 O2          0.7140   -0.5905   -3.1414 O.3       1 <0>        -0.5474
     29 H4          0.5421    1.4922    0.4544 H         1 <0>         0.1254
     30 H5         -1.0505    1.7909   -0.2821 H         1 <0>         0.1288
     31 H6         -0.8439    1.9341    1.4800 H         1 <0>         0.1266
     32 H7         -1.9829   -2.2867   -0.2221 H         1 <0>         0.0887
     33 H8         -0.6055   -2.7702   -1.2419 H         1 <0>         0.1146
     34 H9         -0.5584   -3.8793    1.0021 H         1 <0>         0.0967
     35 H10         0.8640   -2.8410    0.7338 H         1 <0>         0.0846
     36 H11        -1.6511   -2.0908    2.2951 H         1 <0>         0.0863
     37 H12        -0.0480   -2.4412    2.9869 H         1 <0>         0.1194
     38 H13        -0.3297    1.2944    2.9591 H         1 <0>         0.1249
     39 H14        -1.5768    0.0988    3.3877 H         1 <0>         0.1231
     40 H15        -1.5491    1.5916    5.0345 H         1 <0>         0.1277
     41 H16        -1.9488    2.4917    7.2876 H         1 <0>         0.1342
     42 H17        -0.5671    1.7434    9.1801 H         1 <0>         0.1346
     43 H18         1.2230    0.0924    8.8338 H         1 <0>         0.1362
     44 H19         1.6357   -0.8303    6.5923 H         1 <0>         0.1368
     45 H20        -2.2405   -0.2494   -1.5927 H         1 <0>         0.1010
     46 H21        -0.9073    0.9211   -1.7378 H         1 <0>         0.0953
     47 H22        -0.1470    1.3540   -4.4353 H         1 <0>         0.1194
     48 H23        -1.4018    2.2127   -6.3721 H         1 <0>         0.1278
     49 H24        -3.4074    1.0243   -7.1648 H         1 <0>         0.1284
     50 H25        -4.1577   -1.0233   -6.0213 H         1 <0>         0.1286
     51 H26        -2.8980   -1.8866   -4.0897 H         1 <0>         0.1238
     52 H27         0.9491    0.3474   -3.1334 H         1 <0>         0.3779
     53 H28        -1.8678   -0.1281    0.8823 H         1 <0>         0.4198
@<TRIPOS>BOND
     1    1    2 1
     2    1   29 1
     3    1   30 1
     4    1   31 1
     5    2    8 1
     6    2    3 1
     7    2   53 1
     8    3    4 1
     9    3    5 1
    10    3   19 1
    11    5    6 1
    12    5   32 1
    13    5   33 1
    14    6    7 1
    15    6   34 1
    16    6   35 1
    17    7    8 1
    18    7   36 1
    19    7   37 1
    20    8    9 1
    21    8   10 1
    22   10   11 1
    23   10   38 1
    24   10   39 1
    25   11   12 2
    26   11   13 1
    27   13   18 ar
    28   13   14 ar
    29   14   15 ar
    30   14   40 1
    31   15   16 ar
    32   15   41 1
    33   16   17 ar
    34   16   42 1
    35   17   18 ar
    36   17   43 1
    37   18   44 1
    38   19   20 1
    39   19   45 1
    40   19   46 1
    41   20   21 1
    42   20   22 1
    43   20   28 1
    44   22   27 ar
    45   22   23 ar
    46   23   24 ar
    47   23   47 1
    48   24   25 ar
    49   24   48 1
    50   25   26 ar
    51   25   49 1
    52   26   27 ar
    53   26   50 1
    54   27   51 1
    55   28   52 1
@<TRIPOS>MOLECULE
ZINC16082005
   55    57     0     0     0
SMALL
USER_CHARGES

@<TRIPOS>ATOM
      1 C1          0.6358    1.8051   -0.1271 C.3       1 <0>        -0.0612
      2 N1          0.4813    0.3593    0.0820 N.4       1 <0>        -0.3782
      3 C2         -0.9234    0.0571    0.3820 C.3       1 <0>         0.0315
      4 H1         -1.2080    0.5438    1.3148 H         1 <0>         0.1441
      5 C3         -1.1052   -1.4559    0.5207 C.3       1 <0>        -0.1427
      6 C4         -0.2169   -1.9692    1.6577 C.3       1 <0>        -0.1355
      7 C5          1.2369   -1.5833    1.3704 C.3       1 <0>        -0.1427
      8 C6          1.3320   -0.0656    1.2002 C.3       1 <0>         0.0308
      9 H2          0.9993    0.4238    2.1156 H         1 <0>         0.1435
     10 C7          2.7832    0.3249    0.9132 C.3       1 <0>        -0.1770
     11 C8          3.6570   -0.0408    2.1147 C.3       1 <0>         0.1590
     12 H3          3.5464   -1.1027    2.3345 H         1 <0>         0.1185
     13 C9          5.0992    0.2588    1.7968 C.ar      1 <0>        -0.1344
     14 C10         5.6005    1.5318    1.9947 C.ar      1 <0>        -0.1101
     15 C11         6.9235    1.8067    1.7030 C.ar      1 <0>        -0.1138
     16 C12         7.7453    0.8085    1.2140 C.ar      1 <0>        -0.1080
     17 C13         7.2442   -0.4647    1.0170 C.ar      1 <0>        -0.1138
     18 C14         5.9224   -0.7406    1.3126 C.ar      1 <0>        -0.1084
     19 O1          3.2503    0.7255    3.2502 O.3       1 <0>        -0.5476
     20 C15        -1.8093    0.5740   -0.7533 C.3       1 <0>        -0.1751
     21 C16        -3.2803    0.3662   -0.3873 C.3       1 <0>         0.1590
     22 H4         -3.4537   -0.6862   -0.1628 H         1 <0>         0.1177
     23 C17        -4.1498    0.7826   -1.5456 C.ar      1 <0>        -0.1350
     24 C18        -4.4222    2.1209   -1.7592 C.ar      1 <0>        -0.1140
     25 C19        -5.2198    2.5029   -2.8217 C.ar      1 <0>        -0.1126
     26 C20        -5.7445    1.5466   -3.6709 C.ar      1 <0>        -0.1076
     27 C21        -5.4713    0.2084   -3.4578 C.ar      1 <0>        -0.1128
     28 C22        -4.6702   -0.1733   -2.3978 C.ar      1 <0>        -0.1066
     29 O2         -3.6024    1.1571    0.7585 O.3       1 <0>        -0.5494
     30 H5          1.6891    2.0394   -0.2811 H         1 <0>         0.1265
     31 H6          0.0641    2.1085   -1.0041 H         1 <0>         0.1255
     32 H7          0.2688    2.3401    0.7488 H         1 <0>         0.1242
     33 H8         -2.1485   -1.6780    0.7452 H         1 <0>         0.1136
     34 H9         -0.8211   -1.9437   -0.4117 H         1 <0>         0.0878
     35 H10        -0.5340   -1.5203    2.5990 H         1 <0>         0.0843
     36 H11        -0.2999   -3.0540    1.7237 H         1 <0>         0.0964
     37 H12         1.8678   -1.8965    2.2022 H         1 <0>         0.1141
     38 H13         1.5697   -2.0737    0.4556 H         1 <0>         0.0879
     39 H14         3.1358   -0.2100    0.0313 H         1 <0>         0.1002
     40 H15         2.8421    1.3986    0.7345 H         1 <0>         0.0949
     41 H16         4.9585    2.3116    2.3768 H         1 <0>         0.1194
     42 H17         7.3150    2.8014    1.8570 H         1 <0>         0.1279
     43 H18         8.7787    1.0234    0.9855 H         1 <0>         0.1285
     44 H19         7.8862   -1.2445    0.6345 H         1 <0>         0.1286
     45 H20         5.5318   -1.7363    1.1622 H         1 <0>         0.1238
     46 H21         3.2425    1.6804    3.0980 H         1 <0>         0.3779
     47 H22        -1.6197    1.6363   -0.9072 H         1 <0>         0.0936
     48 H23        -1.5820    0.0280   -1.6689 H         1 <0>         0.0992
     49 H24        -4.0123    2.8681   -1.0958 H         1 <0>         0.1189
     50 H25        -5.4332    3.5484   -2.9882 H         1 <0>         0.1283
     51 H26        -6.3682    1.8450   -4.5005 H         1 <0>         0.1290
     52 H27        -5.8815   -0.5388   -4.1210 H         1 <0>         0.1292
     53 H28        -4.4537   -1.2185   -2.2335 H         1 <0>         0.1247
     54 H29        -3.5364    2.1103    0.6097 H         1 <0>         0.3793
     55 H30         0.7576   -0.1320   -0.7549 H         1 <0>         0.4187
@<TRIPOS>BOND
     1    1    2 1
     2    1   30 1
     3    1   31 1
     4    1   32 1
     5    2    8 1
     6    2    3 1
     7    2   55 1
     8    3    4 1
     9    3    5 1
    10    3   20 1
    11    5    6 1
    12    5   33 1
    13    5   34 1
    14    6    7 1
    15    6   35 1
    16    6   36 1
    17    7    8 1
    18    7   37 1
    19    7   38 1
    20    8    9 1
    21    8   10 1
    22   10   11 1
    23   10   39 1
    24   10   40 1
    25   11   12 1
    26   11   13 1
    27   11   19 1
    28   13   18 ar
    29   13   14 ar
    30   14   15 ar
    31   14   41 1
    32   15   16 ar
    33   15   42 1
    34   16   17 ar
    35   16   43 1
    36   17   18 ar
    37   17   44 1
    38   18   45 1
    39   19   46 1
    40   20   21 1
    41   20   47 1
    42   20   48 1
    43   21   22 1
    44   21   23 1
    45   21   29 1
    46   23   28 ar
    47   23   24 ar
    48   24   25 ar
    49   24   49 1
    50   25   26 ar
    51   25   50 1
    52   26   27 ar
    53   26   51 1
    54   27   28 ar
    55   27   52 1
    56   28   53 1
    57   29   54 1
@<TRIPOS>MOLECULE
ZINC12397618
   27    28     0     0     0
SMALL
USER_CHARGES
3-ethyl-5-[(2R)-pyrrolidin-2-yl]isoxazole
@<TRIPOS>ATOM
      1 C1          1.5000    7.5148    2.1536 C.3       1 <0>        -0.1526
      2 C2          2.6237    6.5001    1.9334 C.3       1 <0>        -0.0558
      3 C3          2.0294    5.1347    1.7019 C.2       1 <0>         0.0326
      4 C4          2.2676    4.2833    0.5986 C.2       1 <0>        -0.1569
      5 C5          1.5068    3.1927    0.8565 C.2       1 <0>        -0.1203
      6 O1          0.8967    3.4239    2.0274 O.3       1 <0>         0.1078
      7 N1          1.1982    4.5038    2.4802 N.2       1 <0>        -0.3263
      8 C6          1.3770    1.9600   -0.0006 C.3       1 <0>         0.1349
      9 H1          1.6974    2.1707   -1.0209 H         1 <0>         0.1703
     10 C7          2.2089    0.7978    0.5967 C.3       1 <0>        -0.1391
     11 C8          1.4820   -0.4413    0.0110 C.3       1 <0>        -0.1425
     12 C9          0.0021   -0.0041    0.0020 C.3       1 <0>        -0.0100
     13 H2          0.8578    7.5425    1.2733 H         1 <0>         0.0573
     14 H3          0.9117    7.2224    3.0234 H         1 <0>         0.0622
     15 H4          1.9298    8.5024    2.3210 H         1 <0>         0.0740
     16 H5          3.2659    6.4723    2.8137 H         1 <0>         0.0933
     17 H6          3.2120    6.7925    1.0636 H         1 <0>         0.0951
     18 H7          2.9068    4.4618   -0.2533 H         1 <0>         0.1868
     19 H8          2.1590    0.8012    1.6856 H         1 <0>         0.1047
     20 H9          3.2431    0.8414    0.2552 H         1 <0>         0.1253
     21 H10         1.6232   -1.3104    0.6535 H         1 <0>         0.1186
     22 H11         1.8287   -0.6487   -1.0014 H         1 <0>         0.1050
     23 H12        -0.5030   -0.3866    0.8889 H         1 <0>         0.1368
     24 H13        -0.4917   -0.3767   -0.8954 H         1 <0>         0.1396
     25 N2         -0.0127    1.4666    0.0100 N.4       1 <0>        -0.5213
     26 H14        -0.5067    1.8106   -0.8218 H         1 <0>         0.4409
     27 H15        -0.4906    1.8016    0.8548 H         1 <0>         0.4394
@<TRIPOS>BOND
     1    1    2 1
     2    1   13 1
     3    1   14 1
     4    1   15 1
     5    2    3 1
     6    2   16 1
     7    2   17 1
     8    3    7 2
     9    3    4 1
    10    4    5 2
    11    4   18 1
    12    5    6 1
    13    5    8 1
    14    6    7 1
    15    8    9 1
    16    8   10 1
    17    8   25 1
    18   10   11 1
    19   10   19 1
    20   10   20 1
    21   11   12 1
    22   11   21 1
    23   11   22 1
    24   12   23 1
    25   12   24 1
    26   12   25 1
    27   25   26 1
    28   25   27 1
@<TRIPOS>MOLECULE
ZINC13739966
   24    25     0     0     0
SMALL
USER_CHARGES
3-methyl-5-[(2S)-pyrrolidin-2-yl]isothiazole
@<TRIPOS>ATOM
      1 C1         -5.7158    3.1815    4.0759 C.3       1 <0>        -0.0994
      2 C2         -4.7075    3.3482    2.9684 C.2       1 <0>         0.1093
      3 C3         -4.0378    2.2573    2.4603 C.2       1 <0>        -0.1400
      4 C4         -3.1425    2.5028    1.4659 C.2       1 <0>        -0.2364
      5 S1         -3.2765    4.2195    1.2722 S.3       1 <0>         0.2238
      6 N1         -4.4561    4.5330    2.4682 N.2       1 <0>        -0.3828
      7 C5         -2.2648    1.5310    0.7201 C.3       1 <0>         0.1273
      8 H1         -2.6460    0.5156    0.8293 H         1 <0>         0.1639
      9 C6         -0.8010    1.6170    1.2341 C.3       1 <0>        -0.1349
     10 C7         -0.0127    1.0858    0.0080 C.3       1 <0>        -0.1433
     11 C8         -0.8199    1.6271   -1.1906 C.3       1 <0>        -0.0109
     12 H2         -6.7018    3.0051    3.6461 H         1 <0>         0.0948
     13 H3         -5.4340    2.3327    4.6991 H         1 <0>         0.0912
     14 H4         -5.7408    4.0860    4.6837 H         1 <0>         0.0894
     15 H5         -4.2124    1.2591    2.8337 H         1 <0>         0.1694
     16 H6         -0.6504    0.9759    2.1027 H         1 <0>         0.1253
     17 H7         -0.5257    2.6474    1.4588 H         1 <0>         0.1027
     18 H8          0.0021   -0.0041    0.0020 H         1 <0>         0.1051
     19 H9          1.0021    1.4837    0.0005 H         1 <0>         0.1184
     20 H10        -0.3656    2.5470   -1.5586 H         1 <0>         0.1368
     21 H11        -0.8488    0.8816   -1.9853 H         1 <0>         0.1406
     22 N2         -2.1818    1.8980   -0.7058 N.4       1 <0>        -0.5204
     23 H12        -2.3948    2.8962   -0.8175 H         1 <0>         0.4293
     24 H13        -2.8561    1.3418   -1.2444 H         1 <0>         0.4411
@<TRIPOS>BOND
     1    1    2 1
     2    1   12 1
     3    1   13 1
     4    1   14 1
     5    2    6 2
     6    2    3 1
     7    3    4 2
     8    3   15 1
     9    4    5 1
    10    4    7 1
    11    5    6 1
    12    7    8 1
    13    7    9 1
    14    7   22 1
    15    9   10 1
    16    9   16 1
    17    9   17 1
    18   10   11 1
    19   10   18 1
    20   10   19 1
    21   11   20 1
    22   11   21 1
    23   11   22 1
    24   22   23 1
    25   22   24 1
@<TRIPOS>MOLECULE
ZINC03079342
   25    24     0     0     0
SMALL
USER_CHARGES

@<TRIPOS>ATOM
      1 C1          0.5385    1.3265   -0.0156 C.3       1 <0>        -0.0552
      2 N1          0.0207   -0.0467    0.0478 N.4       1 <0>        -0.2722
      3 C2          0.5070   -0.6974    1.2718 C.3       1 <0>        -0.0471
      4 C3         -1.4480   -0.0161    0.0600 C.3       1 <0>        -0.0454
      5 C4          0.4850   -0.7999   -1.1248 C.3       1 <0>        -0.0017
      6 C5          2.0115   -0.7313   -1.2033 C.3       1 <0>         0.0515
      7 O1          2.5777   -1.4543   -0.1084 O.3       1 <0>        -0.3772
      8 C6          3.9213   -1.4920   -0.0303 C.2       1 <0>         0.6511
      9 O2          4.5947   -0.9264   -0.8688 O.2       1 <0>        -0.5552
     10 N2          4.5193   -2.1570    0.9780 N.am      1 <0>        -0.8167
     11 H1          1.6283    1.3038   -0.0246 H         1 <0>         0.1211
     12 H2          0.1776    1.8093   -0.9238 H         1 <0>         0.1253
     13 H3          0.1939    1.8853    0.8545 H         1 <0>         0.1262
     14 H4          0.0211   -0.2500    2.1388 H         1 <0>         0.1189
     15 H5          0.2750   -1.7618    1.2342 H         1 <0>         0.1224
     16 H6          1.5859   -0.5633    1.3504 H         1 <0>         0.1286
     17 H7         -1.8089    0.4667   -0.8482 H         1 <0>         0.1227
     18 H8         -1.8322   -1.0351    0.1071 H         1 <0>         0.1229
     19 H9         -1.7926    0.5427    0.9301 H         1 <0>         0.1241
     20 H10         0.1722   -1.8402   -1.0357 H         1 <0>         0.1419
     21 H11         0.0550   -0.3672   -2.0281 H         1 <0>         0.1522
     22 H12         2.3472   -1.1718   -2.1420 H         1 <0>         0.1171
     23 H13         2.3314    0.3096   -1.1555 H         1 <0>         0.0971
     24 H14         3.9817   -2.6085    1.6473 H         1 <0>         0.4117
     25 H15         5.4873   -2.1841    1.0343 H         1 <0>         0.4360
@<TRIPOS>BOND
     1    1    2 1
     2    1   11 1
     3    1   12 1
     4    1   13 1
     5    2    3 1
     6    2    4 1
     7    2    5 1
     8    3   14 1
     9    3   15 1
    10    3   16 1
    11    4   17 1
    12    4   18 1
    13    4   19 1
    14    5    6 1
    15    5   20 1
    16    5   21 1
    17    6    7 1
    18    6   22 1
    19    6   23 1
    20    7    8 1
    21    8    9 2
    22    8   10 am
    23   10   24 1
    24   10   25 1
@<TRIPOS>MOLECULE
ZINC01675069
   21    22     0     0     0
SMALL
USER_CHARGES
3-(4,5-dihydro-1H-imidazol-2-yl)pyridine
@<TRIPOS>ATOM
      1 C1         -0.0167    1.3801    0.0096 C.ar      1 <0>        -0.1636
      2 C2          0.0021   -0.0041    0.0020 C.ar      1 <0>        -0.0173
      3 C3          1.2423   -0.6503   -0.0133 C.ar      1 <0>        -0.1965
      4 C4          2.4041    0.1210   -0.0202 C.ar      1 <0>         0.1749
      5 N1          2.3353    1.4360   -0.0130 N.ar      1 <0>        -0.4722
      6 C5          1.1800    2.0731    0.0019 C.ar      1 <0>         0.1670
      7 C6          1.3205   -2.1290   -0.0215 C.cat     1 <0>         0.5731
      8 C7          0.6738   -4.3009   -0.0265 C.3       1 <0>         0.0561
      9 C8          2.2147   -4.2543   -0.0405 C.3       1 <0>         0.0687
     10 N2          2.5093   -2.8116   -0.0418 N.pl3     1 <0>        -0.6648
     11 H1         -0.9560    1.9131    0.0170 H         1 <0>         0.1632
     12 H2         -0.9175   -0.5704    0.0074 H         1 <0>         0.1481
     13 H3          3.3688   -0.3645   -0.0321 H         1 <0>         0.1670
     14 H4          1.1687    3.1530    0.0075 H         1 <0>         0.1818
     15 H5          0.3152   -4.8061    0.8703 H         1 <0>         0.1290
     16 H6          0.2985   -4.7971   -0.9215 H         1 <0>         0.1290
     17 H7          2.6220   -4.7328    0.8501 H         1 <0>         0.1241
     18 H8          2.6055   -4.7264   -0.9420 H         1 <0>         0.1240
     19 H9          3.3933   -2.4124   -0.0529 H         1 <0>         0.4566
     20 N3          0.2701   -2.8854   -0.0156 N.pl3     1 <0>        -0.6210
     21 H10        -0.6997   -2.5485   -0.0048 H         1 <0>         0.4729
@<TRIPOS>BOND
     1    1    6 ar
     2    1    2 ar
     3    1   11 1
     4    2    3 ar
     5    2   12 1
     6    3    4 ar
     7    3    7 1
     8    4    5 ar
     9    4   13 1
    10    5    6 ar
    11    6   14 1
    12    7   10 1
    13    7   20 2
    14    8    9 1
    15    8   15 1
    16    8   16 1
    17    8   20 1
    18    9   10 1
    19    9   17 1
    20    9   18 1
    21   10   19 1
    22   20   21 1
@<TRIPOS>MOLECULE
ZINC13739967
   24    25     0     0     0
SMALL
USER_CHARGES
3-methyl-5-[(2R)-pyrrolidin-2-yl]isothiazole
@<TRIPOS>ATOM
      1 C1          1.1749    0.3966   -5.6891 C.3       1 <0>        -0.0994
      2 C2          1.0018    1.2646   -4.4694 C.2       1 <0>         0.1100
      3 C3          0.1183    0.9078   -3.4750 C.2       1 <0>        -0.1407
      4 C4          0.0279    1.7508   -2.4111 C.2       1 <0>        -0.2355
      5 S1          1.1575    2.9941   -2.8359 S.3       1 <0>         0.2211
      6 N1          1.6895    2.3721   -4.3359 N.2       1 <0>        -0.3824
      7 C5         -0.8371    1.6361   -1.1824 C.3       1 <0>         0.1283
      8 H1         -1.6936    0.9919   -1.3809 H         1 <0>         0.1643
      9 C6         -0.0127    1.0858    0.0080 C.3       1 <0>        -0.1364
     10 C7         -0.8154    1.6241    1.2216 C.3       1 <0>        -0.1421
     11 C8         -1.3035    3.0037    0.7307 C.3       1 <0>        -0.0114
     12 H2          0.4699    0.7082   -6.4598 H         1 <0>         0.0949
     13 H3          2.1928    0.4978   -6.0655 H         1 <0>         0.0894
     14 H4          0.9873   -0.6439   -5.4242 H         1 <0>         0.0913
     15 H5         -0.4723    0.0057   -3.5367 H         1 <0>         0.1695
     16 H6          0.0021   -0.0041    0.0020 H         1 <0>         0.1252
     17 H7          1.0003    1.4880    0.0005 H         1 <0>         0.1027
     18 H8         -1.6609    0.9730    1.4438 H         1 <0>         0.1052
     19 H9         -0.1702    1.7307    2.0937 H         1 <0>         0.1186
     20 H10        -0.6341    3.7838    1.0933 H         1 <0>         0.1367
     21 H11        -2.3168    3.1899    1.0868 H         1 <0>         0.1408
     22 N2         -1.2858    2.9693   -0.7395 N.4       1 <0>        -0.5205
     23 H12        -2.2298    3.1522   -1.0996 H         1 <0>         0.4413
     24 H13        -0.6400    3.6850   -1.0930 H         1 <0>         0.4290
@<TRIPOS>BOND
     1    1    2 1
     2    1   12 1
     3    1   13 1
     4    1   14 1
     5    2    6 2
     6    2    3 1
     7    3    4 2
     8    3   15 1
     9    4    5 1
    10    4    7 1
    11    5    6 1
    12    7    8 1
    13    7    9 1
    14    7   22 1
    15    9   10 1
    16    9   16 1
    17    9   17 1
    18   10   11 1
    19   10   18 1
    20   10   19 1
    21   11   20 1
    22   11   21 1
    23   11   22 1
    24   22   23 1
    25   22   24 1
@<TRIPOS>MOLECULE
ZINC13491700
   31    32     0     0     0
SMALL
USER_CHARGES
3-[(E)-2-(1-ethyl-4,5-dihydroimidazol-2-yl)vinyl]pyridine
@<TRIPOS>ATOM
      1 C1         -0.0187    1.5258    0.0104 C.3       1 <0>        -0.1810
      2 C2          0.0021   -0.0041    0.0020 C.3       1 <0>         0.1143
      3 N1         -1.3723   -0.5112    0.0124 N.pl3     1 <0>        -0.5577
      4 C3         -2.1925   -0.8031   -1.1749 C.3       1 <0>         0.0678
      5 C4         -3.5229   -1.2998   -0.5757 C.3       1 <0>         0.0611
      6 C5         -2.1144   -0.8012    1.1319 C.cat     1 <0>         0.5444
      7 C6         -1.6005   -0.6320    2.4975 C.2       1 <0>        -0.2163
      8 C7         -2.3794   -0.9347    3.5515 C.2       1 <0>         0.0523
      9 C8         -1.8640   -0.7649    4.9210 C.ar      1 <0>        -0.1702
     10 C9         -2.6654   -1.0767    6.0284 C.ar      1 <0>        -0.0318
     11 C10        -2.1333   -0.8997    7.2927 C.ar      1 <0>        -0.1728
     12 C11        -0.8399   -0.4254    7.4234 C.ar      1 <0>         0.1399
     13 N2         -0.1077   -0.1402    6.3636 N.ar      1 <0>        -0.4827
     14 C12        -0.5659   -0.2958    5.1390 C.ar      1 <0>         0.1417
     15 H1          1.0039    1.9031    0.0027 H         1 <0>         0.0927
     16 H2         -0.5459    1.8868   -0.8726 H         1 <0>         0.0689
     17 H3         -0.5289    1.8773    0.9072 H         1 <0>         0.0664
     18 H4          0.5123   -0.3556   -0.8948 H         1 <0>         0.1123
     19 H5          0.5293   -0.3651    0.8851 H         1 <0>         0.1042
     20 H6         -2.3501    0.1000   -1.7646 H         1 <0>         0.1179
     21 H7         -1.7275   -1.5803   -1.7815 H         1 <0>         0.1190
     22 H8         -4.3426   -0.6448   -0.8709 H         1 <0>         0.1241
     23 H9         -3.7220   -2.3255   -0.8863 H         1 <0>         0.1243
     24 H10        -0.5973   -0.2645    2.6552 H         1 <0>         0.1672
     25 H11        -3.3826   -1.3022    3.3937 H         1 <0>         0.1343
     26 H12        -3.6722   -1.4451    5.8976 H         1 <0>         0.1463
     27 H13        -2.7211   -1.1298    8.1690 H         1 <0>         0.1508
     28 H14        -0.4227   -0.2865    8.4098 H         1 <0>         0.1700
     29 H15         0.0654   -0.0555    4.2964 H         1 <0>         0.1609
     30 N3         -3.3120   -1.2352    0.8793 N.pl3     1 <0>        -0.6365
     31 H16        -4.0076   -1.4945    1.5887 H         1 <0>         0.4681
@<TRIPOS>BOND
     1    1    2 1
     2    1   15 1
     3    1   16 1
     4    1   17 1
     5    2    3 1
     6    2   18 1
     7    2   19 1
     8    3    6 1
     9    3    4 1
    10    4    5 1
    11    4   20 1
    12    4   21 1
    13    5   22 1
    14    5   23 1
    15    5   30 1
    16    6    7 1
    17    6   30 2
    18    7    8 2
    19    7   24 1
    20    8    9 1
    21    8   25 1
    22    9   14 ar
    23    9   10 ar
    24   10   11 ar
    25   10   26 1
    26   11   12 ar
    27   11   27 1
    28   12   13 ar
    29   12   28 1
    30   13   14 ar
    31   14   29 1
    32   30   31 1
@<TRIPOS>MOLECULE
ZINC04018167
   26    26     0     0     0
SMALL
USER_CHARGES
N,N-dimethyl-2-(3-pyridyl)ethanamine
@<TRIPOS>ATOM
      1 C1          5.1418    4.3316   -0.9080 C.3       1 <0>        -0.0478
      2 C2          4.3082    5.5892   -2.8017 C.3       1 <0>        -0.0428
      3 C3          2.7809    4.2906   -1.4439 C.3       1 <0>        -0.0034
      4 C4          2.3671    4.0041    0.0009 C.3       1 <0>        -0.0965
      5 C5          1.1060    3.1790    0.0081 C.ar      1 <0>        -0.1644
      6 C6          1.1732    1.7939    0.0005 C.ar      1 <0>        -0.0639
      7 C7         -0.0126    1.0758    0.0080 C.ar      1 <0>        -0.1661
      8 C8         -1.2139    1.7594    0.0173 C.ar      1 <0>         0.1170
      9 N1         -1.2397    3.0777    0.0299 N.ar      1 <0>        -0.4781
     10 C9         -0.1318    3.7931    0.0227 C.ar      1 <0>         0.1127
     11 H1          5.3036    3.4407   -1.5148 H         1 <0>         0.1234
     12 H2          6.0389    4.9505   -0.9247 H         1 <0>         0.1239
     13 H3          4.9225    4.0372    0.1183 H         1 <0>         0.1221
     14 H4          3.4829    6.2092   -3.1520 H         1 <0>         0.1222
     15 H5          5.2230    6.1814   -2.7783 H         1 <0>         0.1238
     16 H6          4.4398    4.7439   -3.4771 H         1 <0>         0.1228
     17 H7          2.9595    3.3496   -1.9641 H         1 <0>         0.1319
     18 H8          1.9850    4.8390   -1.9478 H         1 <0>         0.1314
     19 H9          2.1885    4.9452    0.5212 H         1 <0>         0.0989
     20 H10         3.1629    3.4557    0.5049 H         1 <0>         0.0971
     21 H11         2.1266    1.2867   -0.0113 H         1 <0>         0.1369
     22 H12         0.0021   -0.0041    0.0020 H         1 <0>         0.1443
     23 H13        -2.1422    1.2074    0.0190 H         1 <0>         0.1649
     24 H14        -0.1926    4.8713    0.0287 H         1 <0>         0.1562
     25 N2          4.0059    5.1177   -1.4339 N.4       1 <0>        -0.3986
     26 H15         3.8539    5.9314   -0.8265 H         1 <0>         0.4320
@<TRIPOS>BOND
     1    1   11 1
     2    1   12 1
     3    1   13 1
     4    1   25 1
     5    2   14 1
     6    2   15 1
     7    2   16 1
     8    2   25 1
     9    3    4 1
    10    3   17 1
    11    3   18 1
    12    3   25 1
    13    4    5 1
    14    4   19 1
    15    4   20 1
    16    5   10 ar
    17    5    6 ar
    18    6    7 ar
    19    6   21 1
    20    7    8 ar
    21    7   22 1
    22    8    9 ar
    23    8   23 1
    24    9   10 ar
    25   10   24 1
    26   25   26 1
@<TRIPOS>MOLECULE
ZINC27526089
   26    26     0     0     0
SMALL
USER_CHARGES
N,N-dimethyl-2-(3-pyridyl)acetamidine
@<TRIPOS>ATOM
      1 C1          4.2958    5.2994   -3.0623 C.3       1 <0>         0.0474
      2 N1          3.8996    5.0250   -1.6789 N.pl3     1 <0>        -0.5647
      3 C2          4.7061    5.5407   -0.5699 C.3       1 <0>         0.0519
      4 C3          2.7747    4.2863   -1.4222 C.cat     1 <0>         0.5226
      5 N2          2.0627    3.8311   -2.4011 N.pl3     1 <0>        -0.7659
      6 C4          2.3671    4.0041    0.0009 C.3       1 <0>        -0.0678
      7 C5          1.1060    3.1790    0.0081 C.ar      1 <0>        -0.2014
      8 C6          1.1732    1.7939    0.0005 C.ar      1 <0>        -0.0575
      9 C7         -0.0126    1.0758    0.0080 C.ar      1 <0>        -0.1645
     10 C8         -1.2139    1.7594    0.0173 C.ar      1 <0>         0.1286
     11 N3         -1.2397    3.0777    0.0299 N.ar      1 <0>        -0.4738
     12 C9         -0.1318    3.7931    0.0227 C.ar      1 <0>         0.1202
     13 H1          3.5737    4.8344   -3.7496 H         1 <0>         0.0820
     14 H2          5.2974    4.8834   -3.2462 H         1 <0>         0.1037
     15 H3          4.3138    6.3864   -3.2298 H         1 <0>         0.1040
     16 H4          4.2544    5.2347    0.3852 H         1 <0>         0.1009
     17 H5          4.7429    6.6388   -0.6229 H         1 <0>         0.0984
     18 H6          5.7265    5.1358   -0.6394 H         1 <0>         0.0979
     19 H7          1.1595    3.2380   -2.1950 H         1 <0>         0.4712
     20 H8          3.1703    3.4507    0.5094 H         1 <0>         0.1428
     21 H9          2.1869    4.9538    0.5259 H         1 <0>         0.1445
     22 H10         2.1266    1.2867   -0.0113 H         1 <0>         0.1440
     23 H11         0.0021   -0.0041    0.0020 H         1 <0>         0.1501
     24 H12        -2.1422    1.2074    0.0190 H         1 <0>         0.1701
     25 H13        -0.1926    4.8713    0.0287 H         1 <0>         0.1623
     26 H14         2.3603    4.0370   -3.4399 H         1 <0>         0.4530
@<TRIPOS>BOND
     1    1    2 1
     2    1   13 1
     3    1   14 1
     4    1   15 1
     5    2    3 1
     6    2    4 1
     7    3   16 1
     8    3   17 1
     9    3   18 1
    10    4    5 2
    11    4    6 1
    12    5   19 1
    13    5   26 1
    14    6    7 1
    15    6   20 1
    16    6   21 1
    17    7   12 ar
    18    7    8 ar
    19    8    9 ar
    20    8   22 1
    21    9   10 ar
    22    9   23 1
    23   10   11 ar
    24   10   24 1
    25   11   12 ar
    26   12   25 1
@<TRIPOS>MOLECULE
ZINC00066462
   25    26     0     0     0
SMALL
USER_CHARGES
3-(4,5-dihydro-1H-imidazol-2-ylmethoxy)pyridine
@<TRIPOS>ATOM
      1 C1          2.3319    1.4059   -0.0126 C.ar      1 <0>        -0.1262
      2 C2          2.3965    0.0216   -0.0212 C.ar      1 <0>        -0.0898
      3 C3          1.2048   -0.6957   -0.0136 C.ar      1 <0>         0.0576
      4 C4          0.0021   -0.0041    0.0020 C.ar      1 <0>         0.0291
      5 N1         -0.0158    1.3139    0.0093 N.ar      1 <0>        -0.4457
      6 C5          1.0957    2.0237    0.0025 C.ar      1 <0>         0.0860
      7 O1          1.2183   -2.0548   -0.0211 O.3       1 <0>        -0.3173
      8 C6         -0.0484   -2.7162   -0.0120 C.3       1 <0>         0.0707
      9 C7          0.1639   -4.2081   -0.0222 C.cat     1 <0>         0.5152
     10 C8          1.2165   -6.2074   -0.0433 C.3       1 <0>         0.0482
     11 C9         -0.3048   -6.4598   -0.0296 C.3       1 <0>         0.0690
     12 N2         -0.8677   -5.0988   -0.0167 N.pl3     1 <0>        -0.6590
     13 H1          3.2371    1.9950   -0.0185 H         1 <0>         0.1539
     14 H2          3.3487   -0.4877   -0.0337 H         1 <0>         0.1487
     15 H3         -0.9291   -0.5512    0.0080 H         1 <0>         0.1577
     16 H4          1.0391    3.1022    0.0088 H         1 <0>         0.1695
     17 H5         -0.5994   -2.4337    0.8850 H         1 <0>         0.1353
     18 H6         -0.6171   -2.4241   -0.8949 H         1 <0>         0.1353
     19 H7          1.6828   -6.6314    0.8460 H         1 <0>         0.1319
     20 H8          1.6654   -6.6240   -0.9450 H         1 <0>         0.1315
     21 H9         -0.5967   -7.0059    0.8674 H         1 <0>         0.1256
     22 H10        -0.6170   -6.9974   -0.9249 H         1 <0>         0.1258
     23 H11        -1.8114   -4.8746   -0.0066 H         1 <0>         0.4603
     24 N3          1.3337   -4.7395   -0.0422 N.pl3     1 <0>        -0.5963
     25 H12         2.2183   -4.2183   -0.0553 H         1 <0>         0.4828
@<TRIPOS>BOND
     1    1    6 ar
     2    1    2 ar
     3    1   13 1
     4    2    3 ar
     5    2   14 1
     6    3    4 ar
     7    3    7 1
     8    4    5 ar
     9    4   15 1
    10    5    6 ar
    11    6   16 1
    12    7    8 1
    13    8    9 1
    14    8   17 1
    15    8   18 1
    16    9   12 1
    17    9   24 2
    18   10   11 1
    19   10   19 1
    20   10   20 1
    21   10   24 1
    22   11   12 1
    23   11   21 1
    24   11   22 1
    25   12   23 1
    26   24   25 1
@<TRIPOS>MOLECULE
ZINC01442802
   20    20     0     0     0
SMALL
USER_CHARGES
2-(3-pyridyl)acetamidine
@<TRIPOS>ATOM
      1 C1         -0.5029    0.7675   -1.0806 C.ar      1 <0>        -0.1646
      2 C2          0.6316    1.4471   -0.6635 C.ar      1 <0>        -0.0570
      3 C3          0.5383    2.8122   -0.4404 C.ar      1 <0>        -0.2088
      4 C4         -0.6738    3.4459   -0.6396 C.ar      1 <0>         0.1211
      5 N1         -1.7324    2.7674   -1.0369 N.ar      1 <0>        -0.4734
      6 C5         -1.6789    1.4694   -1.2644 C.ar      1 <0>         0.1306
      7 C6          1.7430    3.5952    0.0142 C.3       1 <0>        -0.0738
      8 C7          2.4962    4.1017   -1.1888 C.cat     1 <0>         0.5462
      9 N2          3.6349    4.8447   -1.0212 N.pl3     1 <0>        -0.7763
     10 H1         -0.4666   -0.2962   -1.2640 H         1 <0>         0.1512
     11 H2          1.5658    0.9255   -0.5163 H         1 <0>         0.1456
     12 H3         -0.7550    4.5091   -0.4677 H         1 <0>         0.1639
     13 H4         -2.5656    0.9483   -1.5937 H         1 <0>         0.1710
     14 H5          1.4191    4.4399    0.6222 H         1 <0>         0.1484
     15 H6          2.3936    2.9505    0.6052 H         1 <0>         0.1466
     16 H7          2.4827    4.1160   -3.2162 H         1 <0>         0.4408
     17 H8          3.9563    5.0449   -0.1281 H         1 <0>         0.4477
     18 H9          4.1197    5.1707   -1.7956 H         1 <0>         0.4300
     19 N3          2.0089    3.7964   -2.3713 N.pl3     1 <0>        -0.7491
     20 H10         1.1515    3.2363   -2.4442 H         1 <0>         0.4600
@<TRIPOS>BOND
     1    1    6 ar
     2    1    2 ar
     3    1   10 1
     4    2    3 ar
     5    2   11 1
     6    3    4 ar
     7    3    7 1
     8    4    5 ar
     9    4   12 1
    10    5    6 ar
    11    6   13 1
    12    7    8 1
    13    7   14 1
    14    7   15 1
    15    8    9 1
    16    8   19 2
    17    9   17 1
    18    9   18 1
    19   16   19 1
    20   19   20 1
@<TRIPOS>MOLECULE
ZINC28096944
   32    33     0     0     0
SMALL
USER_CHARGES
(2S)-2-(4-methoxyphenyl)-1-methyl-pyrrolidine
@<TRIPOS>ATOM
      1 C1          1.1852    3.2457   -0.4557 C.3       1 <0>        -0.0550
      2 N1          1.0862    2.0964    0.4538 N.4       1 <0>        -0.4036
      3 C2          0.7084    2.5297    1.8159 C.3       1 <0>        -0.0104
      4 C3         -0.1622    1.3750    2.3712 C.3       1 <0>        -0.1446
      5 C4         -0.9480    0.9390    1.1066 C.3       1 <0>        -0.1317
      6 C5          0.0832    1.1279   -0.0258 C.3       1 <0>         0.0888
      7 H1          0.5891    0.1893   -0.2960 H         1 <0>         0.1428
      8 C6         -0.5972    1.6630   -1.2594 C.ar      1 <0>        -0.1886
      9 C7         -1.4092    2.7786   -1.1708 C.ar      1 <0>        -0.0643
     10 C8         -2.0295    3.2744   -2.3011 C.ar      1 <0>        -0.2070
     11 C9         -1.8463    2.6452   -3.5239 C.ar      1 <0>         0.1641
     12 C10        -1.0357    1.5226   -3.6092 C.ar      1 <0>        -0.1481
     13 C11        -0.4131    1.0341   -2.4769 C.ar      1 <0>        -0.0480
     14 O1         -2.4596    3.1280   -4.6364 O.3       1 <0>        -0.3069
     15 C12        -3.2795    4.2871   -4.4740 C.3       1 <0>         0.0177
     16 H2          1.9388    3.9508   -0.0749 H         1 <0>         0.1196
     17 H3          0.2094    3.7497   -0.5172 H         1 <0>         0.1236
     18 H4          1.4816    2.8972   -1.4560 H         1 <0>         0.1226
     19 H5          1.6167    2.6812    2.4176 H         1 <0>         0.1331
     20 H6          0.1456    3.4730    1.7577 H         1 <0>         0.1250
     21 H7          0.4894    0.5842    2.7711 H         1 <0>         0.0997
     22 H8         -0.8098    1.7574    3.1740 H         1 <0>         0.1152
     23 H9         -1.2680   -0.1077    1.2165 H         1 <0>         0.1154
     24 H10        -1.8322    1.5818    0.9846 H         1 <0>         0.1007
     25 H11        -1.5549    3.2655   -0.2178 H         1 <0>         0.1289
     26 H12        -2.6601    4.1485   -2.2322 H         1 <0>         0.1401
     27 H13        -0.8912    1.0312   -4.5600 H         1 <0>         0.1442
     28 H14         0.2184    0.1604   -2.5428 H         1 <0>         0.1391
     29 H15        -3.7119    4.5693   -5.4453 H         1 <0>         0.1132
     30 H16        -2.6688    5.1172   -4.0894 H         1 <0>         0.0622
     31 H17        -4.0889    4.0669   -3.7623 H         1 <0>         0.0632
     32 H18         2.0780    1.6212    0.4747 H         1 <0>         0.4489
@<TRIPOS>BOND
     1    1    2 1
     2    1   16 1
     3    1   17 1
     4    1   18 1
     5    2    6 1
     6    2    3 1
     7    2   32 1
     8    3    4 1
     9    3   19 1
    10    3   20 1
    11    4    5 1
    12    4   21 1
    13    4   22 1
    14    5    6 1
    15    5   23 1
    16    5   24 1
    17    6    7 1
    18    6    8 1
    19    8   13 ar
    20    8    9 ar
    21    9   10 ar
    22    9   25 1
    23   10   11 ar
    24   10   26 1
    25   11   12 ar
    26   11   14 1
    27   12   13 ar
    28   12   27 1
    29   13   28 1
    30   14   15 1
    31   15   29 1
    32   15   30 1
    33   15   31 1
@<TRIPOS>MOLECULE
ZINC28096950
   32    33     0     0     0
SMALL
USER_CHARGES
(2R)-2-(4-methoxyphenyl)-1-methyl-pyrrolidine
@<TRIPOS>ATOM
      1 C1          1.5770    3.3105   -0.4858 C.3       1 <0>        -0.0507
      2 N1          1.4135    1.9334   -0.0011 N.4       1 <0>        -0.4127
      3 C2         -0.0189    1.5396    0.0105 C.3       1 <0>         0.0004
      4 C3          0.0021   -0.0041    0.0020 C.3       1 <0>        -0.1468
      5 C4          1.3640   -0.3831   -0.6154 C.3       1 <0>        -0.1343
      6 C5          2.0513    0.9634   -0.9281 C.3       1 <0>         0.0964
      7 H1          1.9436    1.2877   -1.9737 H         1 <0>         0.1464
      8 C6          3.5316    0.8725   -0.6607 C.ar      1 <0>        -0.1808
      9 C7          4.0078    0.9880    0.6322 C.ar      1 <0>        -0.0801
     10 C8          5.3638    0.8993    0.8806 C.ar      1 <0>        -0.1976
     11 C9          6.2490    0.7059   -0.1699 C.ar      1 <0>         0.1580
     12 C10         5.7692    0.5959   -1.4670 C.ar      1 <0>        -0.1401
     13 C11         4.4118    0.6792   -1.7094 C.ar      1 <0>        -0.0482
     14 O1          7.5840    0.6248    0.0711 O.3       1 <0>        -0.3070
     15 C12         8.0064    0.7466    1.4308 C.3       1 <0>         0.0179
     16 H2          1.0966    4.0063    0.2178 H         1 <0>         0.1239
     17 H3          1.1084    3.4087   -1.4762 H         1 <0>         0.1186
     18 H4          2.6484    3.5476   -0.5620 H         1 <0>         0.1225
     19 H5         -0.5012    1.9376    0.9155 H         1 <0>         0.1317
     20 H6         -0.5185    1.9472   -0.8807 H         1 <0>         0.1310
     21 H7         -0.0941   -0.3778    1.0321 H         1 <0>         0.0988
     22 H8         -0.8361   -0.3789   -0.6038 H         1 <0>         0.1113
     23 H9          1.9428   -0.9752    0.1087 H         1 <0>         0.1017
     24 H10         1.2009   -0.9765   -1.5272 H         1 <0>         0.1134
     25 H11         3.3187    1.1437    1.4491 H         1 <0>         0.1191
     26 H12         5.7349    0.9849    1.8913 H         1 <0>         0.1405
     27 H13         6.4564    0.4457   -2.2865 H         1 <0>         0.1452
     28 H14         4.0377    0.5937   -2.7189 H         1 <0>         0.1403
     29 H15         9.1020    0.6633    1.4832 H         1 <0>         0.1130
     30 H16         7.5487   -0.0543    2.0301 H         1 <0>         0.0627
     31 H17         7.6936    1.7245    1.8257 H         1 <0>         0.0620
     32 H18         1.8655    1.9239    1.0017 H         1 <0>         0.4434
@<TRIPOS>BOND
     1    1    2 1
     2    1   16 1
     3    1   17 1
     4    1   18 1
     5    2    6 1
     6    2    3 1
     7    2   32 1
     8    3    4 1
     9    3   19 1
    10    3   20 1
    11    4    5 1
    12    4   21 1
    13    4   22 1
    14    5    6 1
    15    5   23 1
    16    5   24 1
    17    6    7 1
    18    6    8 1
    19    8   13 ar
    20    8    9 ar
    21    9   10 ar
    22    9   25 1
    23   10   11 ar
    24   10   26 1
    25   11   12 ar
    26   11   14 1
    27   12   13 ar
    28   12   27 1
    29   13   28 1
    30   14   15 1
    31   15   29 1
    32   15   30 1
    33   15   31 1
@<TRIPOS>MOLECULE
ZINC13611494
   45    46     0     0     0
SMALL
USER_CHARGES
3-(6-fluorohex-1-ynyl)-5-[[(2S)-1-methylpyrrolidin-2-yl]methoxy]pyridine
@<TRIPOS>ATOM
      1 C1         -3.0878    2.3839    1.5872 C.3       1 <0>        -0.0362
      2 C2         -0.8009    1.6167    1.2317 C.3       1 <0>        -0.0070
      3 C3         -0.0127    1.0858    0.0080 C.3       1 <0>        -0.1483
      4 C4         -0.8223    1.6286   -1.1920 C.3       1 <0>        -0.1400
      5 C5         -2.2314    1.9037   -0.6350 C.3       1 <0>         0.0333
      6 H1         -2.4649    2.9648   -0.7234 H         1 <0>         0.1515
      7 C6         -3.2650    1.0734   -1.3987 C.3       1 <0>         0.0340
      8 O1         -4.5778    1.4215   -0.9545 O.3       1 <0>        -0.3197
      9 C7         -5.6191    0.7704   -1.5368 C.ar      1 <0>         0.0665
     10 C8         -6.9251    1.0535   -1.1586 C.ar      1 <0>        -0.0831
     11 C9         -7.9620    0.3572   -1.7875 C.ar      1 <0>         0.0266
     12 C10        -7.6456   -0.5884   -2.7640 C.ar      1 <0>         0.1020
     13 N1         -6.3919   -0.8234   -3.0906 N.ar      1 <0>        -0.4390
     14 C11        -5.3905   -0.1815   -2.5209 C.ar      1 <0>         0.0279
     15 C12        -9.3267    0.6101   -1.4350 C.1       1 <0>        -0.1777
     16 C13       -10.4455    0.8175   -1.1459 C.1       1 <0>        -0.0992
     17 C14       -11.8483    1.0774   -0.7835 C.3       1 <0>        -0.0179
     18 C15       -12.1814    2.5459   -1.0547 C.3       1 <0>        -0.1132
     19 C16       -13.6395    2.8161   -0.6780 C.3       1 <0>        -0.1568
     20 C17       -13.9726    4.2846   -0.9492 C.3       1 <0>         0.0608
     21 F1        -15.3058    4.5316   -0.6048 F         1 <0>        -0.2162
     22 H2         -4.1102    2.3192    1.2148 H         1 <0>         0.1288
     23 H3         -3.0608    2.0703    2.6308 H         1 <0>         0.1232
     24 H4         -2.7367    3.4128    1.5078 H         1 <0>         0.1195
     25 H5         -0.6178    0.9936    2.1071 H         1 <0>         0.1401
     26 H6         -0.5403    2.6552    1.4361 H         1 <0>         0.1359
     27 H7          0.0021   -0.0041    0.0020 H         1 <0>         0.0999
     28 H8          1.0019    1.4840    0.0005 H         1 <0>         0.1195
     29 H9         -0.3756    2.5508   -1.5636 H         1 <0>         0.1127
     30 H10        -0.8682    0.8829   -1.9857 H         1 <0>         0.1091
     31 H11        -3.1769    1.2759   -2.4660 H         1 <0>         0.1128
     32 H12        -3.0880    0.0138   -1.2141 H         1 <0>         0.0900
     33 H13        -7.1344    1.7917   -0.3985 H         1 <0>         0.1482
     34 H14        -8.4374   -1.1328   -3.2571 H         1 <0>         0.1704
     35 H15        -4.3771   -0.4026   -2.8218 H         1 <0>         0.1597
     36 H16       -12.5017    0.4405   -1.3798 H         1 <0>         0.0998
     37 H17       -11.9964    0.8606    0.2744 H         1 <0>         0.0993
     38 H18       -11.5281    3.1828   -0.4584 H         1 <0>         0.0709
     39 H19       -12.0333    2.7627   -2.1126 H         1 <0>         0.0719
     40 H20       -14.2928    2.1792   -1.2743 H         1 <0>         0.0803
     41 H21       -13.7876    2.5993    0.3799 H         1 <0>         0.0798
     42 H22       -13.3193    4.9214   -0.3529 H         1 <0>         0.0737
     43 H23       -13.8245    4.5013   -2.0071 H         1 <0>         0.0742
     44 N2         -2.1941    1.5010    0.7758 N.4       1 <0>        -0.3968
     45 H24        -2.5082    0.5278    0.8675 H         1 <0>         0.4286
@<TRIPOS>BOND
     1    1   22 1
     2    1   23 1
     3    1   24 1
     4    1   44 1
     5    2    3 1
     6    2   25 1
     7    2   26 1
     8    2   44 1
     9    3    4 1
    10    3   27 1
    11    3   28 1
    12    4    5 1
    13    4   29 1
    14    4   30 1
    15    5    6 1
    16    5    7 1
    17    5   44 1
    18    7    8 1
    19    7   31 1
    20    7   32 1
    21    8    9 1
    22    9   14 ar
    23    9   10 ar
    24   10   11 ar
    25   10   33 1
    26   11   12 ar
    27   11   15 1
    28   12   13 ar
    29   12   34 1
    30   13   14 ar
    31   14   35 1
    32   15   16 3
    33   16   17 1
    34   17   18 1
    35   17   36 1
    36   17   37 1
    37   18   19 1
    38   18   38 1
    39   18   39 1
    40   19   20 1
    41   19   40 1
    42   19   41 1
    43   20   21 1
    44   20   42 1
    45   20   43 1
    46   44   45 1
@<TRIPOS>MOLECULE
ZINC01726143
   28    29     0     0     0
SMALL
USER_CHARGES
2-(4-bromophenyl)-1-methyl-pyrrolidine
@<TRIPOS>ATOM
      1 C1          1.1853    3.2474   -0.4535 C.3       1 <0>        -0.0455
      2 C2          0.7075    2.5296    1.8174 C.3       1 <0>        -0.0101
      3 C3         -0.1630    1.3742    2.3713 C.3       1 <0>        -0.1445
      4 C4         -0.9479    0.9388    1.1060 C.3       1 <0>        -0.1360
      5 C5          0.0839    1.1289   -0.0257 C.3       1 <0>         0.0733
      6 H1          0.5659    0.1777   -0.2517 H         1 <0>         0.1446
      7 C6         -0.5961    1.6646   -1.2593 C.ar      1 <0>        -0.1279
      8 C7         -1.4080    2.7800   -1.1715 C.ar      1 <0>        -0.1027
      9 C8         -2.0280    3.2746   -2.3035 C.ar      1 <0>        -0.0851
     10 C9         -1.8444    2.6471   -3.5225 C.ar      1 <0>        -0.0674
     11 C10        -1.0361    1.5279   -3.6089 C.ar      1 <0>        -0.0832
     12 C11        -0.4123    1.0371   -2.4773 C.ar      1 <0>        -0.0840
     13 Br1        -2.6976    3.3193   -5.0704 Br        1 <0>        -0.0165
     14 H2          0.2671    3.8324   -0.4007 H         1 <0>         0.1241
     15 H3          2.0304    3.8703   -0.1603 H         1 <0>         0.1223
     16 H4          1.3321    2.8928   -1.4737 H         1 <0>         0.1222
     17 H5          1.5965    2.6640    2.4337 H         1 <0>         0.1365
     18 H6          0.1303    3.4533    1.7758 H         1 <0>         0.1318
     19 H7          0.4593    0.5605    2.7440 H         1 <0>         0.1008
     20 H8         -0.8396    1.7324    3.1472 H         1 <0>         0.1184
     21 H9         -1.8142    1.5816    0.9496 H         1 <0>         0.1016
     22 H10        -1.2502   -0.1058    1.1804 H         1 <0>         0.1157
     23 H11        -1.5546    3.2675   -0.2190 H         1 <0>         0.1366
     24 H12        -2.6587    4.1487   -2.2356 H         1 <0>         0.1460
     25 H13        -0.8921    1.0378   -4.5604 H         1 <0>         0.1470
     26 H14         0.2191    0.1635   -2.5447 H         1 <0>         0.1424
     27 N1          1.0929    2.0820    0.4642 N.4       1 <0>        -0.3940
     28 H15         2.0070    1.6164    0.5078 H         1 <0>         0.4336
@<TRIPOS>BOND
     1    1   14 1
     2    1   15 1
     3    1   16 1
     4    1   27 1
     5    2    3 1
     6    2   17 1
     7    2   18 1
     8    2   27 1
     9    3    4 1
    10    3   19 1
    11    3   20 1
    12    4    5 1
    13    4   21 1
    14    4   22 1
    15    5    6 1
    16    5    7 1
    17    5   27 1
    18    7   12 ar
    19    7    8 ar
    20    8    9 ar
    21    8   23 1
    22    9   10 ar
    23    9   24 1
    24   10   11 ar
    25   10   13 1
    26   11   12 ar
    27   11   25 1
    28   12   26 1
    29   27   28 1
@<TRIPOS>MOLECULE
ZINC05052973
   28    29     0     0     0
SMALL
USER_CHARGES
2-(4-bromophenyl)-1-methyl-pyrrolidine
@<TRIPOS>ATOM
      1 C1         -1.5984    0.5837    1.7789 C.3       1 <0>        -0.0377
      2 C2          0.4572    1.8162    2.2074 C.3       1 <0>        -0.0081
      3 C3          1.5695    2.4238    1.3162 C.3       1 <0>        -0.1481
      4 C4          1.4278    1.6301   -0.0028 C.3       1 <0>        -0.1388
      5 C5         -0.0127    1.0858    0.0080 C.3       1 <0>         0.0764
      6 H1          0.0021   -0.0041    0.0020 H         1 <0>         0.1480
      7 C6         -0.7631    1.5954   -1.1954 C.ar      1 <0>        -0.1220
      8 C7         -1.2866    2.8749   -1.1925 C.ar      1 <0>        -0.1204
      9 C8         -1.9707    3.3444   -2.2979 C.ar      1 <0>        -0.0744
     10 C9         -2.1407    2.5302   -3.4031 C.ar      1 <0>        -0.0734
     11 C10        -1.6213    1.2481   -3.4035 C.ar      1 <0>        -0.0760
     12 C11        -0.9327    0.7813   -2.2997 C.ar      1 <0>        -0.0825
     13 Br1        -3.0834    3.1692   -4.9127 Br        1 <0>        -0.0161
     14 H2         -1.0689   -0.3431    1.9997 H         1 <0>         0.1219
     15 H3         -2.0539    0.9682    2.6915 H         1 <0>         0.1262
     16 H4         -2.3748    0.3910    1.0386 H         1 <0>         0.1225
     17 H5          0.7908    0.8796    2.6541 H         1 <0>         0.1367
     18 H6          0.1541    2.5230    2.9799 H         1 <0>         0.1399
     19 H7          2.5515    2.2614    1.7606 H         1 <0>         0.1190
     20 H8          1.3919    3.4860    1.1482 H         1 <0>         0.0981
     21 H9          2.1428    0.8077   -0.0281 H         1 <0>         0.1088
     22 H10         1.5770    2.2886   -0.8585 H         1 <0>         0.1070
     23 H11        -1.1574    3.5091   -0.3279 H         1 <0>         0.1282
     24 H12        -2.3764    4.3454   -2.2970 H         1 <0>         0.1466
     25 H13        -1.7541    0.6119   -4.2660 H         1 <0>         0.1481
     26 H14        -0.5275   -0.2198   -2.2998 H         1 <0>         0.1440
     27 N1         -0.6267    1.5824    1.2402 N.4       1 <0>        -0.3988
     28 H15        -1.1193    2.4634    1.0516 H         1 <0>         0.4251
@<TRIPOS>BOND
     1    1   14 1
     2    1   15 1
     3    1   16 1
     4    1   27 1
     5    2    3 1
     6    2   17 1
     7    2   18 1
     8    2   27 1
     9    3    4 1
    10    3   19 1
    11    3   20 1
    12    4    5 1
    13    4   21 1
    14    4   22 1
    15    5    6 1
    16    5    7 1
    17    5   27 1
    18    7   12 ar
    19    7    8 ar
    20    8    9 ar
    21    8   23 1
    22    9   10 ar
    23    9   24 1
    24   10   11 ar
    25   10   13 1
    26   11   12 ar
    27   11   25 1
    28   12   26 1
    29   27   28 1
@<TRIPOS>MOLECULE
ZINC28104755
   28    29     0     0     0
SMALL
USER_CHARGES
(2R)-2-(4-fluorophenyl)-1-methyl-pyrrolidine
@<TRIPOS>ATOM
      1 C1         -1.5984    0.5837    1.7789 C.3       1 <0>        -0.0503
      2 N1         -0.6517    1.5742    1.2492 N.4       1 <0>        -0.4135
      3 C2          0.4572    1.8162    2.2074 C.3       1 <0>        -0.0029
      4 C3          1.5695    2.4238    1.3162 C.3       1 <0>        -0.1443
      5 C4          1.4278    1.6301   -0.0028 C.3       1 <0>        -0.1334
      6 C5         -0.0127    1.0858    0.0080 C.3       1 <0>         0.0894
      7 H1         -0.0491   -0.0134   -0.0112 H         1 <0>         0.1452
      8 C6         -0.7631    1.5954   -1.1954 C.ar      1 <0>        -0.1505
      9 C7         -1.2864    2.8750   -1.1922 C.ar      1 <0>        -0.0957
     10 C8         -1.9698    3.3454   -2.2974 C.ar      1 <0>        -0.1387
     11 C9         -2.1406    2.5305   -3.4036 C.ar      1 <0>         0.1301
     12 C10        -1.6209    1.2471   -3.4035 C.ar      1 <0>        -0.1400
     13 C11        -0.9326    0.7810   -2.2996 C.ar      1 <0>        -0.0593
     14 F1         -2.8141    2.9870   -4.4821 F         1 <0>        -0.1226
     15 H2         -2.0581    0.9718    2.6998 H         1 <0>         0.1257
     16 H3         -1.0640   -0.3516    2.0018 H         1 <0>         0.1199
     17 H4         -2.3819    0.3893    1.0317 H         1 <0>         0.1229
     18 H5          0.1196    2.5103    2.9911 H         1 <0>         0.1341
     19 H6          0.7594    0.8635    2.6668 H         1 <0>         0.1327
     20 H7          1.3864    3.5004    1.1843 H         1 <0>         0.0977
     21 H8          2.5474    2.2744    1.7973 H         1 <0>         0.1180
     22 H9          1.5999    2.3029   -0.8559 H         1 <0>         0.1084
     23 H10         2.1678    0.8165   -0.0225 H         1 <0>         0.1098
     24 H11        -1.1575    3.5087   -0.3272 H         1 <0>         0.1299
     25 H12        -2.3750    4.3465   -2.2962 H         1 <0>         0.1495
     26 H13        -1.7538    0.6104   -4.2657 H         1 <0>         0.1510
     27 H14        -0.5271   -0.2200   -2.2993 H         1 <0>         0.1446
     28 H15        -1.2415    2.4848    1.0676 H         1 <0>         0.4424
@<TRIPOS>BOND
     1    1    2 1
     2    1   15 1
     3    1   16 1
     4    1   17 1
     5    2    6 1
     6    2    3 1
     7    2   28 1
     8    3    4 1
     9    3   18 1
    10    3   19 1
    11    4    5 1
    12    4   20 1
    13    4   21 1
    14    5    6 1
    15    5   22 1
    16    5   23 1
    17    6    7 1
    18    6    8 1
    19    8   13 ar
    20    8    9 ar
    21    9   10 ar
    22    9   24 1
    23   10   11 ar
    24   10   25 1
    25   11   12 ar
    26   11   14 1
    27   12   13 ar
    28   12   26 1
    29   13   27 1
@<TRIPOS>MOLECULE
ZINC28104761
   28    29     0     0     0
SMALL
USER_CHARGES
(2S)-2-(4-fluorophenyl)-1-methyl-pyrrolidine
@<TRIPOS>ATOM
      1 C1          1.1853    3.2468   -0.4543 C.3       1 <0>        -0.0579
      2 N1          1.0862    2.0971    0.4547 N.4       1 <0>        -0.4038
      3 C2          0.7078    2.5296    1.8169 C.3       1 <0>        -0.0108
      4 C3         -0.1627    1.3745    2.3713 C.3       1 <0>        -0.1443
      5 C4         -0.9480    0.9389    1.1062 C.3       1 <0>        -0.1330
      6 C5          0.0836    1.1286   -0.0257 C.3       1 <0>         0.0854
      7 H1          0.5899    0.1902   -0.2961 H         1 <0>         0.1457
      8 C6         -0.5965    1.6641   -1.2593 C.ar      1 <0>        -0.1586
      9 C7         -1.4084    2.7795   -1.1712 C.ar      1 <0>        -0.0786
     10 C8         -2.0288    3.2743   -2.3027 C.ar      1 <0>        -0.1497
     11 C9         -1.8453    2.6462   -3.5229 C.ar      1 <0>         0.1364
     12 C10        -1.0361    1.5260   -3.6089 C.ar      1 <0>        -0.1479
     13 C11        -0.4126    1.0361   -2.4771 C.ar      1 <0>        -0.0589
     14 F1         -2.4550    3.1263   -4.6288 F         1 <0>        -0.1224
     15 H2          1.9386    3.9519   -0.0729 H         1 <0>         0.1225
     16 H3          0.2094    3.7506   -0.5160 H         1 <0>         0.1245
     17 H4          1.4821    2.8987   -1.4547 H         1 <0>         0.1227
     18 H5          1.6158    2.6810    2.4190 H         1 <0>         0.1345
     19 H6          0.1448    3.4728    1.7590 H         1 <0>         0.1263
     20 H7          0.4890    0.5836    2.7711 H         1 <0>         0.1005
     21 H8         -0.8106    1.7563    3.1740 H         1 <0>         0.1167
     22 H9         -1.2678   -0.1079    1.2155 H         1 <0>         0.1172
     23 H10        -1.8323    1.5816    0.9842 H         1 <0>         0.1025
     24 H11        -1.5546    3.2668   -0.2186 H         1 <0>         0.1376
     25 H12        -2.6597    4.1482   -2.2344 H         1 <0>         0.1490
     26 H13        -0.8920    1.0355   -4.5603 H         1 <0>         0.1501
     27 H14         0.2189    0.1625   -2.5440 H         1 <0>         0.1435
     28 H15         2.0782    1.6222    0.4757 H         1 <0>         0.4507
@<TRIPOS>BOND
     1    1    2 1
     2    1   15 1
     3    1   16 1
     4    1   17 1
     5    2    6 1
     6    2    3 1
     7    2   28 1
     8    3    4 1
     9    3   18 1
    10    3   19 1
    11    4    5 1
    12    4   20 1
    13    4   21 1
    14    5    6 1
    15    5   22 1
    16    5   23 1
    17    6    7 1
    18    6    8 1
    19    8   13 ar
    20    8    9 ar
    21    9   10 ar
    22    9   24 1
    23   10   11 ar
    24   10   25 1
    25   11   12 ar
    26   11   14 1
    27   12   13 ar
    28   12   26 1
    29   13   27 1
@<TRIPOS>MOLECULE
ZINC04098884
   28    29     0     0     0
SMALL
USER_CHARGES

@<TRIPOS>ATOM
      1 C1         -0.0184    1.5028    0.0103 C.3       1 <0>        -0.2103
      2 C2          0.0021   -0.0041    0.0020 C.2       1 <0>         0.3798
      3 O1          1.0609   -0.5963   -0.0113 O.2       1 <0>        -0.4350
      4 C3         -1.2613   -0.7566    0.0100 C.2       1 <0>        -0.2743
      5 C4         -1.1803   -2.0831   -0.0453 C.2       1 <0>         0.0084
      6 C5         -2.4528   -2.9230    0.0168 C.3       1 <0>        -0.1381
      7 C6         -3.2610   -2.6693   -1.2566 C.3       1 <0>        -0.1290
      8 C7         -4.0383   -1.3685   -1.1625 C.3       1 <0>         0.0182
      9 H1         -4.8385   -1.3502   -1.9105 H         1 <0>         0.1517
     10 C8         -4.6272   -1.2637    0.2730 C.3       1 <0>        -0.1447
     11 C9         -3.5252   -0.5381    1.0778 C.3       1 <0>        -0.1436
     12 C10        -2.5467    0.0118    0.0264 C.3       1 <0>         0.0890
     13 H2         -2.3553    1.0768    0.2028 H         1 <0>         0.1562
     14 N1         -3.2191   -0.1720   -1.2776 N.4       1 <0>        -0.5030
     15 H3          1.0042    1.8801    0.0026 H         1 <0>         0.0980
     16 H4         -0.5455    1.8639   -0.8728 H         1 <0>         0.0909
     17 H5         -0.5286    1.8543    0.9071 H         1 <0>         0.0992
     18 H6         -0.2176   -2.5630   -0.1336 H         1 <0>         0.1540
     19 H7         -2.1651   -3.9823    0.0362 H         1 <0>         0.1025
     20 H8         -3.0265   -2.7041    0.9010 H         1 <0>         0.1147
     21 H9         -2.5779   -2.6225   -2.1050 H         1 <0>         0.0906
     22 H10        -3.9564   -3.4962   -1.4038 H         1 <0>         0.1217
     23 H11        -5.5484   -0.6718    0.2684 H         1 <0>         0.1026
     24 H12        -4.8307   -2.2519    0.6887 H         1 <0>         0.1173
     25 H13        -3.9662    0.2902    1.6448 H         1 <0>         0.1084
     26 H14        -3.0243   -1.2129    1.7669 H         1 <0>         0.1113
     27 H15        -2.5327   -0.2917   -2.0062 H         1 <0>         0.4285
     28 H16        -3.8015    0.6268   -1.4787 H         1 <0>         0.4349
@<TRIPOS>BOND
     1    1    2 1
     2    1   15 1
     3    1   16 1
     4    1   17 1
     5    2    3 2
     6    2    4 1
     7    4   12 1
     8    4    5 2
     9    5    6 1
    10    5   18 1
    11    6    7 1
    12    6   19 1
    13    6   20 1
    14    7    8 1
    15    7   21 1
    16    7   22 1
    17    8    9 1
    18    8   14 1
    19    8   10 1
    20   10   11 1
    21   10   23 1
    22   10   24 1
    23   11   12 1
    24   11   25 1
    25   11   26 1
    26   12   13 1
    27   12   14 1
    28   14   27 1
    29   14   28 1
@<TRIPOS>MOLECULE
ZINC04098885
   28    29     0     0     0
SMALL
USER_CHARGES
1-(9-azabicyclo[4.2.1]non-4-en-5-yl)ethanone
@<TRIPOS>ATOM
      1 C1          0.9561    2.9250    2.3594 C.3       1 <0>        -0.2009
      2 C2          1.8868    2.6621    1.2038 C.2       1 <0>         0.3805
      3 O1          3.0484    3.0062    1.2699 O.2       1 <0>        -0.4361
      4 C3          1.3870    1.9882   -0.0046 C.2       1 <0>        -0.2690
      5 C4          2.2139    1.8637   -1.0260 C.2       1 <0>         0.0051
      6 C5          1.8108    1.1949   -2.3255 C.3       1 <0>        -0.1334
      7 C6          1.4310   -0.2570   -2.0738 C.3       1 <0>        -0.1245
      8 C7          0.1073   -0.4111   -1.3772 C.3       1 <0>         0.0072
      9 H1         -0.2599   -1.4455   -1.4856 H         1 <0>         0.1545
     10 C8         -0.8899    0.5581   -2.1051 C.3       1 <0>        -0.1479
     11 C9         -0.7477    1.8784   -1.3092 C.3       1 <0>        -0.1465
     12 C10        -0.0260    1.4857   -0.0013 C.3       1 <0>         0.0757
     13 H2         -0.5721    1.8737    0.8637 H         1 <0>         0.1629
     14 H3          0.0689    2.5018    2.1758 H         1 <0>         0.0701
     15 H4          1.3792    2.5014    3.2703 H         1 <0>         0.1032
     16 H5          0.8268    4.0000    2.4846 H         1 <0>         0.1076
     17 H6          3.2252    2.2588   -0.9272 H         1 <0>         0.1510
     18 H7          2.6712    1.2153   -3.0114 H         1 <0>         0.1037
     19 H8          0.9974    1.7300   -2.8039 H         1 <0>         0.1114
     20 H9          2.2187   -0.7246   -1.4708 H         1 <0>         0.0891
     21 H10         1.4017   -0.7821   -3.0360 H         1 <0>         0.1227
     22 H11        -0.6008    0.6919   -3.1455 H         1 <0>         0.1148
     23 H12        -1.9074    0.1716   -2.0340 H         1 <0>         0.1009
     24 H13        -1.7387    2.2798   -1.0768 H         1 <0>         0.1072
     25 H14        -0.1750    2.6160   -1.8620 H         1 <0>         0.1089
     26 N1         -0.0215    0.0266   -0.0217 N.4       1 <0>        -0.4903
     27 H15         0.7689   -0.3244    0.5317 H         1 <0>         0.4308
     28 H16        -0.9004   -0.3273    0.3740 H         1 <0>         0.4414
@<TRIPOS>BOND
     1    1    2 1
     2    1   14 1
     3    1   15 1
     4    1   16 1
     5    2    3 2
     6    2    4 1
     7    4   12 1
     8    4    5 2
     9    5    6 1
    10    5   17 1
    11    6    7 1
    12    6   18 1
    13    6   19 1
    14    7    8 1
    15    7   20 1
    16    7   21 1
    17    8    9 1
    18    8   10 1
    19    8   26 1
    20   10   11 1
    21   10   22 1
    22   10   23 1
    23   11   12 1
    24   11   24 1
    25   11   25 1
    26   12   13 1
    27   12   26 1
    28   26   27 1
    29   26   28 1
@<TRIPOS>MOLECULE
ZINC00005898
   24    25     0     0     0
SMALL
USER_CHARGES
3-[(2R)-pyrrolidin-2-yl]pyridine
@<TRIPOS>ATOM
      1 C1         -3.5303    4.7937   -3.0864 C.ar      1 <0>        -0.1553
      2 C2         -3.3015    3.6409   -2.3505 C.ar      1 <0>        -0.0406
      3 C3         -2.2630    3.6396   -1.4321 C.ar      1 <0>        -0.1948
      4 C4         -1.4884    4.7755   -1.2899 C.ar      1 <0>         0.1032
      5 N1         -1.7311    5.8521   -2.0114 N.ar      1 <0>        -0.4673
      6 C5         -2.7136    5.8909   -2.8903 C.ar      1 <0>         0.1291
      7 C6         -1.9784    2.4133   -0.6038 C.3       1 <0>         0.0880
      8 H1         -2.8671    1.7856   -0.5376 H         1 <0>         0.1514
      9 C7         -0.8008    1.6177   -1.2067 C.3       1 <0>        -0.1418
     10 C8         -0.0127    1.0858    0.0080 C.3       1 <0>        -0.1510
     11 C9         -0.7780    1.6049    1.2442 C.3       1 <0>        -0.0060
     12 H2         -4.3332    4.8316   -3.8077 H         1 <0>         0.1533
     13 H3         -3.9205    2.7663   -2.4863 H         1 <0>         0.1482
     14 H4         -0.6746    4.7812   -0.5798 H         1 <0>         0.1483
     15 H5         -2.8820    6.7908   -3.4632 H         1 <0>         0.1724
     16 H6         -0.1711    2.2719   -1.8096 H         1 <0>         0.1009
     17 H7         -1.1729    0.7888   -1.8090 H         1 <0>         0.1144
     18 H8          0.0021   -0.0041    0.0020 H         1 <0>         0.1134
     19 H9          1.0044    1.4776    0.0004 H         1 <0>         0.1017
     20 H10        -1.4779    0.8500    1.6026 H         1 <0>         0.1366
     21 H11        -0.0803    1.8832    2.0340 H         1 <0>         0.1435
     22 N2         -1.5074    2.7697    0.7356 N.4       1 <0>        -0.5148
     23 H12        -2.3044    2.9835    1.3466 H         1 <0>         0.4380
     24 H13        -0.8848    3.5847    0.6874 H         1 <0>         0.4294
@<TRIPOS>BOND
     1    1    6 ar
     2    1    2 ar
     3    1   12 1
     4    2    3 ar
     5    2   13 1
     6    3    4 ar
     7    3    7 1
     8    4    5 ar
     9    4   14 1
    10    5    6 ar
    11    6   15 1
    12    7    8 1
    13    7    9 1
    14    7   22 1
    15    9   10 1
    16    9   16 1
    17    9   17 1
    18   10   11 1
    19   10   18 1
    20   10   19 1
    21   11   20 1
    22   11   21 1
    23   11   22 1
    24   22   23 1
    25   22   24 1
@<TRIPOS>MOLECULE
ZINC13735584
   27    28     0     0     0
SMALL
USER_CHARGES
3-methyl-5-[(2R)-1-methylpyrrolidin-2-yl]isoxazole
@<TRIPOS>ATOM
      1 C1         -3.8968    5.8001   -3.8834 C.3       1 <0>        -0.0894
      2 C2         -3.0714    5.1051   -2.8315 C.2       1 <0>         0.0306
      3 C3         -3.2415    3.7840   -2.3575 C.2       1 <0>        -0.1613
      4 C4         -2.2630    3.6396   -1.4321 C.2       1 <0>        -0.1116
      5 O1         -1.6014    4.8048   -1.3944 O.3       1 <0>         0.1062
      6 N1         -2.0599    5.6019   -2.1797 N.2       1 <0>        -0.3314
      7 C5         -1.9784    2.4133   -0.6038 C.3       1 <0>         0.1339
      8 H1         -2.8671    1.7856   -0.5376 H         1 <0>         0.1676
      9 C6         -0.8008    1.6177   -1.2067 C.3       1 <0>        -0.1438
     10 C7         -0.0127    1.0858    0.0080 C.3       1 <0>        -0.1490
     11 C8         -0.7780    1.6049    1.2442 C.3       1 <0>        -0.0053
     12 C9         -2.6486    3.1182    1.6285 C.3       1 <0>        -0.0369
     13 H2         -4.7345    6.3112   -3.4090 H         1 <0>         0.0911
     14 H3         -3.2779    6.5275   -4.4089 H         1 <0>         0.0863
     15 H4         -4.2749    5.0645   -4.5933 H         1 <0>         0.0915
     16 H5         -3.9806    3.0581   -2.6626 H         1 <0>         0.1866
     17 H6         -0.1711    2.2719   -1.8096 H         1 <0>         0.1043
     18 H7         -1.1729    0.7888   -1.8090 H         1 <0>         0.1199
     19 H8          0.0021   -0.0041    0.0020 H         1 <0>         0.1160
     20 H9          1.0044    1.4776    0.0004 H         1 <0>         0.1042
     21 H10        -1.4779    0.8500    1.6026 H         1 <0>         0.1372
     22 H11        -0.0803    1.8832    2.0340 H         1 <0>         0.1440
     23 H12        -3.2943    2.2445    1.7171 H         1 <0>         0.1231
     24 H13        -2.2794    3.3987    2.6150 H         1 <0>         0.1309
     25 H14        -3.2149    3.9468    1.2034 H         1 <0>         0.1206
     26 N2         -1.5014    2.7748    0.7293 N.4       1 <0>        -0.4014
     27 H15        -0.8680    3.5806    0.6682 H         1 <0>         0.4361
@<TRIPOS>BOND
     1    1    2 1
     2    1   13 1
     3    1   14 1
     4    1   15 1
     5    2    6 2
     6    2    3 1
     7    3    4 2
     8    3   16 1
     9    4    5 1
    10    4    7 1
    11    5    6 1
    12    7    8 1
    13    7    9 1
    14    7   26 1
    15    9   10 1
    16    9   17 1
    17    9   18 1
    18   10   11 1
    19   10   19 1
    20   10   20 1
    21   11   21 1
    22   11   22 1
    23   11   26 1
    24   12   23 1
    25   12   24 1
    26   12   25 1
    27   12   26 1
    28   26   27 1
@<TRIPOS>MOLECULE
ZINC00008090
   24    25     0     0     0
SMALL
USER_CHARGES
3-methyl-5-[(2R)-pyrrolidin-2-yl]isoxazole
@<TRIPOS>ATOM
      1 C1          1.3879   -3.8839   -4.3415 C.3       1 <0>        -0.0899
      2 C2          1.0474   -2.7165   -3.4513 C.2       1 <0>         0.0302
      3 C3          1.6841   -2.3610   -2.2401 C.2       1 <0>        -0.1588
      4 C4          1.0163   -1.2557   -1.8314 C.2       1 <0>        -0.1216
      5 O1          0.0799   -1.0133   -2.7593 O.3       1 <0>         0.1076
      6 N1          0.1124   -1.8325   -3.6482 N.2       1 <0>        -0.3309
      7 C5          1.2787   -0.4531   -0.5832 C.3       1 <0>         0.1340
      8 H1          1.8250   -1.0594    0.1393 H         1 <0>         0.1688
      9 C6          2.0927    0.8114   -0.9295 C.3       1 <0>        -0.1387
     10 C7          1.4742    1.8902   -0.0019 C.3       1 <0>        -0.1427
     11 C8         -0.0180    1.4742    0.0101 C.3       1 <0>        -0.0100
     12 H2          2.1349   -3.5769   -5.0735 H         1 <0>         0.0917
     13 H3          1.7856   -4.6985   -3.7362 H         1 <0>         0.0917
     14 H4          0.4894   -4.2207   -4.8586 H         1 <0>         0.0864
     15 H5          2.5105   -2.8569   -1.7527 H         1 <0>         0.1872
     16 H6          3.1482    0.6651   -0.7001 H         1 <0>         0.1224
     17 H7          1.9611    1.0794   -1.9778 H         1 <0>         0.1046
     18 H8          1.5983    2.8869   -0.4252 H         1 <0>         0.1223
     19 H9          1.9025    1.8366    0.9990 H         1 <0>         0.1042
     20 H10        -0.5243    1.8518   -0.8782 H         1 <0>         0.1369
     21 H11        -0.5072    1.8421    0.9120 H         1 <0>         0.1436
     22 N2          0.0067   -0.0003   -0.0001 N.4       1 <0>        -0.5203
     23 H12        -0.0765   -0.3528    0.9607 H         1 <0>         0.4414
     24 H13        -0.7755   -0.3540   -0.5634 H         1 <0>         0.4399
@<TRIPOS>BOND
     1    1    2 1
     2    1   12 1
     3    1   13 1
     4    1   14 1
     5    2    6 2
     6    2    3 1
     7    3    4 2
     8    3   15 1
     9    4    5 1
    10    4    7 1
    11    5    6 1
    12    7    8 1
    13    7    9 1
    14    7   22 1
    15    9   10 1
    16    9   16 1
    17    9   17 1
    18   10   11 1
    19   10   18 1
    20   10   19 1
    21   11   20 1
    22   11   21 1
    23   11   22 1
    24   22   23 1
    25   22   24 1
@<TRIPOS>MOLECULE
ZINC03786099
   27    28     0     0     0
SMALL
USER_CHARGES

@<TRIPOS>ATOM
      1 C1          0.5015    1.5311   -0.0916 C.3       1 <0>        -0.0983
      2 C2          0.2787    0.0407   -0.0881 C.2       1 <0>         0.1102
      3 C3          0.3653   -0.8100   -1.2047 C.2       1 <0>        -0.2117
      4 C4          0.1001   -2.0658   -0.7961 C.2       1 <0>        -0.0005
      5 O1         -0.1465   -2.0296    0.5223 O.3       1 <0>        -0.0813
      6 N1         -0.0223   -0.6855    0.9511 N.2       1 <0>        -0.2785
      7 C5          0.0828   -3.2955   -1.6671 C.3       1 <0>         0.1094
      8 H1          0.3536   -3.0298   -2.6889 H         1 <0>         0.1689
      9 C6         -1.3218   -3.9344   -1.6454 C.3       1 <0>        -0.1373
     10 C7         -1.0140   -5.4550   -1.6401 C.3       1 <0>        -0.1406
     11 C8          0.2675   -5.5118   -0.7716 C.3       1 <0>        -0.0105
     12 N2          1.0296   -4.2959   -1.1412 N.4       1 <0>        -0.3895
     13 C9          1.7096   -3.7577    0.0445 C.3       1 <0>        -0.0542
     14 H2          1.5549    1.7415    0.0933 H         1 <0>         0.0996
     15 H3          0.2142    1.9391   -1.0607 H         1 <0>         0.0969
     16 H4         -0.1035    1.9908    0.6899 H         1 <0>         0.0920
     17 H5          0.6027   -0.5087   -2.2142 H         1 <0>         0.1743
     18 H6         -1.8619   -3.6474   -0.7432 H         1 <0>         0.1062
     19 H7         -1.8846   -3.6583   -2.5371 H         1 <0>         0.1232
     20 H8         -1.8253   -6.0160   -1.1762 H         1 <0>         0.1233
     21 H9         -0.8180   -5.8172   -2.6493 H         1 <0>         0.1044
     22 H10         0.0094   -5.4922    0.2872 H         1 <0>         0.1362
     23 H11         0.8452   -6.4059   -1.0057 H         1 <0>         0.1418
     24 H12         0.9908   -3.6464    0.8563 H         1 <0>         0.1346
     25 H13         2.5011   -4.4415    0.3512 H         1 <0>         0.1301
     26 H14         2.1414   -2.7858   -0.1942 H         1 <0>         0.1178
     27 H15         1.7121   -4.5225   -1.8490 H         1 <0>         0.4333
@<TRIPOS>BOND
     1    1    2 1
     2    1   14 1
     3    1   15 1
     4    1   16 1
     5    2    6 2
     6    2    3 1
     7    3    4 2
     8    3   17 1
     9    4    5 1
    10    4    7 1
    11    5    6 1
    12    7    8 1
    13    7   12 1
    14    7    9 1
    15    9   10 1
    16    9   18 1
    17    9   19 1
    18   10   11 1
    19   10   20 1
    20   10   21 1
    21   11   12 1
    22   11   22 1
    23   11   23 1
    24   12   13 1
    25   12   27 1
    26   13   24 1
    27   13   25 1
    28   13   26 1
@<TRIPOS>MOLECULE
ZINC13444091
   31    32     0     0     0
SMALL
USER_CHARGES
2-methoxy-5-[(2S)-1-methylpyrrolidin-2-yl]pyridine
@<TRIPOS>ATOM
      1 C1         -3.3743    1.4553    2.2595 C.3       1 <0>        -0.0364
      2 C2         -4.8384    1.2495    0.3248 C.3       1 <0>        -0.0064
      3 C3         -4.6453    1.1323   -1.2024 C.3       1 <0>        -0.1502
      4 C4         -3.1231    0.9838   -1.4037 C.3       1 <0>        -0.1418
      5 C5         -2.5246    1.0236    0.0188 C.3       1 <0>         0.0930
      6 H1         -2.3847    0.0124    0.4009 H         1 <0>         0.1482
      7 C6         -1.2151    1.7695    0.0173 C.ar      1 <0>        -0.2339
      8 C7         -0.0126    1.0758    0.0080 C.ar      1 <0>        -0.0067
      9 C8          1.1668    1.7996    0.0006 C.ar      1 <0>        -0.1761
     10 C9          1.1081    3.1875    0.0086 C.ar      1 <0>         0.3507
     11 N1         -0.0573    3.8126    0.0232 N.ar      1 <0>        -0.5271
     12 C10        -1.1984    3.1498    0.0305 C.ar      1 <0>         0.1498
     13 O1          2.2573    3.9087    0.0020 O.3       1 <0>        -0.2952
     14 C11         2.1301    5.3320    0.0109 C.3       1 <0>         0.0344
     15 H2         -2.3796    1.7602    2.5845 H         1 <0>         0.1211
     16 H3         -4.1260    2.0009    2.8299 H         1 <0>         0.1271
     17 H4         -3.4985    0.3852    2.4251 H         1 <0>         0.1213
     18 H5         -5.6335    1.9590    0.5541 H         1 <0>         0.1397
     19 H6         -5.0647    0.2740    0.7552 H         1 <0>         0.1349
     20 H7         -5.0069    2.0323   -1.6999 H         1 <0>         0.1008
     21 H8         -5.1651    0.2533   -1.5835 H         1 <0>         0.1127
     22 H9         -2.7375    1.8108   -1.9999 H         1 <0>         0.1000
     23 H10        -2.8942    0.0325   -1.8842 H         1 <0>         0.1137
     24 H11         0.0021   -0.0041    0.0020 H         1 <0>         0.1541
     25 H12         2.1201    1.2923   -0.0116 H         1 <0>         0.1582
     26 H13        -2.1311    3.6942    0.0424 H         1 <0>         0.1496
     27 H14         1.5778    5.6529   -0.8723 H         1 <0>         0.0655
     28 H15         1.5941    5.6433    0.9075 H         1 <0>         0.0649
     29 H16         3.1213    5.7854    0.0042 H         1 <0>         0.1082
     30 N2         -3.5364    1.7336    0.7976 N.4       1 <0>        -0.3985
     31 H17        -3.4575    2.7445    0.6362 H         1 <0>         0.4244
@<TRIPOS>BOND
     1    1   15 1
     2    1   16 1
     3    1   17 1
     4    1   30 1
     5    2    3 1
     6    2   18 1
     7    2   19 1
     8    2   30 1
     9    3    4 1
    10    3   20 1
    11    3   21 1
    12    4    5 1
    13    4   22 1
    14    4   23 1
    15    5    6 1
    16    5    7 1
    17    5   30 1
    18    7   12 ar
    19    7    8 ar
    20    8    9 ar
    21    8   24 1
    22    9   10 ar
    23    9   25 1
    24   10   11 ar
    25   10   13 1
    26   11   12 ar
    27   12   26 1
    28   13   14 1
    29   14   27 1
    30   14   28 1
    31   14   29 1
    32   30   31 1
@<TRIPOS>MOLECULE
ZINC13444094
   31    32     0     0     0
SMALL
USER_CHARGES
2-methoxy-5-[(2R)-1-methylpyrrolidin-2-yl]pyridine
@<TRIPOS>ATOM
      1 C1         -1.5984    0.5837    1.7789 C.3       1 <0>        -0.0369
      2 C2          0.4572    1.8162    2.2074 C.3       1 <0>        -0.0078
      3 C3          1.5695    2.4238    1.3162 C.3       1 <0>        -0.1488
      4 C4          1.4278    1.6301   -0.0028 C.3       1 <0>        -0.1396
      5 C5         -0.0127    1.0858    0.0080 C.3       1 <0>         0.0906
      6 H1          0.0021   -0.0041    0.0020 H         1 <0>         0.1468
      7 C6         -0.7631    1.5954   -1.1954 C.ar      1 <0>        -0.2364
      8 C7         -0.9330    0.7863   -2.3107 C.ar      1 <0>        -0.0074
      9 C8         -1.6333    1.2915   -3.3920 C.ar      1 <0>        -0.1758
     10 C9         -2.1298    2.5874   -3.3299 C.ar      1 <0>         0.3507
     11 N1         -1.9428    3.3297   -2.2515 N.ar      1 <0>        -0.5267
     12 C10        -1.2840    2.8738   -1.2028 C.ar      1 <0>         0.1482
     13 O1         -2.8137    3.0962   -4.3855 O.3       1 <0>        -0.2952
     14 C11        -3.2992    4.4344   -4.2598 C.3       1 <0>         0.0344
     15 H2         -1.0689   -0.3431    1.9997 H         1 <0>         0.1223
     16 H3         -2.0539    0.9682    2.6915 H         1 <0>         0.1260
     17 H4         -2.3748    0.3910    1.0386 H         1 <0>         0.1216
     18 H5          0.7908    0.8796    2.6541 H         1 <0>         0.1369
     19 H6          0.1541    2.5230    2.9799 H         1 <0>         0.1400
     20 H7          2.5515    2.2614    1.7606 H         1 <0>         0.1187
     21 H8          1.3919    3.4860    1.1482 H         1 <0>         0.0981
     22 H9          2.1428    0.8077   -0.0281 H         1 <0>         0.1084
     23 H10         1.5770    2.2886   -0.8585 H         1 <0>         0.1054
     24 H11        -0.5312   -0.2159   -2.3323 H         1 <0>         0.1542
     25 H12        -1.7875    0.6881   -4.2744 H         1 <0>         0.1583
     26 H13        -1.1505    3.5090   -0.3396 H         1 <0>         0.1511
     27 H14        -2.4602    5.1118   -4.1003 H         1 <0>         0.0656
     28 H15        -3.8260    4.7168   -5.1713 H         1 <0>         0.1082
     29 H16        -3.9815    4.4952   -3.4120 H         1 <0>         0.0649
     30 N2         -0.6267    1.5824    1.2402 N.4       1 <0>        -0.3994
     31 H17        -1.1193    2.4634    1.0516 H         1 <0>         0.4238
@<TRIPOS>BOND
     1    1   15 1
     2    1   16 1
     3    1   17 1
     4    1   30 1
     5    2    3 1
     6    2   18 1
     7    2   19 1
     8    2   30 1
     9    3    4 1
    10    3   20 1
    11    3   21 1
    12    4    5 1
    13    4   22 1
    14    4   23 1
    15    5    6 1
    16    5    7 1
    17    5   30 1
    18    7   12 ar
    19    7    8 ar
    20    8    9 ar
    21    8   24 1
    22    9   10 ar
    23    9   25 1
    24   10   11 ar
    25   10   13 1
    26   11   12 ar
    27   12   26 1
    28   13   14 1
    29   14   27 1
    30   14   28 1
    31   14   29 1
    32   30   31 1
@<TRIPOS>MOLECULE
ZINC13444114
   30    31     0     0     0
SMALL
USER_CHARGES
2-methyl-5-[(2R)-1-methylpyrrolidin-2-yl]pyridine
@<TRIPOS>ATOM
      1 C1         -2.8863    3.1531   -4.5017 C.3       1 <0>        -0.1194
      2 C2         -2.1276    2.5873   -3.3289 C.ar      1 <0>         0.1611
      3 C3         -1.6346    1.2975   -3.3923 C.ar      1 <0>        -0.1579
      4 C4         -0.9335    0.7884   -2.3102 C.ar      1 <0>        -0.0377
      5 C5         -0.7631    1.5954   -1.1954 C.ar      1 <0>        -0.2027
      6 C6         -1.2851    2.8748   -1.2042 C.ar      1 <0>         0.1088
      7 N1         -1.9422    3.3281   -2.2541 N.ar      1 <0>        -0.4691
      8 C7         -0.0127    1.0858    0.0080 C.3       1 <0>         0.0852
      9 H1          0.0021   -0.0041    0.0020 H         1 <0>         0.1468
     10 C8          1.4278    1.6301   -0.0028 C.3       1 <0>        -0.1390
     11 C9          1.5695    2.4238    1.3162 C.3       1 <0>        -0.1485
     12 C10         0.4572    1.8162    2.2074 C.3       1 <0>        -0.0078
     13 C11        -1.5984    0.5837    1.7789 C.3       1 <0>        -0.0370
     14 H2         -2.1906    3.6453   -5.1812 H         1 <0>         0.0916
     15 H3         -3.3978    2.3464   -5.0268 H         1 <0>         0.0860
     16 H4         -3.6193    3.8768   -4.1452 H         1 <0>         0.0867
     17 H5         -1.7894    0.6957   -4.2756 H         1 <0>         0.1518
     18 H6         -0.5330   -0.2144   -2.3332 H         1 <0>         0.1475
     19 H7         -1.1531    3.5111   -0.3416 H         1 <0>         0.1481
     20 H8          2.1428    0.8077   -0.0281 H         1 <0>         0.1087
     21 H9          1.5770    2.2886   -0.8585 H         1 <0>         0.1052
     22 H10         2.5515    2.2614    1.7606 H         1 <0>         0.1193
     23 H11         1.3919    3.4860    1.1482 H         1 <0>         0.0988
     24 H12         0.7908    0.8796    2.6541 H         1 <0>         0.1370
     25 H13         0.1541    2.5230    2.9799 H         1 <0>         0.1407
     26 H14        -1.0689   -0.3431    1.9997 H         1 <0>         0.1222
     27 H15        -2.0539    0.9682    2.6915 H         1 <0>         0.1268
     28 H16        -2.3748    0.3910    1.0386 H         1 <0>         0.1212
     29 N2         -0.6267    1.5824    1.2402 N.4       1 <0>        -0.3992
     30 H17        -1.1193    2.4634    1.0516 H         1 <0>         0.4249
@<TRIPOS>BOND
     1    1    2 1
     2    1   14 1
     3    1   15 1
     4    1   16 1
     5    2    7 ar
     6    2    3 ar
     7    3    4 ar
     8    3   17 1
     9    4    5 ar
    10    4   18 1
    11    5    6 ar
    12    5    8 1
    13    6    7 ar
    14    6   19 1
    15    8    9 1
    16    8   10 1
    17    8   29 1
    18   10   11 1
    19   10   20 1
    20   10   21 1
    21   11   12 1
    22   11   22 1
    23   11   23 1
    24   12   24 1
    25   12   25 1
    26   12   29 1
    27   13   26 1
    28   13   27 1
    29   13   28 1
    30   13   29 1
    31   29   30 1
@<TRIPOS>MOLECULE
ZINC13444117
   30    31     0     0     0
SMALL
USER_CHARGES
2-methyl-5-[(2S)-1-methylpyrrolidin-2-yl]pyridine
@<TRIPOS>ATOM
      1 C1          2.3881    3.9818    0.0002 C.3       1 <0>        -0.1194
      2 C2          1.1105    3.1826    0.0081 C.ar      1 <0>         0.1613
      3 C3          1.1685    1.8016    0.0006 C.ar      1 <0>        -0.1582
      4 C4         -0.0126    1.0758    0.0080 C.ar      1 <0>        -0.0370
      5 C5         -1.2134    1.7694    0.0173 C.ar      1 <0>        -0.1998
      6 C6         -1.1928    3.1510    0.0299 C.ar      1 <0>         0.1106
      7 N1         -0.0498    3.8088    0.0225 N.ar      1 <0>        -0.4697
      8 C7         -2.5241    1.0257    0.0199 C.3       1 <0>         0.0885
      9 H1         -2.3858    0.0146    0.4027 H         1 <0>         0.1483
     10 C8         -3.1233    0.9857   -1.4023 C.3       1 <0>        -0.1418
     11 C9         -4.6451    1.1370   -1.2005 C.3       1 <0>        -0.1493
     12 C10        -4.8374    1.2556    0.3267 C.3       1 <0>        -0.0078
     13 C11        -3.3721    1.4606    2.2606 C.3       1 <0>        -0.0364
     14 H2          2.6865    4.1796   -1.0294 H         1 <0>         0.0915
     15 H3          2.2290    4.9264    0.5203 H         1 <0>         0.0866
     16 H4          3.1728    3.4174    0.5038 H         1 <0>         0.0859
     17 H5          2.1219    1.2944   -0.0112 H         1 <0>         0.1518
     18 H6          0.0021   -0.0041    0.0020 H         1 <0>         0.1475
     19 H7         -2.1237    3.6986    0.0413 H         1 <0>         0.1465
     20 H8         -2.7366    1.8116   -1.9994 H         1 <0>         0.1003
     21 H9         -2.8962    0.0338   -1.8821 H         1 <0>         0.1138
     22 H10        -5.0055    2.0371   -1.6985 H         1 <0>         0.1014
     23 H11        -5.1666    0.2585   -1.5806 H         1 <0>         0.1131
     24 H12        -5.6312    1.9666    0.5558 H         1 <0>         0.1399
     25 H13        -5.0651    0.2809    0.7581 H         1 <0>         0.1349
     26 H14        -2.3767    1.7641    2.5849 H         1 <0>         0.1216
     27 H15        -4.1227    2.0078    2.8310 H         1 <0>         0.1271
     28 H16        -3.4980    0.3907    2.4271 H         1 <0>         0.1211
     29 N2         -3.5423    1.7388    0.7996 N.4       1 <0>        -0.3981
     30 H17        -3.4649    2.7498    0.6378 H         1 <0>         0.4255
@<TRIPOS>BOND
     1    1    2 1
     2    1   14 1
     3    1   15 1
     4    1   16 1
     5    2    7 ar
     6    2    3 ar
     7    3    4 ar
     8    3   17 1
     9    4    5 ar
    10    4   18 1
    11    5    6 ar
    12    5    8 1
    13    6    7 ar
    14    6   19 1
    15    8    9 1
    16    8   10 1
    17    8   29 1
    18   10   11 1
    19   10   20 1
    20   10   21 1
    21   11   12 1
    22   11   22 1
    23   11   23 1
    24   12   24 1
    25   12   25 1
    26   12   29 1
    27   13   26 1
    28   13   27 1
    29   13   28 1
    30   13   29 1
    31   29   30 1
@<TRIPOS>MOLECULE
ZINC00391812
   27    28     0     0     0
SMALL
USER_CHARGES

@<TRIPOS>ATOM
      1 C1          0.3944    1.5372   -0.0882 C.3       1 <0>        -0.0517
      2 N1          0.2218    0.0783   -0.0924 N.4       1 <0>        -0.3878
      3 C2          0.9063   -0.4989   -1.2638 C.3       1 <0>        -0.0125
      4 C3          1.9925   -1.4575   -0.7321 C.3       1 <0>        -0.1421
      5 C4          2.2411   -0.9393    0.7089 C.3       1 <0>        -0.1364
      6 C5          0.8181   -0.4968    1.1321 C.3       1 <0>         0.0811
      7 H1          0.2382   -1.3559    1.4692 H         1 <0>         0.1507
      8 C6          0.8940    0.5453    2.2181 C.ar      1 <0>        -0.2036
      9 C7          1.8431    1.5545    2.1577 C.ar      1 <0>        -0.0573
     10 C8          1.8760    2.4913    3.1790 C.ar      1 <0>        -0.1660
     11 C9          0.9680    2.3891    4.2162 C.ar      1 <0>         0.1377
     12 N2          0.0793    1.4154    4.2410 N.ar      1 <0>        -0.4739
     13 C10         0.0150    0.5105    3.2837 C.ar      1 <0>         0.1353
     14 H2          1.4576    1.7772   -0.0812 H         1 <0>         0.1215
     15 H3         -0.0678    1.9603   -0.9800 H         1 <0>         0.1243
     16 H4         -0.0786    1.9564    0.7999 H         1 <0>         0.1209
     17 H5          0.1926   -1.0502   -1.8760 H         1 <0>         0.1353
     18 H6          1.3676    0.2945   -1.8519 H         1 <0>         0.1319
     19 H7          1.6257   -2.4838   -0.7146 H         1 <0>         0.1029
     20 H8          2.9001   -1.3816   -1.3309 H         1 <0>         0.1144
     21 H9          2.6094   -1.7378    1.3529 H         1 <0>         0.1203
     22 H10         2.9285   -0.0933    0.7065 H         1 <0>         0.0978
     23 H11         2.5404    1.6091    1.3347 H         1 <0>         0.1428
     24 H12         2.6020    3.2907    3.1646 H         1 <0>         0.1512
     25 H13         0.9870    3.1149    5.0157 H         1 <0>         0.1712
     26 H14        -0.7302   -0.2695    3.3356 H         1 <0>         0.1637
     27 H15        -0.7608   -0.1480   -0.1301 H         1 <0>         0.4285
@<TRIPOS>BOND
     1    1    2 1
     2    1   14 1
     3    1   15 1
     4    1   16 1
     5    2    6 1
     6    2    3 1
     7    2   27 1
     8    3    4 1
     9    3   17 1
    10    3   18 1
    11    4    5 1
    12    4   19 1
    13    4   20 1
    14    5    6 1
    15    5   21 1
    16    5   22 1
    17    6    7 1
    18    6    8 1
    19    8   13 ar
    20    8    9 ar
    21    9   10 ar
    22    9   23 1
    23   10   11 ar
    24   10   24 1
    25   11   12 ar
    26   11   25 1
    27   12   13 ar
    28   13   26 1
@<TRIPOS>MOLECULE
ZINC13819654
   24    24     0     0     0
SMALL
USER_CHARGES
2-[(5-chloro-3-pyridyl)oxy]-N-methyl-ethanamine
@<TRIPOS>ATOM
      1 C1         -1.3707    3.5816   -2.4663 C.3       1 <0>        -0.0437
      2 C2         -0.7527    1.5927   -1.2315 C.3       1 <0>         0.0044
      3 C3         -0.0127    1.0858    0.0080 C.3       1 <0>         0.0194
      4 O1         -0.6816    1.5467    1.1837 O.3       1 <0>        -0.3214
      5 C4         -0.1488    1.1821    2.3797 C.ar      1 <0>         0.0750
      6 C5         -0.7416    1.5908    3.5700 C.ar      1 <0>        -0.0911
      7 C6         -0.1619    1.1934    4.7650 C.ar      1 <0>        -0.0511
      8 C7          0.9782    0.4096    4.7344 C.ar      1 <0>         0.0965
      9 N1          1.5141    0.0396    3.5881 N.ar      1 <0>        -0.4282
     10 C8          0.9906    0.3925    2.4307 C.ar      1 <0>         0.0292
     11 Cl1        -0.8581    1.6726    6.2814 Cl        1 <0>        -0.0230
     12 H1         -0.9181    3.1718   -3.3693 H         1 <0>         0.1244
     13 H2         -2.4208    3.2925   -2.4229 H         1 <0>         0.1242
     14 H3         -1.2935    4.6688   -2.4824 H         1 <0>         0.1273
     15 H4         -0.2958    1.1691   -2.1259 H         1 <0>         0.1540
     16 H5         -1.7985    1.2898   -1.1795 H         1 <0>         0.1439
     17 H6          0.0021   -0.0041    0.0020 H         1 <0>         0.1147
     18 H7          1.0099    1.4631    0.0003 H         1 <0>         0.0924
     19 H8         -1.6314    2.2028    3.5633 H         1 <0>         0.1572
     20 H9          1.4348    0.0966    5.6618 H         1 <0>         0.1770
     21 H10         1.4559    0.0662    1.5123 H         1 <0>         0.1647
     22 N2         -0.6645    3.0644   -1.2791 N.4       1 <0>        -0.5218
     23 H11        -1.0928    3.4569   -0.4325 H         1 <0>         0.4411
     24 H12         0.3227    3.3432   -1.3240 H         1 <0>         0.4349
@<TRIPOS>BOND
     1    1   12 1
     2    1   13 1
     3    1   14 1
     4    1   22 1
     5    2    3 1
     6    2   15 1
     7    2   16 1
     8    2   22 1
     9    3    4 1
    10    3   17 1
    11    3   18 1
    12    4    5 1
    13    5   10 ar
    14    5    6 ar
    15    6    7 ar
    16    6   19 1
    17    7    8 ar
    18    7   11 1
    19    8    9 ar
    20    8   20 1
    21    9   10 ar
    22   10   21 1
    23   22   23 1
    24   22   24 1
@<TRIPOS>MOLECULE
ZINC13738853
   31    32     0     0     0
SMALL
USER_CHARGES
[(2S,3S)-1-methyl-2-(3-pyridyl)pyrrolidin-3-yl]methanol
@<TRIPOS>ATOM
      1 C1          3.9438    0.3101    1.6507 C.3       1 <0>        -0.0434
      2 C2          5.7250    0.8628    0.0943 C.3       1 <0>        -0.0107
      3 C3          5.7532    1.7741   -1.1580 C.3       1 <0>        -0.1356
      4 C4          4.2414    2.0320   -1.3921 C.3       1 <0>        -0.1003
      5 H1          3.7904    1.2065   -1.9428 H         1 <0>         0.1153
      6 C5          3.6752    2.1053    0.0416 C.3       1 <0>         0.0850
      7 H2          3.5893    3.1453    0.3562 H         1 <0>         0.1474
      8 C6          2.3236    1.4409    0.0936 C.ar      1 <0>        -0.1988
      9 C7          2.1527    0.1571   -0.4020 C.ar      1 <0>        -0.0601
     10 C8          0.8915   -0.4143   -0.3332 C.ar      1 <0>        -0.1630
     11 C9         -0.1465    0.3097    0.2227 C.ar      1 <0>         0.1367
     12 N1          0.0525    1.5290    0.6834 N.ar      1 <0>        -0.4717
     13 C10         1.2385    2.1039    0.6344 C.ar      1 <0>         0.1346
     14 C11         4.0260    3.3564   -2.1272 C.3       1 <0>         0.0849
     15 O1          4.4530    3.2229   -3.4844 O.3       1 <0>        -0.5675
     16 H3          3.6582   -0.4764    0.9522 H         1 <0>         0.1222
     17 H4          4.6197   -0.0989    2.4017 H         1 <0>         0.1250
     18 H5          3.0524    0.7031    2.1397 H         1 <0>         0.1208
     19 H6          6.6690    0.9313    0.6348 H         1 <0>         0.1391
     20 H7          5.5246   -0.1696   -0.1920 H         1 <0>         0.1327
     21 H8          6.2808    2.7053   -0.9515 H         1 <0>         0.1015
     22 H9          6.1977    1.2561   -2.0079 H         1 <0>         0.1221
     23 H10         2.9825   -0.3848   -0.8310 H         1 <0>         0.1400
     24 H11         0.7231   -1.4141   -0.7052 H         1 <0>         0.1513
     25 H12        -1.1320   -0.1283    0.2800 H         1 <0>         0.1714
     26 H13         1.3631    3.1042    1.0219 H         1 <0>         0.1638
     27 H14         2.9680    3.6174   -2.1032 H         1 <0>         0.0589
     28 H15         4.6049    4.1408   -1.6397 H         1 <0>         0.0583
     29 H16         4.3453    4.0264   -4.0114 H         1 <0>         0.3975
     30 N2          4.6287    1.4079    0.9196 N.4       1 <0>        -0.3926
     31 H17         5.0141    2.0740    1.5994 H         1 <0>         0.4353
@<TRIPOS>BOND
     1    1   16 1
     2    1   17 1
     3    1   18 1
     4    1   30 1
     5    2    3 1
     6    2   19 1
     7    2   20 1
     8    2   30 1
     9    3    4 1
    10    3   21 1
    11    3   22 1
    12    4    5 1
    13    4    6 1
    14    4   14 1
    15    6    7 1
    16    6    8 1
    17    6   30 1
    18    8   13 ar
    19    8    9 ar
    20    9   10 ar
    21    9   23 1
    22   10   11 ar
    23   10   24 1
    24   11   12 ar
    25   11   25 1
    26   12   13 ar
    27   13   26 1
    28   14   15 1
    29   14   27 1
    30   14   28 1
    31   15   29 1
    32   30   31 1
@<TRIPOS>MOLECULE
ZINC13819619
   27    27     0     0     0
SMALL
USER_CHARGES
2-[(6-chloro-3-pyridyl)oxy]-N,N-dimethyl-ethanamine
@<TRIPOS>ATOM
      1 C1         -2.5004   -3.0329   -2.3944 C.3       1 <0>        -0.0496
      2 C2         -4.5712   -2.7709   -1.1674 C.3       1 <0>        -0.0427
      3 C3         -2.4555   -2.7493    0.0098 C.3       1 <0>         0.0043
      4 C4         -1.0547   -2.1341    0.0003 C.3       1 <0>         0.0179
      5 O1         -1.1602   -0.7090    0.0089 O.3       1 <0>        -0.3202
      6 C5          0.0021   -0.0041    0.0020 C.ar      1 <0>         0.0627
      7 C6         -0.0168    1.3874    0.0097 C.ar      1 <0>        -0.0816
      8 C7          1.1925    2.0624    0.0017 C.ar      1 <0>        -0.1108
      9 C8          2.3710    1.3367   -0.0129 C.ar      1 <0>         0.1523
     10 N1          2.3532    0.0176   -0.0199 N.ar      1 <0>        -0.4397
     11 C9          1.2227   -0.6615   -0.0132 C.ar      1 <0>         0.0465
     12 Cl1         3.8921    2.1732   -0.0230 Cl        1 <0>        -0.0072
     13 H1         -2.5153   -4.1162   -2.2748 H         1 <0>         0.1268
     14 H2         -3.0351   -2.7605   -3.3043 H         1 <0>         0.1262
     15 H3         -1.4683   -2.6891   -2.4627 H         1 <0>         0.1189
     16 H4         -5.0446   -2.2366   -0.3437 H         1 <0>         0.1232
     17 H5         -5.0620   -2.5040   -2.1033 H         1 <0>         0.1245
     18 H6         -4.6612   -3.8447   -1.0033 H         1 <0>         0.1248
     19 H7         -2.3758   -3.8332    0.0928 H         1 <0>         0.1535
     20 H8         -3.0174   -2.3602    0.8589 H         1 <0>         0.1426
     21 H9         -0.5236   -2.4537   -0.8964 H         1 <0>         0.0910
     22 H10        -0.5073   -2.4632    0.8835 H         1 <0>         0.1136
     23 H11        -0.9518    1.9278    0.0171 H         1 <0>         0.1576
     24 H12         1.2156    3.1421    0.0070 H         1 <0>         0.1620
     25 H13         1.2480   -1.7412   -0.0192 H         1 <0>         0.1661
     26 N2         -3.1490   -2.3750   -1.2407 N.4       1 <0>        -0.4005
     27 H14        -3.0920   -1.3571   -1.3618 H         1 <0>         0.4378
@<TRIPOS>BOND
     1    1   13 1
     2    1   14 1
     3    1   15 1
     4    1   26 1
     5    2   16 1
     6    2   17 1
     7    2   18 1
     8    2   26 1
     9    3    4 1
    10    3   19 1
    11    3   20 1
    12    3   26 1
    13    4    5 1
    14    4   21 1
    15    4   22 1
    16    5    6 1
    17    6   11 ar
    18    6    7 ar
    19    7    8 ar
    20    7   23 1
    21    8    9 ar
    22    8   24 1
    23    9   10 ar
    24    9   12 1
    25   10   11 ar
    26   11   25 1
    27   26   27 1
@<TRIPOS>MOLECULE
ZINC13819662
   27    27     0     0     0
SMALL
USER_CHARGES
N-methyl-2-[(6-methyl-3-pyridyl)oxy]ethanamine
@<TRIPOS>ATOM
      1 C1          0.9185   -6.0341    1.7137 C.3       1 <0>        -0.1103
      2 C2          0.8400   -4.5334    1.6015 C.ar      1 <0>         0.1144
      3 C3          1.3197   -3.7464    2.6320 C.ar      1 <0>        -0.1296
      4 C4          1.2444   -2.3675    2.5213 C.ar      1 <0>        -0.0911
      5 C5          0.6846   -1.8263    1.3682 C.ar      1 <0>         0.0495
      6 C6          0.2196   -2.6812    0.3799 C.ar      1 <0>         0.0336
      7 N1          0.3151   -3.9885    0.5217 N.ar      1 <0>        -0.4493
      8 O1          0.5895   -0.4792    1.2150 O.3       1 <0>        -0.3251
      9 C7          0.0021   -0.0041    0.0020 C.3       1 <0>         0.0204
     10 C8         -0.0187    1.5258    0.0104 C.3       1 <0>         0.0046
     11 C9          1.3788    3.5031    0.0077 C.3       1 <0>        -0.0435
     12 H1          0.0105   -6.4113    2.1841 H         1 <0>         0.0845
     13 H2          1.0197   -6.4681    0.7190 H         1 <0>         0.0818
     14 H3          1.7823   -6.3085    2.3193 H         1 <0>         0.0809
     15 H4          1.7484   -4.2012    3.5127 H         1 <0>         0.1507
     16 H5          1.6110   -1.7283    3.3109 H         1 <0>         0.1464
     17 H6         -0.2208   -2.2717   -0.5172 H         1 <0>         0.1567
     18 H7         -1.0175   -0.3808   -0.0798 H         1 <0>         0.1118
     19 H8          0.5883   -0.3548   -0.8473 H         1 <0>         0.0895
     20 H9         -0.5459    1.8868   -0.8726 H         1 <0>         0.1524
     21 H10        -0.5289    1.8773    0.9072 H         1 <0>         0.1428
     22 H11         2.4110    3.8530   -0.0003 H         1 <0>         0.1269
     23 H12         0.8613    3.8779   -0.8754 H         1 <0>         0.1240
     24 H13         0.8783    3.8683    0.9045 H         1 <0>         0.1239
     25 N2          1.3682    2.0280   -0.0001 N.4       1 <0>        -0.5214
     26 H14         1.8443    1.6904   -0.8449 H         1 <0>         0.4346
     27 H15         1.8603    1.6814    0.8317 H         1 <0>         0.4411
@<TRIPOS>BOND
     1    1    2 1
     2    1   12 1
     3    1   13 1
     4    1   14 1
     5    2    7 ar
     6    2    3 ar
     7    3    4 ar
     8    3   15 1
     9    4    5 ar
    10    4   16 1
    11    5    6 ar
    12    5    8 1
    13    6    7 ar
    14    6   17 1
    15    8    9 1
    16    9   10 1
    17    9   18 1
    18    9   19 1
    19   10   20 1
    20   10   21 1
    21   10   25 1
    22   11   22 1
    23   11   23 1
    24   11   24 1
    25   11   25 1
    26   25   26 1
    27   25   27 1
@<TRIPOS>MOLECULE
ZINC08463982
   51    53     0     0     0
SMALL
USER_CHARGES

@<TRIPOS>ATOM
      1 C1          0.0361    1.3742    0.2084 C.3       1 <0>        -0.0657
      2 N1          0.0292   -0.0915    0.1098 N.4       1 <0>        -0.3786
      3 C2         -1.3262   -0.5915    0.3693 C.3       1 <0>         0.0382
      4 H1         -1.6159   -0.3418    1.3900 H         1 <0>         0.1457
      5 C3         -1.3569   -2.1107    0.1882 C.3       1 <0>        -0.1440
      6 C4         -0.3760   -2.7563    1.1712 C.3       1 <0>        -0.1320
      7 C5          1.0209   -2.1725    0.9408 C.3       1 <0>        -0.1440
      8 C6          0.9635   -0.6511    1.0939 C.3       1 <0>         0.0380
      9 H2          0.6250   -0.4000    2.0992 H         1 <0>         0.1456
     10 C7          2.3573   -0.0631    0.8648 C.3       1 <0>        -0.1972
     11 C8          3.2832   -0.5238    1.9609 C.2       1 <0>         0.4108
     12 O1          2.8471   -1.1639    2.8938 O.2       1 <0>        -0.4386
     13 C9          4.7168   -0.1968    1.8990 C.ar      1 <0>        -0.1843
     14 C10         5.2226    0.5462    0.8276 C.ar      1 <0>        -0.0760
     15 C11         6.5669    0.8489    0.7771 C.ar      1 <0>        -0.1304
     16 C12         7.4149    0.4195    1.7830 C.ar      1 <0>        -0.0739
     17 C13         6.9221   -0.3167    2.8464 C.ar      1 <0>        -0.1275
     18 C14         5.5793   -0.6226    2.9143 C.ar      1 <0>        -0.0531
     19 C15        -2.3050    0.0576   -0.6113 C.3       1 <0>        -0.1966
     20 C16        -3.7137   -0.3378   -0.2506 C.2       1 <0>         0.4107
     21 O2         -3.9244   -0.9789    0.7568 O.2       1 <0>        -0.4388
     22 C17        -4.8338    0.0543   -1.1210 C.ar      1 <0>        -0.1843
     23 C18        -4.5943    0.7888   -2.2867 C.ar      1 <0>        -0.0760
     24 C19        -5.6490    1.1519   -3.0973 C.ar      1 <0>        -0.1305
     25 C20        -6.9419    0.7915   -2.7598 C.ar      1 <0>        -0.0739
     26 C21        -7.1872    0.0650   -1.6075 C.ar      1 <0>        -0.1275
     27 C22        -6.1426   -0.3106   -0.7896 C.ar      1 <0>        -0.0532
     28 H3          1.0544    1.7420    0.0823 H         1 <0>         0.1293
     29 H4         -0.6008    1.7937   -0.5702 H         1 <0>         0.1289
     30 H5         -0.3401    1.6742    1.1864 H         1 <0>         0.1263
     31 H6         -2.3637   -2.4802    0.3831 H         1 <0>         0.1199
     32 H7         -1.0676   -2.3615   -0.8323 H         1 <0>         0.0868
     33 H8         -0.6940   -2.5484    2.1929 H         1 <0>         0.0847
     34 H9         -0.3523   -3.8337    1.0077 H         1 <0>         0.0967
     35 H10         1.7137   -2.5862    1.6736 H         1 <0>         0.1202
     36 H11         1.3595   -2.4246   -0.0641 H         1 <0>         0.0868
     37 H12         2.7395   -0.3994   -0.0990 H         1 <0>         0.1238
     38 H13         2.2983    1.0253    0.8726 H         1 <0>         0.1256
     39 H14         4.5621    0.8817    0.0417 H         1 <0>         0.1278
     40 H15         6.9591    1.4223   -0.0498 H         1 <0>         0.1342
     41 H16         8.4669    0.6597    1.7378 H         1 <0>         0.1345
     42 H17         7.5902   -0.6485    3.6274 H         1 <0>         0.1361
     43 H18         5.1954   -1.1932    3.7470 H         1 <0>         0.1368
     44 H19        -2.2070    1.1419   -0.5583 H         1 <0>         0.1251
     45 H20        -2.0813   -0.2784   -1.6238 H         1 <0>         0.1236
     46 H21        -3.5860    1.0711   -2.5513 H         1 <0>         0.1278
     47 H22        -5.4657    1.7195   -3.9977 H         1 <0>         0.1342
     48 H23        -7.7638    1.0789   -3.3987 H         1 <0>         0.1345
     49 H24        -8.1989   -0.2122   -1.3507 H         1 <0>         0.1361
     50 H25        -6.3350   -0.8813    0.1069 H         1 <0>         0.1368
     51 H26         0.3151   -0.3665   -0.8180 H         1 <0>         0.4206
@<TRIPOS>BOND
     1    1    2 1
     2    1   28 1
     3    1   29 1
     4    1   30 1
     5    2    8 1
     6    2    3 1
     7    2   51 1
     8    3    4 1
     9    3    5 1
    10    3   19 1
    11    5    6 1
    12    5   31 1
    13    5   32 1
    14    6    7 1
    15    6   33 1
    16    6   34 1
    17    7    8 1
    18    7   35 1
    19    7   36 1
    20    8    9 1
    21    8   10 1
    22   10   11 1
    23   10   37 1
    24   10   38 1
    25   11   12 2
    26   11   13 1
    27   13   18 ar
    28   13   14 ar
    29   14   15 ar
    30   14   39 1
    31   15   16 ar
    32   15   40 1
    33   16   17 ar
    34   16   41 1
    35   17   18 ar
    36   17   42 1
    37   18   43 1
    38   19   20 1
    39   19   44 1
    40   19   45 1
    41   20   21 2
    42   20   22 1
    43   22   27 ar
    44   22   23 ar
    45   23   24 ar
    46   23   46 1
    47   24   25 ar
    48   24   47 1
    49   25   26 ar
    50   25   48 1
    51   26   27 ar
    52   26   49 1
    53   27   50 1
@<TRIPOS>MOLECULE
ZINC04716433
   23    23     0     0     0
SMALL
USER_CHARGES
N,N-dimethyl-1-(3-pyridyl)methanamine
@<TRIPOS>ATOM
      1 C1          1.7797    5.1400   -2.0551 C.3       1 <0>        -0.0480
      2 C2          4.1067    4.8734   -1.4415 C.3       1 <0>        -0.0428
      3 C3          2.3671    4.0041    0.0009 C.3       1 <0>         0.0539
      4 C4          1.1060    3.1790    0.0081 C.ar      1 <0>        -0.2228
      5 C5          1.1732    1.7939    0.0005 C.ar      1 <0>        -0.0473
      6 C6         -0.0126    1.0758    0.0080 C.ar      1 <0>        -0.1654
      7 C7         -1.2139    1.7594    0.0173 C.ar      1 <0>         0.1379
      8 N1         -1.2397    3.0777    0.0299 N.ar      1 <0>        -0.4759
      9 C8         -0.1318    3.7931    0.0227 C.ar      1 <0>         0.1303
     10 H1          1.7014    6.0863   -1.5198 H         1 <0>         0.1262
     11 H2          2.0983    5.3279   -3.0804 H         1 <0>         0.1245
     12 H3          0.8088    4.6446   -2.0613 H         1 <0>         0.1176
     13 H4          4.8275    4.1842   -1.0016 H         1 <0>         0.1222
     14 H5          4.3760    5.0669   -2.4798 H         1 <0>         0.1238
     15 H6          4.1127    5.8100   -0.8839 H         1 <0>         0.1249
     16 H7          2.1885    4.9452    0.5212 H         1 <0>         0.1409
     17 H8          3.1629    3.4557    0.5049 H         1 <0>         0.1377
     18 H9          2.1266    1.2867   -0.0113 H         1 <0>         0.1450
     19 H10         0.0021   -0.0041    0.0020 H         1 <0>         0.1515
     20 H11        -2.1422    1.2074    0.0190 H         1 <0>         0.1715
     21 H12        -0.1926    4.8713    0.0287 H         1 <0>         0.1620
     22 N2          2.7652    4.2542   -1.4004 N.4       1 <0>        -0.3976
     23 H13         2.7953    3.3595   -1.9033 H         1 <0>         0.4298
@<TRIPOS>BOND
     1    1   10 1
     2    1   11 1
     3    1   12 1
     4    1   22 1
     5    2   13 1
     6    2   14 1
     7    2   15 1
     8    2   22 1
     9    3    4 1
    10    3   16 1
    11    3   17 1
    12    3   22 1
    13    4    9 ar
    14    4    5 ar
    15    5    6 ar
    16    5   18 1
    17    6    7 ar
    18    6   19 1
    19    7    8 ar
    20    7   20 1
    21    8    9 ar
    22    9   21 1
    23   22   23 1
@<TRIPOS>MOLECULE
ZINC12397616
   27    28     0     0     0
SMALL
USER_CHARGES
3-ethyl-5-[(2S)-pyrrolidin-2-yl]isoxazole
@<TRIPOS>ATOM
      1 C1         -0.7288    1.5792    1.2668 C.3       1 <0>        -0.1533
      2 C2         -0.0127    1.0858    0.0080 C.3       1 <0>        -0.0553
      3 C3         -0.7416    1.5850   -1.2129 C.2       1 <0>         0.0327
      4 C4         -0.1928    2.3318   -2.2806 C.2       1 <0>        -0.1575
      5 C5         -1.2413    2.5291   -3.1150 C.2       1 <0>        -0.1179
      6 O1         -2.2972    1.9312   -2.5456 O.3       1 <0>         0.1081
      7 N1         -1.9999    1.4093   -1.4961 N.2       1 <0>        -0.3268
      8 C6         -1.2241    3.2734   -4.4253 C.3       1 <0>         0.1366
      9 H1         -0.2121    3.3079   -4.8287 H         1 <0>         0.1701
     10 C7         -1.7789    4.7021   -4.2402 C.3       1 <0>        -0.1446
     11 C8         -2.5834    4.9892   -5.5247 C.3       1 <0>        -0.1494
     12 C9         -2.4471    3.7097   -6.3778 C.3       1 <0>        -0.0064
     13 H2         -0.7436    2.6691    1.2728 H         1 <0>         0.0581
     14 H3         -1.7514    1.2020    1.2746 H         1 <0>         0.0621
     15 H4         -0.2017    1.2182    2.1499 H         1 <0>         0.0741
     16 H5          0.0021   -0.0041    0.0020 H         1 <0>         0.0929
     17 H6          1.0099    1.4631    0.0003 H         1 <0>         0.0950
     18 H7          0.8266    2.6668   -2.4028 H         1 <0>         0.1866
     19 H8         -2.4307    4.7451   -3.3677 H         1 <0>         0.1043
     20 H9         -0.9611    5.4156   -4.1384 H         1 <0>         0.1201
     21 H10        -3.6302    5.1730   -5.2826 H         1 <0>         0.1041
     22 H11        -2.1617    5.8446   -6.0524 H         1 <0>         0.1162
     23 H12        -3.3804    3.4999   -6.9002 H         1 <0>         0.1461
     24 H13        -1.6286    3.8132   -7.0901 H         1 <0>         0.1389
     25 N2         -2.1374    2.6693   -5.3962 N.4       1 <0>        -0.5157
     26 H14        -2.9961    2.3560   -4.9284 H         1 <0>         0.4401
     27 H15        -1.6874    1.8696   -5.8568 H         1 <0>         0.4406
@<TRIPOS>BOND
     1    1    2 1
     2    1   13 1
     3    1   14 1
     4    1   15 1
     5    2    3 1
     6    2   16 1
     7    2   17 1
     8    3    7 2
     9    3    4 1
    10    4    5 2
    11    4   18 1
    12    5    6 1
    13    5    8 1
    14    6    7 1
    15    8    9 1
    16    8   10 1
    17    8   25 1
    18   10   11 1
    19   10   19 1
    20   10   20 1
    21   11   12 1
    22   11   21 1
    23   11   22 1
    24   12   23 1
    25   12   24 1
    26   12   25 1
    27   25   26 1
    28   25   27 1
@<TRIPOS>MOLECULE
ZINC13283285
   24    25     0     0     0
SMALL
USER_CHARGES
3-(4,5-dihydro-1H-imidazol-2-ylmethyl)pyridine
@<TRIPOS>ATOM
      1 C1         -4.1349    1.3362   -1.0985 C.ar      1 <0>        -0.1652
      2 C2         -3.0290    0.5020   -1.1621 C.ar      1 <0>        -0.0571
      3 C3         -2.4575    0.0723    0.0256 C.ar      1 <0>        -0.2030
      4 C4         -3.0084    0.4825    1.2252 C.ar      1 <0>         0.1209
      5 N1         -4.0575    1.2810    1.2476 N.ar      1 <0>        -0.4745
      6 C5         -4.6271    1.7089    0.1377 C.ar      1 <0>         0.1282
      7 C6         -1.2548   -0.8355    0.0091 C.3       1 <0>        -0.0547
      8 C7          0.0021   -0.0041    0.0020 C.cat     1 <0>         0.5145
      9 C8          1.3571    1.8042   -0.0012 C.3       1 <0>         0.0496
     10 C9          2.2372    0.5378   -0.0164 C.3       1 <0>         0.0667
     11 N2          1.2489   -0.5542   -0.0128 N.pl3     1 <0>        -0.6637
     12 H1         -4.6058    1.6899   -2.0038 H         1 <0>         0.1496
     13 H2         -2.6228    0.1941   -2.1142 H         1 <0>         0.1436
     14 H3         -2.5716    0.1489    2.1549 H         1 <0>         0.1620
     15 H4         -5.4881    2.3583    0.1958 H         1 <0>         0.1696
     16 H5         -1.2827   -1.4594   -0.8843 H         1 <0>         0.1441
     17 H6         -1.2660   -1.4696    0.8956 H         1 <0>         0.1459
     18 H7          1.5311    2.4019   -0.8959 H         1 <0>         0.1281
     19 H8          1.5483    2.3923    0.8964 H         1 <0>         0.1286
     20 H9          2.8637    0.4934    0.8744 H         1 <0>         0.1228
     21 H10         2.8486    0.5012   -0.9180 H         1 <0>         0.1227
     22 H11         1.4509   -1.5029   -0.0202 H         1 <0>         0.4590
     23 N3         -0.0192    1.2808    0.0092 N.pl3     1 <0>        -0.6106
     24 H12        -0.8693    1.8566    0.0204 H         1 <0>         0.4726
@<TRIPOS>BOND
     1    1    6 ar
     2    1    2 ar
     3    1   12 1
     4    2    3 ar
     5    2   13 1
     6    3    4 ar
     7    3    7 1
     8    4    5 ar
     9    4   14 1
    10    5    6 ar
    11    6   15 1
    12    7    8 1
    13    7   16 1
    14    7   17 1
    15    8   11 1
    16    8   23 2
    17    9   10 1
    18    9   18 1
    19    9   19 1
    20    9   23 1
    21   10   11 1
    22   10   20 1
    23   10   21 1
    24   11   22 1
    25   23   24 1
@<TRIPOS>MOLECULE
ZINC13611482
   33    34     0     0     0
SMALL
USER_CHARGES
3-ethynyl-5-[[(2S)-1-methylpyrrolidin-2-yl]methoxy]pyridine
@<TRIPOS>ATOM
      1 C1         -3.0878    2.3839    1.5872 C.3       1 <0>        -0.0362
      2 C2         -0.8009    1.6167    1.2317 C.3       1 <0>        -0.0070
      3 C3         -0.0127    1.0858    0.0080 C.3       1 <0>        -0.1484
      4 C4         -0.8223    1.6286   -1.1920 C.3       1 <0>        -0.1399
      5 C5         -2.2314    1.9037   -0.6350 C.3       1 <0>         0.0333
      6 H1         -2.4649    2.9648   -0.7234 H         1 <0>         0.1516
      7 C6         -3.2650    1.0734   -1.3987 C.3       1 <0>         0.0340
      8 O1         -4.5778    1.4215   -0.9545 O.3       1 <0>        -0.3195
      9 C7         -5.6191    0.7704   -1.5368 C.ar      1 <0>         0.0655
     10 C8         -6.9251    1.0535   -1.1586 C.ar      1 <0>        -0.0809
     11 C9         -7.9620    0.3572   -1.7875 C.ar      1 <0>         0.0173
     12 C10        -7.6456   -0.5884   -2.7640 C.ar      1 <0>         0.1039
     13 N1         -6.3919   -0.8234   -3.0906 N.ar      1 <0>        -0.4399
     14 C11        -5.3905   -0.1815   -2.5209 C.ar      1 <0>         0.0297
     15 C12        -9.3267    0.6101   -1.4350 C.1       1 <0>        -0.1834
     16 C13       -10.4455    0.8175   -1.1459 C.1       1 <0>        -0.1169
     17 H2         -4.1102    2.3192    1.2148 H         1 <0>         0.1289
     18 H3         -3.0608    2.0703    2.6308 H         1 <0>         0.1233
     19 H4         -2.7367    3.4128    1.5078 H         1 <0>         0.1195
     20 H5         -0.6178    0.9936    2.1071 H         1 <0>         0.1401
     21 H6         -0.5403    2.6552    1.4361 H         1 <0>         0.1359
     22 H7          0.0021   -0.0041    0.0020 H         1 <0>         0.0999
     23 H8          1.0019    1.4840    0.0005 H         1 <0>         0.1194
     24 H9         -0.3756    2.5508   -1.5636 H         1 <0>         0.1127
     25 H10        -0.8682    0.8829   -1.9857 H         1 <0>         0.1091
     26 H11        -3.1769    1.2759   -2.4660 H         1 <0>         0.1129
     27 H12        -3.0880    0.0138   -1.2141 H         1 <0>         0.0900
     28 H13        -7.1344    1.7917   -0.3985 H         1 <0>         0.1492
     29 H14        -8.4374   -1.1328   -3.2571 H         1 <0>         0.1713
     30 H15        -4.3771   -0.4026   -2.8218 H         1 <0>         0.1600
     31 H16       -11.4462    1.0029   -0.8874 H         1 <0>         0.2326
     32 N2         -2.1941    1.5010    0.7758 N.4       1 <0>        -0.3968
     33 H17        -2.5082    0.5278    0.8675 H         1 <0>         0.4286
@<TRIPOS>BOND
     1    1   17 1
     2    1   18 1
     3    1   19 1
     4    1   32 1
     5    2    3 1
     6    2   20 1
     7    2   21 1
     8    2   32 1
     9    3    4 1
    10    3   22 1
    11    3   23 1
    12    4    5 1
    13    4   24 1
    14    4   25 1
    15    5    6 1
    16    5    7 1
    17    5   32 1
    18    7    8 1
    19    7   26 1
    20    7   27 1
    21    8    9 1
    22    9   14 ar
    23    9   10 ar
    24   10   11 ar
    25   10   28 1
    26   11   12 ar
    27   11   15 1
    28   12   13 ar
    29   12   29 1
    30   13   14 ar
    31   14   30 1
    32   15   16 3
    33   16   31 1
    34   32   33 1
@<TRIPOS>MOLECULE
ZINC01444851
   25    26     0     0     0
SMALL
USER_CHARGES

@<TRIPOS>ATOM
      1 C1         -0.0167    1.3781    0.0096 C.ar      1 <0>        -0.0919
      2 C2          1.1709    2.0855    0.0021 C.ar      1 <0>        -0.1038
      3 C3          2.3773    1.4107   -0.0130 C.ar      1 <0>        -0.0885
      4 C4          2.3960    0.0285   -0.0201 C.ar      1 <0>        -0.1404
      5 C5          1.2084   -0.6789   -0.0117 C.ar      1 <0>        -0.1270
      6 C6          0.0021   -0.0041    0.0020 C.ar      1 <0>        -0.1026
      7 C7          3.7112   -0.7071   -0.0376 C.3       1 <0>         0.0801
      8 H1          4.5091   -0.0484   -0.3805 H         1 <0>         0.1490
      9 C8          4.0377   -1.2616    1.3715 C.3       1 <0>        -0.1343
     10 C9          4.9897   -2.4386    1.0323 C.3       1 <0>        -0.1439
     11 C10         4.4071   -2.9878   -0.2870 C.3       1 <0>        -0.0106
     12 N1          3.6214   -1.9014   -0.9044 N.4       1 <0>        -0.5162
     13 H2         -0.9591    1.9053    0.0259 H         1 <0>         0.1371
     14 H3          1.1563    3.1654    0.0076 H         1 <0>         0.1382
     15 H4          3.3051    1.9634   -0.0196 H         1 <0>         0.1346
     16 H5          1.2231   -1.7588   -0.0176 H         1 <0>         0.1201
     17 H6         -0.9258   -0.5567    0.0082 H         1 <0>         0.1365
     18 H7          4.5450   -0.5115    1.9783 H         1 <0>         0.1195
     19 H8          3.1362   -1.6194    1.8689 H         1 <0>         0.1003
     20 H9          6.0083   -2.0800    0.8840 H         1 <0>         0.1020
     21 H10         4.9573   -3.1980    1.8135 H         1 <0>         0.1149
     22 H11         5.2161   -3.2839   -0.9547 H         1 <0>         0.1360
     23 H12         3.7624   -3.8421   -0.0804 H         1 <0>         0.1331
     24 H13         2.6575   -2.1867   -0.9906 H         1 <0>         0.4253
     25 H14         3.9938   -1.6871   -1.8174 H         1 <0>         0.4324
@<TRIPOS>BOND
     1    1    6 ar
     2    1    2 ar
     3    1   13 1
     4    2    3 ar
     5    2   14 1
     6    3    4 ar
     7    3   15 1
     8    4    5 ar
     9    4    7 1
    10    5    6 ar
    11    5   16 1
    12    6   17 1
    13    7    8 1
    14    7   12 1
    15    7    9 1
    16    9   10 1
    17    9   18 1
    18    9   19 1
    19   10   11 1
    20   10   20 1
    21   10   21 1
    22   11   12 1
    23   11   22 1
    24   11   23 1
    25   12   24 1
    26   12   25 1
@<TRIPOS>MOLECULE
ZINC01444852
   25    26     0     0     0
SMALL
USER_CHARGES

@<TRIPOS>ATOM
      1 C1         -0.0167    1.3781    0.0096 C.ar      1 <0>        -0.0920
      2 C2          1.1709    2.0855    0.0021 C.ar      1 <0>        -0.1041
      3 C3          2.3773    1.4107   -0.0130 C.ar      1 <0>        -0.0888
      4 C4          2.3960    0.0285   -0.0201 C.ar      1 <0>        -0.1424
      5 C5          1.2084   -0.6789   -0.0117 C.ar      1 <0>        -0.1276
      6 C6          0.0021   -0.0041    0.0020 C.ar      1 <0>        -0.1034
      7 C7          3.7112   -0.7071   -0.0376 C.3       1 <0>         0.0784
      8 H1          4.5105   -0.0454    0.2962 H         1 <0>         0.1465
      9 C8          4.0104   -1.2138   -1.4642 C.3       1 <0>        -0.1334
     10 C9          4.6497   -2.6050   -1.2140 C.3       1 <0>        -0.1441
     11 C10         3.8504   -3.0999    0.0171 C.3       1 <0>        -0.0096
     12 N1          3.6372   -1.8878    0.8424 N.4       1 <0>        -0.5158
     13 H2         -0.9591    1.9053    0.0259 H         1 <0>         0.1369
     14 H3          1.1563    3.1654    0.0076 H         1 <0>         0.1381
     15 H4          3.3051    1.9634   -0.0196 H         1 <0>         0.1344
     16 H5          1.2231   -1.7588   -0.0176 H         1 <0>         0.1204
     17 H6         -0.9258   -0.5567    0.0082 H         1 <0>         0.1361
     18 H7          3.0898   -1.3106   -2.0397 H         1 <0>         0.1019
     19 H8          4.7138   -0.5515   -1.9688 H         1 <0>         0.1156
     20 H9          4.4978   -3.2640   -2.0688 H         1 <0>         0.1189
     21 H10         5.7100   -2.5110   -0.9790 H         1 <0>         0.1009
     22 H11         2.8946   -3.5209   -0.2952 H         1 <0>         0.1329
     23 H12         4.4280   -3.8388    0.5727 H         1 <0>         0.1392
     24 H13         4.3518   -1.8276    1.5522 H         1 <0>         0.4323
     25 H14         2.7287   -1.9291    1.2796 H         1 <0>         0.4285
@<TRIPOS>BOND
     1    1    6 ar
     2    1    2 ar
     3    1   13 1
     4    2    3 ar
     5    2   14 1
     6    3    4 ar
     7    3   15 1
     8    4    5 ar
     9    4    7 1
    10    5    6 ar
    11    5   16 1
    12    6   17 1
    13    7    8 1
    14    7   12 1
    15    7    9 1
    16    9   10 1
    17    9   18 1
    18    9   19 1
    19   10   11 1
    20   10   20 1
    21   10   21 1
    22   11   12 1
    23   11   22 1
    24   11   23 1
    25   12   24 1
    26   12   25 1
@<TRIPOS>MOLECULE
ZINC04474604
   27    28     0     0     0
SMALL
USER_CHARGES

@<TRIPOS>ATOM
      1 C1         -3.3367   -1.7998    0.9454 C.ar      1 <0>        -0.0334
      2 C2         -4.5646   -1.6558    1.5720 C.ar      1 <0>        -0.1529
      3 C3         -5.0109   -0.3872    1.8967 C.ar      1 <0>         0.1850
      4 N1         -4.2820    0.6766    1.6158 N.ar      1 <0>        -0.4783
      5 C4         -3.1096    0.5761    1.0204 C.ar      1 <0>         0.1406
      6 C5         -2.5996   -0.6587    0.6670 C.ar      1 <0>        -0.1735
      7 C6         -1.2589   -0.7638   -0.0131 C.3       1 <0>         0.1409
      8 N2         -1.4547   -1.0350   -1.4394 N.pl3     1 <0>        -0.6047
      9 C7         -2.0000   -0.0849   -2.4203 C.3       1 <0>         0.0817
     10 C8         -1.9876   -0.8726   -3.7447 C.3       1 <0>         0.0919
     11 N3         -1.4366   -2.1836   -3.3705 N.pl3     1 <0>        -0.6727
     12 C9         -1.1599   -2.1867   -2.0588 C.2       1 <0>         0.6986
     13 N4         -0.6367   -3.2512   -1.4207 N.2       1 <0>        -0.4971
     14 N5         -0.2558   -3.1441   -0.1929 N.pl3     1 <0>         0.2230
     15 O1         -1.0477   -3.5462    0.7796 O.2       1 <0>        -0.2500
     16 O2          0.9248   -2.6326    0.0881 O.3       1 <0>        -0.2646
     17 Cl1        -6.5469   -0.1924    2.6818 Cl        1 <0>        -0.0218
     18 H1         -2.9608   -2.7780    0.6841 H         1 <0>         0.1595
     19 H2         -5.1654   -2.5229    1.8036 H         1 <0>         0.1514
     20 H3         -2.5416    1.4692    0.8061 H         1 <0>         0.1672
     21 H4         -0.7159    0.1737    0.1073 H         1 <0>         0.1114
     22 H5         -0.6864   -1.5755    0.4358 H         1 <0>         0.1266
     23 H6         -3.0181    0.1985   -2.1533 H         1 <0>         0.1007
     24 H7         -1.3633    0.7968   -2.4937 H         1 <0>         0.1061
     25 H8         -2.9995   -0.9803   -4.1352 H         1 <0>         0.1056
     26 H9         -1.3448   -0.3820   -4.4756 H         1 <0>         0.1086
     27 H10        -1.2930   -2.9268   -3.9770 H         1 <0>         0.4500
@<TRIPOS>BOND
     1    1    6 ar
     2    1    2 ar
     3    1   18 1
     4    2    3 ar
     5    2   19 1
     6    3    4 ar
     7    3   17 1
     8    4    5 ar
     9    5    6 ar
    10    5   20 1
    11    6    7 1
    12    7    8 1
    13    7   21 1
    14    7   22 1
    15    8   12 1
    16    8    9 1
    17    9   10 1
    18    9   23 1
    19    9   24 1
    20   10   11 1
    21   10   25 1
    22   10   26 1
    23   11   12 1
    24   11   27 1
    25   12   13 2
    26   13   14 1
    27   14   15 2
    28   14   16 1
@<TRIPOS>MOLECULE
ZINC04474604
   27    28     0     0     0
SMALL
USER_CHARGES

@<TRIPOS>ATOM
      1 C1         -0.0232    1.3761    0.0289 C.ar      1 <0>        -0.0422
      2 C2          1.1873    2.0511    0.0320 C.ar      1 <0>        -0.1593
      3 C3          2.3644    1.3241    0.0228 C.ar      1 <0>         0.1860
      4 N1          2.3421    0.0046    0.0108 N.ar      1 <0>        -0.4757
      5 C4          1.2085   -0.6694    0.0076 C.ar      1 <0>         0.1546
      6 C5         -0.0061   -0.0105    0.0167 C.ar      1 <0>        -0.1801
      7 C6         -1.2963   -0.7892    0.0129 C.3       1 <0>         0.1880
      8 N2         -1.7176   -1.0294   -1.3695 N.pl3     1 <0>        -0.5686
      9 C7         -2.5772   -0.1402   -2.1650 C.3       1 <0>         0.0889
     10 C8         -2.6991   -0.8603   -3.5219 C.3       1 <0>         0.0864
     11 N3         -1.8954   -2.0794   -3.3480 N.pl3     1 <0>        -0.7201
     12 C9         -1.3761   -2.0919   -2.1122 C.2       1 <0>         0.6973
     13 N4         -0.5862   -3.0832   -1.6570 N.2       1 <0>        -0.4965
     14 N5         -0.3770   -4.1272   -2.3854 N.pl3     1 <0>         0.1954
     15 O1          0.6891   -4.1894   -3.1562 O.2       1 <0>        -0.2389
     16 O2         -1.2294   -5.1307   -2.3581 O.3       1 <0>        -0.2492
     17 Cl1         3.8877    2.1568    0.0265 Cl        1 <0>        -0.0218
     18 H1         -0.9578    1.9172    0.0403 H         1 <0>         0.1476
     19 H2          1.2115    3.1308    0.0410 H         1 <0>         0.1502
     20 H3          1.2298   -1.7492   -0.0027 H         1 <0>         0.1706
     21 H4         -1.1463   -1.7433    0.5180 H         1 <0>         0.1138
     22 H5         -2.0660   -0.2195    0.5335 H         1 <0>         0.1128
     23 H6         -3.5565   -0.0362   -1.6978 H         1 <0>         0.1084
     24 H7         -2.1067    0.8350   -2.2905 H         1 <0>         0.1016
     25 H8         -3.7389   -1.1139   -3.7283 H         1 <0>         0.1055
     26 H9         -2.2892   -0.2426   -4.3210 H         1 <0>         0.1031
     27 H10        -1.7598   -2.7640   -4.0217 H         1 <0>         0.4422
@<TRIPOS>BOND
     1    1    6 ar
     2    1    2 ar
     3    1   18 1
     4    2    3 ar
     5    2   19 1
     6    3    4 ar
     7    3   17 1
     8    4    5 ar
     9    5    6 ar
    10    5   20 1
    11    6    7 1
    12    7    8 1
    13    7   21 1
    14    7   22 1
    15    8   12 1
    16    8    9 1
    17    9   10 1
    18    9   23 1
    19    9   24 1
    20   10   11 1
    21   10   25 1
    22   10   26 1
    23   11   12 1
    24   11   27 1
    25   12   13 2
    26   13   14 1
    27   14   15 2
    28   14   16 1
@<TRIPOS>MOLECULE
ZINC04474604
   26    27     0     0     0
SMALL
USER_CHARGES

@<TRIPOS>ATOM
      1 C1         -0.0167    1.3825    0.0096 C.ar      1 <0>        -0.0553
      2 C2          1.1930    2.0590    0.0017 C.ar      1 <0>        -0.1627
      3 C3          2.3709    1.3334   -0.0134 C.ar      1 <0>         0.1701
      4 N1          2.3501    0.0138   -0.0207 N.ar      1 <0>        -0.4798
      5 C4          1.2174   -0.6616   -0.0136 C.ar      1 <0>         0.1507
      6 C5          0.0021   -0.0041    0.0020 C.ar      1 <0>        -0.1462
      7 C6         -1.2872   -0.7844    0.0101 C.3       1 <0>         0.1949
      8 N2         -1.7181   -1.0298   -1.3684 N.pl3     1 <0>        -0.6322
      9 C7         -2.5850   -0.1498   -2.1697 C.3       1 <0>         0.0920
     10 C8         -2.6997   -0.8951   -3.5144 C.3       1 <0>         0.0364
     11 N3         -1.8888   -2.1052   -3.3206 N.2       1 <0>        -0.6245
     12 C9         -1.3789   -2.1126   -2.1323 C.2       1 <0>         0.5431
     13 N4         -0.5682   -3.1241   -1.6745 N.2       1 <0>        -0.5178
     14 N5         -0.2592   -4.2062   -2.5090 N.pl3     1 <0>         0.2255
     15 O1         -0.7055   -4.2504   -3.6317 O.2       1 <0>        -0.2969
     16 O2          0.4537   -5.0958   -2.1064 O.3       1 <0>        -0.3190
     17 Cl1         3.8931    2.1680   -0.0235 Cl        1 <0>        -0.0438
     18 H1         -0.9519    1.9225    0.0259 H         1 <0>         0.1402
     19 H2          1.2158    3.1388    0.0070 H         1 <0>         0.1408
     20 H3          1.2399   -1.7413   -0.0203 H         1 <0>         0.1760
     21 H4         -1.1323   -1.7366    0.5174 H         1 <0>         0.0957
     22 H5         -2.0538   -0.2139    0.5344 H         1 <0>         0.0768
     23 H6         -3.5644   -0.0459   -1.7028 H         1 <0>         0.0602
     24 H7         -2.1189    0.8257   -2.3093 H         1 <0>         0.0548
     25 H8         -3.7376   -1.1591   -3.7176 H         1 <0>         0.0616
     26 H9         -2.2933   -0.2883   -4.3235 H         1 <0>         0.0592
@<TRIPOS>BOND
     1    1    6 ar
     2    1    2 ar
     3    1   18 1
     4    2    3 ar
     5    2   19 1
     6    3    4 ar
     7    3   17 1
     8    4    5 ar
     9    5    6 ar
    10    5   20 1
    11    6    7 1
    12    7    8 1
    13    7   21 1
    14    7   22 1
    15    8   12 1
    16    8    9 1
    17    9   10 1
    18    9   23 1
    19    9   24 1
    20   10   11 1
    21   10   25 1
    22   10   26 1
    23   11   12 2
    24   12   13 1
    25   13   14 1
    26   14   15 2
    27   14   16 1
@<TRIPOS>MOLECULE
ZINC04474604
   26    27     0     0     0
SMALL
USER_CHARGES

@<TRIPOS>ATOM
      1 C1         -0.0167    1.3825    0.0096 C.ar      1 <0>        -0.0532
      2 C2          1.1930    2.0590    0.0017 C.ar      1 <0>        -0.1625
      3 C3          2.3709    1.3334   -0.0134 C.ar      1 <0>         0.1721
      4 N1          2.3501    0.0138   -0.0207 N.ar      1 <0>        -0.4788
      5 C4          1.2174   -0.6616   -0.0136 C.ar      1 <0>         0.1506
      6 C5          0.0021   -0.0041    0.0020 C.ar      1 <0>        -0.1498
      7 C6         -1.2872   -0.7844    0.0101 C.3       1 <0>         0.1883
      8 N2         -1.7181   -1.0298   -1.3684 N.pl3     1 <0>        -0.6118
      9 C7         -2.5845   -0.1444   -2.1607 C.3       1 <0>         0.0913
     10 C8         -2.7153   -0.8693   -3.5142 C.3       1 <0>         0.0217
     11 N3         -1.9088   -2.0868   -3.3420 N.2       1 <0>        -0.5777
     12 C9         -1.3806   -2.0944   -2.1099 C.2       1 <0>         0.5255
     13 N4         -0.5862   -3.0832   -1.6570 N.2       1 <0>        -0.4227
     14 N5         -0.2991   -4.0814   -2.4221 N.pl3     1 <0>         0.2681
     15 O1         -0.7828   -4.1336   -3.6459 O.2       1 <0>        -0.3946
     16 O2          0.4777   -5.0484   -1.9793 O.3       1 <0>        -0.4246
     17 Cl1         3.8931    2.1680   -0.0235 Cl        1 <0>        -0.0420
     18 H1         -0.9519    1.9225    0.0259 H         1 <0>         0.1414
     19 H2          1.2158    3.1388    0.0070 H         1 <0>         0.1418
     20 H3          1.2399   -1.7413   -0.0203 H         1 <0>         0.1764
     21 H4         -1.1323   -1.7366    0.5174 H         1 <0>         0.1001
     22 H5         -2.0538   -0.2139    0.5344 H         1 <0>         0.0828
     23 H6         -3.5605   -0.0401   -1.6868 H         1 <0>         0.0654
     24 H7         -2.1161    0.8309   -2.2928 H         1 <0>         0.0600
     25 H8         -3.7562   -1.1248   -3.7123 H         1 <0>         0.0673
     26 H9         -2.3118   -0.2538   -4.3183 H         1 <0>         0.0649
@<TRIPOS>BOND
     1    1    6 ar
     2    1    2 ar
     3    1   18 1
     4    2    3 ar
     5    2   19 1
     6    3    4 ar
     7    3   17 1
     8    4    5 ar
     9    5    6 ar
    10    5   20 1
    11    6    7 1
    12    7    8 1
    13    7   21 1
    14    7   22 1
    15    8   12 1
    16    8    9 1
    17    9   10 1
    18    9   23 1
    19    9   24 1
    20   10   11 1
    21   10   25 1
    22   10   26 1
    23   11   12 1
    24   12   13 2
    25   13   14 1
    26   14   15 2
    27   14   16 1
@<TRIPOS>MOLECULE
ZINC04474604
   26    27     0     0     0
SMALL
USER_CHARGES

@<TRIPOS>ATOM
      1 C1         -3.3367   -1.7998    0.9453 C.ar      1 <0>        -0.0336
      2 C2         -4.5646   -1.6558    1.5720 C.ar      1 <0>        -0.1545
      3 C3         -5.0109   -0.3872    1.8967 C.ar      1 <0>         0.1698
      4 N1         -4.2820    0.6766    1.6158 N.ar      1 <0>        -0.4846
      5 C4         -3.1096    0.5761    1.0204 C.ar      1 <0>         0.1245
      6 C5         -2.5996   -0.6587    0.6670 C.ar      1 <0>        -0.1426
      7 C6         -1.2589   -0.7638   -0.0131 C.3       1 <0>         0.1390
      8 N2         -1.4547   -1.0350   -1.4394 N.pl3     1 <0>        -0.6490
      9 C7         -2.0000   -0.0849   -2.4203 C.3       1 <0>         0.0881
     10 C8         -1.9876   -0.8726   -3.7447 C.3       1 <0>         0.0485
     11 N3         -1.4366   -2.1836   -3.3705 N.2       1 <0>        -0.6488
     12 C9         -1.1599   -2.1867   -2.0588 C.2       1 <0>         0.6094
     13 N4         -0.6367   -3.2512   -1.4207 N.2       1 <0>        -0.5267
     14 N5         -0.2558   -3.1441   -0.1929 N.pl3     1 <0>         0.2724
     15 O1         -1.0477   -3.5462    0.7796 O.2       1 <0>        -0.3324
     16 O2          0.9248   -2.6326    0.0881 O.3       1 <0>        -0.3484
     17 Cl1        -6.5469   -0.1924    2.6818 Cl        1 <0>        -0.0430
     18 H1         -2.9608   -2.7780    0.6841 H         1 <0>         0.1647
     19 H2         -5.1654   -2.5229    1.8036 H         1 <0>         0.1445
     20 H3         -2.5416    1.4692    0.8061 H         1 <0>         0.1613
     21 H4         -0.7159    0.1737    0.1073 H         1 <0>         0.0780
     22 H5         -0.6864   -1.5755    0.4358 H         1 <0>         0.1225
     23 H6         -3.0181    0.1985   -2.1533 H         1 <0>         0.0583
     24 H7         -1.3633    0.7968   -2.4937 H         1 <0>         0.0626
     25 H8         -2.9995   -0.9803   -4.1352 H         1 <0>         0.0586
     26 H9         -1.3448   -0.3820   -4.4756 H         1 <0>         0.0617
@<TRIPOS>BOND
     1    1    6 ar
     2    1    2 ar
     3    1   18 1
     4    2    3 ar
     5    2   19 1
     6    3    4 ar
     7    3   17 1
     8    4    5 ar
     9    5    6 ar
    10    5   20 1
    11    6    7 1
    12    7    8 1
    13    7   21 1
    14    7   22 1
    15    8   12 1
    16    8    9 1
    17    9   10 1
    18    9   23 1
    19    9   24 1
    20   10   11 1
    21   10   25 1
    22   10   26 1
    23   11   12 1
    24   12   13 2
    25   13   14 1
    26   14   15 2
    27   14   16 1
