@<TRIPOS>MOLECULE
ZINC27647301
   44    47     0     0     0
SMALL
USER_CHARGES
3-[4-(2-chloro-5-fluoro-phenoxy)-1-piperidyl]-6-(5-methyl-1,3,4-oxadiazol-2-yl)pyridazine
@<TRIPOS>ATOM
      1 C1         -2.3895    6.5397   -0.0380 C.3       1 <0>        -0.0670
      2 C2         -1.9171    5.1111   -0.1219 C.2       1 <0>         0.1794
      3 N1         -2.6729    4.0571   -0.2579 N.2       1 <0>        -0.2837
      4 N2         -1.9371    3.0021   -0.2932 N.2       1 <0>        -0.2546
      5 C3         -0.6766    3.3498   -0.1800 C.2       1 <0>         0.2140
      6 O1         -0.6414    4.6925   -0.0635 O.3       1 <0>        -0.2027
      7 C4          0.4870    2.4387   -0.1748 C.ar      1 <0>         0.1105
      8 C5          0.2977    1.0560   -0.2996 C.ar      1 <0>        -0.0461
      9 C6          1.4177    0.2454   -0.2951 C.ar      1 <0>        -0.1274
     10 C7          2.6677    0.8541   -0.1667 C.ar      1 <0>         0.2717
     11 N3          2.7532    2.1725   -0.0538 N.ar      1 <0>        -0.2699
     12 N4          1.7156    2.9280   -0.0575 N.ar      1 <0>        -0.1795
     13 N5          3.8204    0.0795   -0.1577 N.pl3     1 <0>        -0.4652
     14 C8          3.9009   -0.7583   -1.3611 C.3       1 <0>         0.0576
     15 C9          5.1020   -1.7000   -1.2492 C.3       1 <0>        -0.1452
     16 C10         6.3808   -0.8722   -1.0946 C.3       1 <0>         0.0795
     17 C11         6.2515    0.0267    0.1382 C.3       1 <0>        -0.1147
     18 C12         5.0171    0.9184   -0.0138 C.3       1 <0>         0.0616
     19 O2          7.4992   -1.7468   -0.9327 O.3       1 <0>        -0.2911
     20 C13         8.0779   -2.2247   -2.0659 C.ar      1 <0>         0.1737
     21 C14         7.5123   -1.9524   -3.3024 C.ar      1 <0>        -0.2428
     22 C15         8.1063   -2.4356   -4.4549 C.ar      1 <0>         0.1478
     23 C16         9.2585   -3.1997   -4.3726 C.ar      1 <0>        -0.1802
     24 C17         9.8203   -3.4762   -3.1404 C.ar      1 <0>        -0.0405
     25 C18         9.2328   -2.9909   -1.9867 C.ar      1 <0>        -0.0836
     26 Cl1         9.9389   -3.3399   -0.4397 Cl        1 <0>        -0.0444
     27 F1          7.5592   -2.1663   -5.6604 F         1 <0>        -0.1295
     28 H1         -3.4864    6.5683   -0.1157 H         1 <0>         0.1141
     29 H2         -1.9483    7.1207   -0.8613 H         1 <0>         0.1019
     30 H3         -2.0786    6.9728    0.9242 H         1 <0>         0.1020
     31 H4         -0.6927    0.6364   -0.3966 H         1 <0>         0.1703
     32 H5          1.3283   -0.8269   -0.3879 H         1 <0>         0.1660
     33 H6          2.9790   -1.3505   -1.4579 H         1 <0>         0.0984
     34 H7          4.0195   -0.1171   -2.2470 H         1 <0>         0.0574
     35 H8          4.9766   -2.3515   -0.3718 H         1 <0>         0.0965
     36 H9          5.1701   -2.3170   -2.1573 H         1 <0>         0.0865
     37 H10         6.5924   -0.2852   -2.0005 H         1 <0>         0.0787
     38 H11         6.1465   -0.5976    1.0378 H         1 <0>         0.0920
     39 H12         7.1502    0.6543    0.2303 H         1 <0>         0.0912
     40 H13         5.1304    1.5516   -0.9061 H         1 <0>         0.0620
     41 H14         4.9135    1.5553    0.8771 H         1 <0>         0.1053
     42 H15         6.6111   -1.3606   -3.3661 H         1 <0>         0.1498
     43 H16         9.7189   -3.5798   -5.2726 H         1 <0>         0.1482
     44 H17        10.7188   -4.0722   -3.0786 H         1 <0>         0.1522
@<TRIPOS>BOND
     1    1    2 1
     2    1   28 1
     3    1   29 1
     4    1   30 1
     5    2    6 1
     6    2    3 2
     7    3    4 1
     8    4    5 2
     9    5    6 1
    10    5    7 1
    11    7   12 ar
    12    7    8 ar
    13    8    9 ar
    14    8   31 1
    15    9   10 ar
    16    9   32 1
    17   10   11 ar
    18   10   13 1
    19   11   12 ar
    20   13   18 1
    21   13   14 1
    22   14   15 1
    23   14   33 1
    24   14   34 1
    25   15   16 1
    26   15   35 1
    27   15   36 1
    28   16   17 1
    29   16   19 1
    30   16   37 1
    31   17   18 1
    32   17   38 1
    33   17   39 1
    34   18   40 1
    35   18   41 1
    36   19   20 1
    37   20   25 ar
    38   20   21 ar
    39   21   22 ar
    40   21   42 1
    41   22   23 ar
    42   22   27 1
    43   23   24 ar
    44   23   43 1
    45   24   25 ar
    46   24   44 1
    47   25   26 1
@<TRIPOS>MOLECULE
ZINC35323148
   49    51     0     0     0
SMALL
USER_CHARGES

@<TRIPOS>ATOM
      1 C1          0.4631    0.9615   -1.2434 C.3       1 <0>         0.0863
      2 N1          0.3696   -0.4344   -0.8086 N.am      1 <0>        -0.7309
      3 C2         -0.8276   -1.0529   -0.7811 C.2       1 <0>         0.5591
      4 O1         -1.8297   -0.4525   -1.1170 O.2       1 <0>        -0.5355
      5 C3         -0.9220   -2.4617   -0.3423 C.ar      1 <0>        -0.1156
      6 C4          0.2268   -3.1517    0.0495 C.ar      1 <0>        -0.1072
      7 C5          0.1359   -4.4664    0.4585 C.ar      1 <0>        -0.1043
      8 C6         -1.0902   -5.1048    0.4817 C.ar      1 <0>        -0.1147
      9 C7         -2.2392   -4.4268    0.0938 C.ar      1 <0>         0.1572
     10 C8         -2.1595   -3.1039   -0.3129 C.ar      1 <0>        -0.0943
     11 N2         -3.4782   -5.0778    0.1191 N.am      1 <0>        -0.6809
     12 C9         -3.5344   -6.4225    0.0478 C.2       1 <0>         0.7128
     13 O2         -2.5133   -7.0785    0.1211 O.2       1 <0>        -0.5650
     14 N3         -4.7226   -7.0401   -0.1047 N.am      1 <0>        -0.6260
     15 C10        -5.9406   -6.2639   -0.3740 C.3       1 <0>         0.1118
     16 C11        -6.6136   -6.8229   -1.6316 C.3       1 <0>        -0.1291
     17 C12        -6.8515   -8.3242   -1.4535 C.3       1 <0>         0.0872
     18 C13        -5.5099   -9.0364   -1.2664 C.3       1 <0>        -0.1643
     19 C14        -4.8234   -8.5029   -0.0108 C.3       1 <0>         0.1322
     20 O3         -7.5084   -8.8428   -2.6118 O.3       1 <0>        -0.2956
     21 C15        -8.1575  -10.0290   -2.4738 C.ar      1 <0>         0.1413
     22 C16        -8.1885  -10.6649   -1.2415 C.ar      1 <0>        -0.2018
     23 C17        -8.8493  -11.8703   -1.1035 C.ar      1 <0>        -0.0739
     24 C18        -9.4795  -12.4437   -2.1926 C.ar      1 <0>        -0.1458
     25 C19        -9.4503  -11.8128   -3.4224 C.ar      1 <0>        -0.0721
     26 C20        -8.7957  -10.6034   -3.5646 C.ar      1 <0>        -0.0713
     27 Cl1        -8.7652   -9.8078   -5.1073 Cl        1 <0>        -0.0556
     28 H1          1.5025    1.2869   -1.1994 H         1 <0>         0.0781
     29 H2          0.0982    1.0485   -2.2668 H         1 <0>         0.0621
     30 H3         -0.1417    1.5876   -0.5875 H         1 <0>         0.0622
     31 H4          1.1693   -0.9135   -0.5406 H         1 <0>         0.4026
     32 H5          1.1864   -2.6567    0.0321 H         1 <0>         0.1260
     33 H6          1.0256   -4.9985    0.7612 H         1 <0>         0.1338
     34 H7         -1.1550   -6.1341    0.8022 H         1 <0>         0.1691
     35 H8         -3.0523   -2.5738   -0.6102 H         1 <0>         0.1380
     36 H9         -4.2962   -4.5611    0.1880 H         1 <0>         0.4094
     37 H10        -6.6219   -6.3474    0.4728 H         1 <0>         0.0804
     38 H11        -5.6794   -5.2178   -0.5337 H         1 <0>         0.0882
     39 H12        -7.5676   -6.3194   -1.7881 H         1 <0>         0.0920
     40 H13        -5.9681   -6.6567   -2.4940 H         1 <0>         0.0836
     41 H14        -7.4767   -8.4912   -0.5764 H         1 <0>         0.0784
     42 H15        -5.6783  -10.1083   -1.1630 H         1 <0>         0.0871
     43 H16        -4.8748   -8.8493   -2.1323 H         1 <0>         0.0833
     44 H17        -3.8253   -8.9336    0.0692 H         1 <0>         0.1047
     45 H18        -5.4115   -8.7731    0.8663 H         1 <0>         0.0723
     46 H19        -7.6959  -10.2182   -0.3904 H         1 <0>         0.1377
     47 H20        -8.8734  -12.3654   -0.1441 H         1 <0>         0.1323
     48 H21        -9.9951  -13.3862   -2.0824 H         1 <0>         0.1343
     49 H22        -9.9427  -12.2631   -4.2717 H         1 <0>         0.1401
@<TRIPOS>BOND
     1    1    2 1
     2    1   28 1
     3    1   29 1
     4    1   30 1
     5    2    3 am
     6    2   31 1
     7    3    4 2
     8    3    5 1
     9    5   10 ar
    10    5    6 ar
    11    6    7 ar
    12    6   32 1
    13    7    8 ar
    14    7   33 1
    15    8    9 ar
    16    8   34 1
    17    9   10 ar
    18    9   11 1
    19   10   35 1
    20   11   12 am
    21   11   36 1
    22   12   13 2
    23   12   14 am
    24   14   19 1
    25   14   15 1
    26   15   16 1
    27   15   37 1
    28   15   38 1
    29   16   17 1
    30   16   39 1
    31   16   40 1
    32   17   18 1
    33   17   20 1
    34   17   41 1
    35   18   19 1
    36   18   42 1
    37   18   43 1
    38   19   44 1
    39   19   45 1
    40   20   21 1
    41   21   26 ar
    42   21   22 ar
    43   22   23 ar
    44   22   46 1
    45   23   24 ar
    46   23   47 1
    47   24   25 ar
    48   24   48 1
    49   25   26 ar
    50   25   49 1
    51   26   27 1
@<TRIPOS>MOLECULE
ZINC40915624
   52    54     0     0     0
SMALL
USER_CHARGES

@<TRIPOS>ATOM
      1 C1         -0.0585    1.3489   -2.0481 C.3       1 <0>         0.0863
      2 N1         -0.0232   -0.0423   -1.5904 N.am      1 <0>        -0.7308
      3 C2         -1.1701   -0.7378   -1.4592 C.2       1 <0>         0.5589
      4 O1         -2.2338   -0.2109   -1.7207 O.2       1 <0>        -0.5351
      5 C3         -1.1345   -2.1420   -0.9973 C.ar      1 <0>        -0.1158
      6 C4          0.0854   -2.7478   -0.6908 C.ar      1 <0>        -0.1061
      7 C5          0.1159   -4.0582   -0.2600 C.ar      1 <0>        -0.1047
      8 C6         -1.0588   -4.7757   -0.1306 C.ar      1 <0>        -0.1099
      9 C7         -2.2780   -4.1819   -0.4330 C.ar      1 <0>         0.1568
     10 C8         -2.3199   -2.8639   -0.8608 C.ar      1 <0>        -0.0929
     11 N2         -3.4645   -4.9127   -0.3003 N.am      1 <0>        -0.6812
     12 C9         -3.4411   -6.2574   -0.3881 C.2       1 <0>         0.7130
     13 O2         -2.3778   -6.8447   -0.4419 O.2       1 <0>        -0.5659
     14 N3         -4.5963   -6.9511   -0.4163 N.am      1 <0>        -0.6242
     15 C10        -5.8855   -6.2532   -0.5196 C.3       1 <0>         0.0935
     16 C11        -6.6466   -6.8066   -1.7307 C.3       1 <0>         0.0996
     17 N4         -6.6396   -8.2745   -1.6591 N.am      1 <0>        -0.6052
     18 C12        -5.3503   -8.9724   -1.5557 C.3       1 <0>         0.0890
     19 C13        -4.5889   -8.4192   -0.3503 C.3       1 <0>         0.1144
     20 C14        -7.7948   -8.9681   -1.6872 C.2       1 <0>         0.5525
     21 O3         -8.8574   -8.3821   -1.6185 O.2       1 <0>        -0.5038
     22 C15        -7.7694  -10.4419   -1.8018 C.ar      1 <0>        -0.0813
     23 C16        -7.0261  -11.0538   -2.8126 C.ar      1 <0>        -0.0912
     24 C17        -7.0064  -12.4293   -2.9137 C.ar      1 <0>        -0.0891
     25 C18        -7.7216  -13.2024   -2.0161 C.ar      1 <0>        -0.0974
     26 C19        -8.4602  -12.6024   -1.0120 C.ar      1 <0>        -0.0746
     27 C20        -8.4838  -11.2276   -0.8963 C.ar      1 <0>        -0.1404
     28 C21        -9.2843  -10.5758    0.2016 C.3       1 <0>         0.5026
     29 F1         -9.9066  -11.5626    0.9738 F         1 <0>        -0.1772
     30 F2         -8.4329   -9.8173    1.0121 F         1 <0>        -0.1774
     31 F3        -10.2566   -9.7425   -0.3619 F         1 <0>        -0.1533
     32 H1          0.9569    1.7429   -2.0917 H         1 <0>         0.0781
     33 H2         -0.5085    1.3938   -3.0398 H         1 <0>         0.0622
     34 H3         -0.6500    1.9451   -1.3533 H         1 <0>         0.0623
     35 H4          0.8256   -0.4628   -1.3817 H         1 <0>         0.4026
     36 H5          1.0053   -2.1908   -0.7913 H         1 <0>         0.1262
     37 H6          1.0605   -4.5251   -0.0234 H         1 <0>         0.1339
     38 H7         -1.0287   -5.8013    0.2065 H         1 <0>         0.1650
     39 H8         -3.2670   -2.3990   -1.0917 H         1 <0>         0.1383
     40 H9         -4.3035   -4.4513   -0.1452 H         1 <0>         0.4094
     41 H10        -6.4670   -6.4227    0.3866 H         1 <0>         0.0838
     42 H11        -5.7136   -5.1850   -0.6525 H         1 <0>         0.0919
     43 H12        -7.6745   -6.4444   -1.7135 H         1 <0>         0.1113
     44 H13        -6.1574   -6.4828   -2.6494 H         1 <0>         0.0795
     45 H14        -5.5222  -10.0405   -1.4229 H         1 <0>         0.1017
     46 H15        -4.7689   -8.8028   -2.4619 H         1 <0>         0.0821
     47 H16        -3.5610   -8.7812   -0.3713 H         1 <0>         0.1127
     48 H17        -5.0760   -8.7466    0.5683 H         1 <0>         0.0768
     49 H18        -6.4681  -10.4515   -3.5143 H         1 <0>         0.1408
     50 H19        -6.4317  -12.9040   -3.6953 H         1 <0>         0.1424
     51 H20        -7.7033  -14.2790   -2.1000 H         1 <0>         0.1428
     52 H21        -9.0165  -13.2114   -0.3149 H         1 <0>         0.1471
@<TRIPOS>BOND
     1    1    2 1
     2    1   32 1
     3    1   33 1
     4    1   34 1
     5    2    3 am
     6    2   35 1
     7    3    4 2
     8    3    5 1
     9    5   10 ar
    10    5    6 ar
    11    6    7 ar
    12    6   36 1
    13    7    8 ar
    14    7   37 1
    15    8    9 ar
    16    8   38 1
    17    9   10 ar
    18    9   11 1
    19   10   39 1
    20   11   12 am
    21   11   40 1
    22   12   13 2
    23   12   14 am
    24   14   19 1
    25   14   15 1
    26   15   16 1
    27   15   41 1
    28   15   42 1
    29   16   17 1
    30   16   43 1
    31   16   44 1
    32   17   18 1
    33   17   20 am
    34   18   19 1
    35   18   45 1
    36   18   46 1
    37   19   47 1
    38   19   48 1
    39   20   21 2
    40   20   22 1
    41   22   27 ar
    42   22   23 ar
    43   23   24 ar
    44   23   49 1
    45   24   25 ar
    46   24   50 1
    47   25   26 ar
    48   25   51 1
    49   26   27 ar
    50   26   52 1
    51   27   28 1
    52   28   29 1
    53   28   30 1
    54   28   31 1
@<TRIPOS>MOLECULE
ZINC00848329
   46    48     0     0     0
SMALL
USER_CHARGES
3-(4-methoxyphenyl)-N-[5-[[3-(trifluoromethyl)phenyl]methyl]thiazol-2-yl]-prop-2-enamide
@<TRIPOS>ATOM
      1 C1          2.5683   10.2328  -13.4959 C.3       1 <0>         0.0244
      2 O1          1.1564   10.1459  -13.2933 O.3       1 <0>        -0.3134
      3 C2          0.7337    9.7059  -12.0808 C.ar      1 <0>         0.1469
      4 C3         -0.6273    9.5981  -11.8188 C.ar      1 <0>        -0.1558
      5 C4         -1.0612    9.1524  -10.5907 C.ar      1 <0>        -0.0468
      6 C5         -0.1292    8.8078   -9.6048 C.ar      1 <0>        -0.1260
      7 C6          1.2400    8.9241   -9.8715 C.ar      1 <0>        -0.0534
      8 C7          1.6634    9.3649  -11.1050 C.ar      1 <0>        -0.2138
      9 C8         -0.5869    8.3313   -8.2917 C.2       1 <0>         0.0137
     10 C9          0.3140    7.9996   -7.3424 C.2       1 <0>        -0.2333
     11 C10        -0.1412    7.5256   -6.0365 C.2       1 <0>         0.5462
     12 O2         -1.3325    7.4301   -5.8050 O.2       1 <0>        -0.4744
     13 N1          0.7581    7.1945   -5.0888 N.am      1 <0>        -0.6177
     14 C11         0.3258    6.7443   -3.8485 C.2       1 <0>         0.3082
     15 N2         -0.9074    6.5751   -3.4120 N.2       1 <0>        -0.5104
     16 C12        -1.1457    6.1295   -2.1940 C.2       1 <0>         0.0675
     17 C13        -0.0907    5.8566   -1.3879 C.2       1 <0>        -0.2006
     18 S1          1.2698    6.2602   -2.4738 S.3       1 <0>         0.0563
     19 C14        -0.0705    5.3471    0.0302 C.3       1 <0>         0.0161
     20 C15        -0.0501    3.8402    0.0223 C.ar      1 <0>        -0.0840
     21 C16         1.1565    3.1653    0.0076 C.ar      1 <0>        -0.0790
     22 C17         1.1752    1.7833    0.0004 C.ar      1 <0>        -0.1166
     23 C18        -0.0126    1.0758    0.0080 C.ar      1 <0>        -0.0728
     24 C19        -1.2188    1.7505    0.0173 C.ar      1 <0>        -0.1794
     25 C20        -1.2375    3.1329    0.0303 C.ar      1 <0>        -0.0596
     26 C21        -2.5135    0.9794    0.0192 C.3       1 <0>         0.5076
     27 F1         -2.2393   -0.3924    0.0104 F         1 <0>        -0.1768
     28 F2         -3.2463    1.3011    1.1668 F         1 <0>        -0.1757
     29 F3         -3.2571    1.3136   -1.1177 F         1 <0>        -0.1750
     30 H1          2.9980   10.9214  -12.7684 H         1 <0>         0.0584
     31 H2          3.0147    9.2464  -13.3704 H         1 <0>         0.0584
     32 H3          2.7690   10.5969  -14.5035 H         1 <0>         0.1037
     33 H4         -1.3455    9.8643  -12.5802 H         1 <0>         0.1374
     34 H5         -2.1187    9.0691  -10.3882 H         1 <0>         0.1384
     35 H6          1.9630    8.6637   -9.1126 H         1 <0>         0.1317
     36 H7          2.7197    9.4504  -11.3135 H         1 <0>         0.1336
     37 H8         -1.6438    8.2465   -8.0864 H         1 <0>         0.1389
     38 H9          1.3709    8.0843   -7.5478 H         1 <0>         0.1339
     39 H10         1.7074    7.2706   -5.2733 H         1 <0>         0.4272
     40 H11        -2.1582    5.9880   -1.8456 H         1 <0>         0.1714
     41 H12        -0.9605    5.6956    0.5541 H         1 <0>         0.1050
     42 H13         0.8192    5.7199    0.5376 H         1 <0>         0.0956
     43 H14         2.0843    3.7180    0.0014 H         1 <0>         0.1324
     44 H15         2.1177    1.2561   -0.0115 H         1 <0>         0.1371
     45 H16         0.0021   -0.0041    0.0020 H         1 <0>         0.1393
     46 H17        -2.1800    3.6601    0.0422 H         1 <0>         0.1353
@<TRIPOS>BOND
     1    1    2 1
     2    1   30 1
     3    1   31 1
     4    1   32 1
     5    2    3 1
     6    3    8 ar
     7    3    4 ar
     8    4    5 ar
     9    4   33 1
    10    5    6 ar
    11    5   34 1
    12    6    7 ar
    13    6    9 1
    14    7    8 ar
    15    7   35 1
    16    8   36 1
    17    9   10 2
    18    9   37 1
    19   10   11 1
    20   10   38 1
    21   11   12 2
    22   11   13 am
    23   13   14 1
    24   13   39 1
    25   14   18 1
    26   14   15 2
    27   15   16 1
    28   16   17 2
    29   16   40 1
    30   17   18 1
    31   17   19 1
    32   19   20 1
    33   19   41 1
    34   19   42 1
    35   20   25 ar
    36   20   21 ar
    37   21   22 ar
    38   21   43 1
    39   22   23 ar
    40   22   44 1
    41   23   24 ar
    42   23   45 1
    43   24   25 ar
    44   24   26 1
    45   25   46 1
    46   26   27 1
    47   26   28 1
    48   26   29 1
@<TRIPOS>MOLECULE
ZINC10971638
   42    44     0     0     0
SMALL
USER_CHARGES
3-methoxy-N-[5-[[3-(trifluoromethyl)phenyl]methyl]thiazol-2-yl]-benzamide
@<TRIPOS>ATOM
      1 C1         -0.0127    1.0858    0.0080 C.3       1 <0>         0.0248
      2 O1         -0.6816    1.5467    1.1837 O.3       1 <0>        -0.3124
      3 C2         -0.1488    1.1821    2.3797 C.ar      1 <0>         0.1253
      4 C3          0.9954    0.3962    2.4190 C.ar      1 <0>        -0.1789
      5 C4          1.5419    0.0223    3.6326 C.ar      1 <0>        -0.0819
      6 C5          0.9538    0.4276    4.8133 C.ar      1 <0>        -0.1255
      7 C6         -0.1965    1.2178    4.7839 C.ar      1 <0>        -0.0952
      8 C7         -0.7438    1.5991    3.5582 C.ar      1 <0>        -0.0875
      9 C8         -0.8290    1.6543    6.0465 C.2       1 <0>         0.5577
     10 O2         -1.8308    2.3424    6.0184 O.2       1 <0>        -0.4583
     11 N1         -0.2951    1.2895    7.2290 N.am      1 <0>        -0.6164
     12 C9         -0.8894    1.6998    8.4155 C.2       1 <0>         0.3049
     13 N2         -1.9636    2.4450    8.5899 N.2       1 <0>        -0.5096
     14 C10        -2.4004    2.7417    9.7981 C.2       1 <0>         0.0667
     15 C11        -1.7129    2.2709   10.8673 C.2       1 <0>        -0.1987
     16 S1         -0.4045    1.3694   10.0499 S.3       1 <0>         0.0647
     17 C12        -1.9785    2.4569   12.3390 C.3       1 <0>         0.0157
     18 C13        -2.8724    1.3484   12.8322 C.ar      1 <0>        -0.0847
     19 C14        -4.2459    1.5047   12.8061 C.ar      1 <0>        -0.0761
     20 C15        -5.0659    0.4865   13.2547 C.ar      1 <0>        -0.1161
     21 C16        -4.5125   -0.6848   13.7377 C.ar      1 <0>        -0.0704
     22 C17        -3.1393   -0.8391   13.7682 C.ar      1 <0>        -0.1801
     23 C18        -2.3192    0.1778   13.3158 C.ar      1 <0>        -0.0635
     24 C19        -2.5361   -2.1156   14.2951 C.3       1 <0>         0.5078
     25 F1         -2.3190   -1.9953   15.6719 F         1 <0>        -0.1755
     26 F2         -3.4111   -3.1799   14.0522 F         1 <0>        -0.1762
     27 F3         -1.3182   -2.3568   13.6502 F         1 <0>        -0.1764
     28 H1          0.0021   -0.0041    0.0020 H         1 <0>         0.0583
     29 H2          1.0099    1.4631    0.0003 H         1 <0>         0.0583
     30 H3         -0.5399    1.4469   -0.8751 H         1 <0>         0.1047
     31 H4          1.4602    0.0763    1.4982 H         1 <0>         0.1366
     32 H5          2.4321   -0.5888    3.6566 H         1 <0>         0.1367
     33 H6          1.3835    0.1340    5.7597 H         1 <0>         0.1281
     34 H7         -1.6311    2.2141    3.5289 H         1 <0>         0.1479
     35 H8          0.5043    0.7405    7.2515 H         1 <0>         0.4265
     36 H9         -3.2832    3.3491    9.9328 H         1 <0>         0.1726
     37 H10        -1.0350    2.4326   12.8844 H         1 <0>         0.0946
     38 H11        -2.4674    3.4174   12.5015 H         1 <0>         0.1070
     39 H12        -4.6781    2.4211   12.4323 H         1 <0>         0.1352
     40 H13        -6.1389    0.6073   13.2312 H         1 <0>         0.1377
     41 H14        -5.1532   -1.4790   14.0914 H         1 <0>         0.1368
     42 H15        -1.2462    0.0574   13.3400 H         1 <0>         0.1351
@<TRIPOS>BOND
     1    1    2 1
     2    1   28 1
     3    1   29 1
     4    1   30 1
     5    2    3 1
     6    3    8 ar
     7    3    4 ar
     8    4    5 ar
     9    4   31 1
    10    5    6 ar
    11    5   32 1
    12    6    7 ar
    13    6   33 1
    14    7    8 ar
    15    7    9 1
    16    8   34 1
    17    9   10 2
    18    9   11 am
    19   11   12 1
    20   11   35 1
    21   12   16 1
    22   12   13 2
    23   13   14 1
    24   14   15 2
    25   14   36 1
    26   15   16 1
    27   15   17 1
    28   17   18 1
    29   17   37 1
    30   17   38 1
    31   18   23 ar
    32   18   19 ar
    33   19   20 ar
    34   19   39 1
    35   20   21 ar
    36   20   40 1
    37   21   22 ar
    38   21   41 1
    39   22   23 ar
    40   22   24 1
    41   23   42 1
    42   24   25 1
    43   24   26 1
    44   24   27 1
@<TRIPOS>MOLECULE
ZINC10971696
   46    48     0     0     0
SMALL
USER_CHARGES
3,4-dimethoxy-N-[5-[[3-(trifluoromethyl)phenyl]methyl]thiazol-2-yl]-benzamide
@<TRIPOS>ATOM
      1 C1          3.0262    9.4307  -11.2414 C.3       1 <0>         0.0220
      2 O1          1.6138    9.3448  -11.0424 O.3       1 <0>        -0.2990
      3 C2          1.1875    8.9045   -9.8305 C.ar      1 <0>         0.1352
      4 C3          2.1125    8.5628   -8.8532 C.ar      1 <0>        -0.1811
      5 C4          1.6851    8.1202   -7.6203 C.ar      1 <0>        -0.0778
      6 C5          0.3182    8.0051   -7.3547 C.ar      1 <0>        -0.1364
      7 C6         -0.6130    8.3495   -8.3382 C.ar      1 <0>        -0.1091
      8 C7         -0.1778    8.7972   -9.5704 C.ar      1 <0>         0.0955
      9 O2         -1.0813    9.1327  -10.5300 O.3       1 <0>        -0.3021
     10 C8         -2.4639    8.9977  -10.1949 C.3       1 <0>         0.0219
     11 C9         -0.1412    7.5268   -6.0365 C.2       1 <0>         0.5610
     12 O3         -1.3311    7.4320   -5.8051 O.2       1 <0>        -0.4643
     13 N1          0.7581    7.1951   -5.0891 N.am      1 <0>        -0.6175
     14 C10         0.3257    6.7449   -3.8483 C.2       1 <0>         0.3061
     15 N2         -0.9074    6.5759   -3.4117 N.2       1 <0>        -0.5089
     16 C11        -1.1457    6.1295   -2.1940 C.2       1 <0>         0.0670
     17 C12        -0.0907    5.8566   -1.3879 C.2       1 <0>        -0.1985
     18 S1          1.2698    6.2602   -2.4738 S.3       1 <0>         0.0610
     19 C13        -0.0705    5.3471    0.0302 C.3       1 <0>         0.0158
     20 C14        -0.0501    3.8402    0.0223 C.ar      1 <0>        -0.0845
     21 C15         1.1565    3.1653    0.0076 C.ar      1 <0>        -0.0789
     22 C16         1.1752    1.7833    0.0004 C.ar      1 <0>        -0.1165
     23 C17        -0.0126    1.0758    0.0080 C.ar      1 <0>        -0.0725
     24 C18        -1.2188    1.7505    0.0173 C.ar      1 <0>        -0.1794
     25 C19        -1.2375    3.1329    0.0303 C.ar      1 <0>        -0.0596
     26 C20        -2.5135    0.9794    0.0192 C.3       1 <0>         0.5076
     27 F1         -2.2393   -0.3924    0.0104 F         1 <0>        -0.1767
     28 F2         -3.2463    1.3011    1.1668 F         1 <0>        -0.1757
     29 F3         -3.2571    1.3136   -1.1177 F         1 <0>        -0.1750
     30 H1          3.4716    8.4439  -11.1151 H         1 <0>         0.0593
     31 H2          3.2298    9.7950  -12.2484 H         1 <0>         0.1054
     32 H3          3.4547   10.1187  -10.5126 H         1 <0>         0.0593
     33 H4          3.1694    8.6477   -9.0585 H         1 <0>         0.1464
     34 H5          2.4068    7.8590   -6.8605 H         1 <0>         0.1311
     35 H6         -1.6705    8.2662   -8.1353 H         1 <0>         0.1524
     36 H7         -3.0751    9.2974  -11.0462 H         1 <0>         0.1055
     37 H8         -2.6768    7.9589   -9.9425 H         1 <0>         0.0588
     38 H9         -2.6944    9.6337   -9.3403 H         1 <0>         0.0588
     39 H10         1.7074    7.2708   -5.2737 H         1 <0>         0.4255
     40 H11        -2.1582    5.9882   -1.8456 H         1 <0>         0.1722
     41 H12        -0.9605    5.6956    0.5541 H         1 <0>         0.1055
     42 H13         0.8192    5.7199    0.5376 H         1 <0>         0.0960
     43 H14         2.0843    3.7180    0.0014 H         1 <0>         0.1325
     44 H15         2.1177    1.2561   -0.0115 H         1 <0>         0.1372
     45 H16         0.0021   -0.0041    0.0020 H         1 <0>         0.1394
     46 H17        -2.1800    3.6601    0.0422 H         1 <0>         0.1354
@<TRIPOS>BOND
     1    1    2 1
     2    1   30 1
     3    1   31 1
     4    1   32 1
     5    2    3 1
     6    3    8 ar
     7    3    4 ar
     8    4    5 ar
     9    4   33 1
    10    5    6 ar
    11    5   34 1
    12    6    7 ar
    13    6   11 1
    14    7    8 ar
    15    7   35 1
    16    8    9 1
    17    9   10 1
    18   10   36 1
    19   10   37 1
    20   10   38 1
    21   11   12 2
    22   11   13 am
    23   13   14 1
    24   13   39 1
    25   14   18 1
    26   14   15 2
    27   15   16 1
    28   16   17 2
    29   16   40 1
    30   17   18 1
    31   17   19 1
    32   19   20 1
    33   19   41 1
    34   19   42 1
    35   20   25 ar
    36   20   21 ar
    37   21   22 ar
    38   21   43 1
    39   22   23 ar
    40   22   44 1
    41   23   24 ar
    42   23   45 1
    43   24   25 ar
    44   24   26 1
    45   25   46 1
    46   26   27 1
    47   26   28 1
    48   26   29 1
