@<TRIPOS>MOLECULE
ZINC00013748
   28    30     0     0     0
SMALL
USER_CHARGES

@<TRIPOS>ATOM
      1 C1         -0.0167    1.3777    0.0096 C.ar      1 <0>        -0.0954
      2 C2          1.1697    2.0876    0.0021 C.ar      1 <0>        -0.1049
      3 C3          2.3784    1.4177   -0.0116 C.ar      1 <0>        -0.0981
      4 C4          2.4042    0.0310   -0.0192 C.ar      1 <0>         0.0329
      5 C5          1.2117   -0.6826   -0.0141 C.ar      1 <0>         0.0460
      6 C6          0.0021   -0.0041    0.0020 C.ar      1 <0>        -0.1042
      7 O1          1.2143   -2.0435   -0.0292 O.3       1 <0>        -0.2831
      8 C7          2.4407   -2.6888    0.3305 C.3       1 <0>         0.0319
      9 C8          3.5869   -1.9932   -0.4162 C.3       1 <0>         0.0648
     10 H1          3.4262   -2.0716   -1.4914 H         1 <0>         0.1391
     11 O2          3.6023   -0.6148   -0.0295 O.3       1 <0>        -0.2941
     12 C9          4.8981   -2.6394   -0.0500 C.cat     1 <0>         0.5242
     13 N1          5.2975   -2.7671    1.1936 N.pl3     1 <0>        -0.6146
     14 C10         6.6089   -3.4350    1.2165 C.3       1 <0>         0.0552
     15 C11         6.9063   -3.6783   -0.2777 C.3       1 <0>         0.0574
     16 N2          5.7221   -3.1209   -0.9509 N.pl3     1 <0>        -0.6160
     17 H2         -0.9596    1.9040    0.0259 H         1 <0>         0.1440
     18 H3          1.1518    3.1674    0.0066 H         1 <0>         0.1437
     19 H4          3.3037    1.9746   -0.0169 H         1 <0>         0.1411
     20 H5         -0.9261   -0.5562    0.0086 H         1 <0>         0.1448
     21 H6          2.5984   -2.6053    1.4058 H         1 <0>         0.0891
     22 H7          2.4005   -3.7400    0.0450 H         1 <0>         0.1382
     23 H8          7.3641   -2.7849    1.6584 H         1 <0>         0.1328
     24 H9          6.5499   -4.3802    1.7561 H         1 <0>         0.1335
     25 H10         7.8099   -3.1496   -0.5812 H         1 <0>         0.1334
     26 H11         6.9957   -4.7449   -0.4835 H         1 <0>         0.1330
     27 H12         5.5747   -3.1096   -1.9095 H         1 <0>         0.4633
     28 H13         4.8062   -2.4679    1.9745 H         1 <0>         0.4621
@<TRIPOS>BOND
     1    1    6 ar
     2    1    2 ar
     3    1   17 1
     4    2    3 ar
     5    2   18 1
     6    3    4 ar
     7    3   19 1
     8    4   11 1
     9    4    5 ar
    10    5    6 ar
    11    5    7 1
    12    6   20 1
    13    7    8 1
    14    8    9 1
    15    8   21 1
    16    8   22 1
    17    9   10 1
    18    9   11 1
    19    9   12 1
    20   12   16 1
    21   12   13 2
    22   13   14 1
    23   13   28 1
    24   14   15 1
    25   14   23 1
    26   14   24 1
    27   15   16 1
    28   15   25 1
    29   15   26 1
    30   16   27 1
@<TRIPOS>MOLECULE
ZINC00900630
   28    30     0     0     0
SMALL
USER_CHARGES

@<TRIPOS>ATOM
      1 C1         -0.0167    1.3777    0.0096 C.ar      1 <0>        -0.0954
      2 C2          1.1697    2.0876    0.0021 C.ar      1 <0>        -0.1049
      3 C3          2.3783    1.4178   -0.0143 C.ar      1 <0>        -0.0981
      4 C4          2.4042    0.0310   -0.0230 C.ar      1 <0>         0.0329
      5 C5          1.2117   -0.6826   -0.0129 C.ar      1 <0>         0.0461
      6 C6          0.0021   -0.0041    0.0020 C.ar      1 <0>        -0.1042
      7 O1          1.2145   -2.0436   -0.0133 O.3       1 <0>        -0.2832
      8 C7          2.4336   -2.6847   -0.4041 C.3       1 <0>         0.0320
      9 C8          3.5941   -1.9974    0.3280 C.3       1 <0>         0.0648
     10 H1          3.4543   -2.0880    1.4052 H         1 <0>         0.1391
     11 O2          3.6022   -0.6147   -0.0433 O.3       1 <0>        -0.2941
     12 C9          4.8979   -2.6393   -0.0710 C.cat     1 <0>         0.5240
     13 N1          5.2782   -2.7429   -1.3227 N.pl3     1 <0>        -0.6144
     14 C10         6.5877   -3.4123   -1.3789 C.3       1 <0>         0.0552
     15 C11         6.9072   -3.6858    0.1054 C.3       1 <0>         0.0573
     16 N2          5.7392   -3.1309    0.8082 N.pl3     1 <0>        -0.6159
     17 H2         -0.9596    1.9040    0.0259 H         1 <0>         0.1440
     18 H3          1.1518    3.1674    0.0087 H         1 <0>         0.1437
     19 H4          3.3037    1.9746   -0.0208 H         1 <0>         0.1411
     20 H5         -0.9261   -0.5562    0.0079 H         1 <0>         0.1448
     21 H6          2.3988   -3.7390   -0.1298 H         1 <0>         0.1382
     22 H7          2.5703   -2.5889   -1.4813 H         1 <0>         0.0891
     23 H8          6.5187   -4.3466   -1.9362 H         1 <0>         0.1335
     24 H9          7.3374   -2.7549   -1.8192 H         1 <0>         0.1328
     25 H10         6.9977   -4.7565    0.2887 H         1 <0>         0.1335
     26 H11         7.8164   -3.1648    0.4057 H         1 <0>         0.1329
     27 H12         5.6106   -3.1302    1.7696 H         1 <0>         0.4633
     28 H13         4.7751   -2.4283   -2.0901 H         1 <0>         0.4621
@<TRIPOS>BOND
     1    1    6 ar
     2    1    2 ar
     3    1   17 1
     4    2    3 ar
     5    2   18 1
     6    3    4 ar
     7    3   19 1
     8    4   11 1
     9    4    5 ar
    10    5    6 ar
    11    5    7 1
    12    6   20 1
    13    7    8 1
    14    8    9 1
    15    8   21 1
    16    8   22 1
    17    9   10 1
    18    9   11 1
    19    9   12 1
    20   12   16 1
    21   12   13 2
    22   13   14 1
    23   13   28 1
    24   14   15 1
    25   14   23 1
    26   14   24 1
    27   15   16 1
    28   15   25 1
    29   15   26 1
    30   16   27 1
@<TRIPOS>MOLECULE
ZINC03977785
   53    57     0     0     0
SMALL
USER_CHARGES

@<TRIPOS>ATOM
      1 C1         -0.0173    1.4248    0.0099 C.3       1 <0>         0.0297
      2 O1          0.0021   -0.0041    0.0020 O.3       1 <0>        -0.3232
      3 C2          0.5984   -0.5997   -1.0427 C.2       1 <0>         0.4702
      4 O2          1.0877    0.0699   -1.9214 O.2       1 <0>        -0.5141
      5 C3          0.6575   -2.1036   -1.1196 C.3       1 <0>        -0.0705
      6 H1         -0.3553   -2.5061   -1.1292 H         1 <0>         0.1302
      7 C4          1.4092   -2.6460    0.0974 C.3       1 <0>         0.1112
      8 H2          2.4212   -2.2414    0.1100 H         1 <0>         0.0602
      9 C5          1.4705   -4.1729    0.0153 C.3       1 <0>        -0.1515
     10 C6          2.2113   -4.5823   -1.2587 C.3       1 <0>        -0.1326
     11 C7          1.4664   -4.0438   -2.4826 C.3       1 <0>        -0.1081
     12 H3          0.4649   -4.4724   -2.5190 H         1 <0>         0.1315
     13 C8          1.3810   -2.5185   -2.3989 C.3       1 <0>        -0.0737
     14 H4          0.8319   -2.1415   -3.2617 H         1 <0>         0.1077
     15 C9          2.7928   -1.9262   -2.4160 C.3       1 <0>        -0.1589
     16 C10         3.5103   -2.3981   -3.6821 C.3       1 <0>         0.1155
     17 H5          2.9548   -2.0679   -4.5599 H         1 <0>         0.1495
     18 C11         4.9074   -1.8328   -3.7280 C.2       1 <0>         0.0218
     19 C12         5.9794   -2.5662   -4.1107 C.2       1 <0>        -0.1593
     20 C13         7.1369   -1.7045   -4.0313 C.ar      1 <0>        -0.1001
     21 C14         8.4945   -1.9085   -4.2980 C.ar      1 <0>        -0.0651
     22 C15         9.3323   -0.8371   -4.1111 C.ar      1 <0>        -0.1355
     23 C16         8.8675    0.3940   -3.6782 C.ar      1 <0>        -0.0814
     24 C17         7.5302    0.6240   -3.4055 C.ar      1 <0>        -0.1278
     25 C18         6.6557   -0.4455   -3.5858 C.ar      1 <0>         0.1112
     26 N1          5.3059   -0.5632   -3.4122 N.pl3     1 <0>        -0.5610
     27 H6          4.7183    0.1471   -3.1102 H         1 <0>         0.4235
     28 C19         5.8873   -4.0118   -4.5303 C.3       1 <0>        -0.0680
     29 C20         4.4103   -4.3357   -4.7986 C.3       1 <0>        -0.0070
     30 N2          3.5921   -3.8652   -3.6762 N.4       1 <0>        -0.3805
     31 C21         2.2397   -4.4350   -3.7475 C.3       1 <0>         0.0000
     32 O3          0.7259   -2.2590    1.2913 O.3       1 <0>        -0.5457
     33 H7          1.0053    1.8021    0.0021 H         1 <0>         0.0611
     34 H8         -0.5445    1.7859   -0.8732 H         1 <0>         0.0635
     35 H9         -0.5275    1.7763    0.9067 H         1 <0>         0.1087
     36 H10         1.9994   -4.5630    0.8849 H         1 <0>         0.0864
     37 H11         0.4583   -4.5769   -0.0067 H         1 <0>         0.0895
     38 H12         3.2209   -4.1721   -1.2390 H         1 <0>         0.0596
     39 H13         2.2629   -5.6696   -1.3148 H         1 <0>         0.0926
     40 H14         2.7325   -0.8379   -2.4143 H         1 <0>         0.1358
     41 H15         3.3417   -2.2650   -1.5373 H         1 <0>         0.0927
     42 H16         8.8666   -2.8645   -4.6357 H         1 <0>         0.1349
     43 H17        10.3874   -0.9579   -4.3074 H         1 <0>         0.1281
     44 H18         9.5726    1.2018   -3.5488 H         1 <0>         0.1313
     45 H19         7.1805    1.5885   -3.0678 H         1 <0>         0.1353
     46 H20         6.4698   -4.1697   -5.4380 H         1 <0>         0.1220
     47 H21         6.2658   -4.6516   -3.7331 H         1 <0>         0.0994
     48 H22         4.0893   -3.8376   -5.7134 H         1 <0>         0.1324
     49 H23         4.2888   -5.4132   -4.9094 H         1 <0>         0.1402
     50 H24         2.3054   -5.5210   -3.8133 H         1 <0>         0.1424
     51 H25         1.7237   -4.0459   -4.6252 H         1 <0>         0.1366
     52 H26         1.1478   -2.5695    2.1041 H         1 <0>         0.3887
     53 H27         4.0203   -4.1656   -2.8134 H         1 <0>         0.4208
@<TRIPOS>BOND
     1    1    2 1
     2    1   33 1
     3    1   34 1
     4    1   35 1
     5    2    3 1
     6    3    4 2
     7    3    5 1
     8    5    6 1
     9    5   13 1
    10    5    7 1
    11    7    8 1
    12    7    9 1
    13    7   32 1
    14    9   10 1
    15    9   36 1
    16    9   37 1
    17   10   11 1
    18   10   38 1
    19   10   39 1
    20   11   12 1
    21   11   31 1
    22   11   13 1
    23   13   14 1
    24   13   15 1
    25   15   16 1
    26   15   40 1
    27   15   41 1
    28   16   17 1
    29   16   30 1
    30   16   18 1
    31   18   26 1
    32   18   19 2
    33   19   20 1
    34   19   28 1
    35   20   25 ar
    36   20   21 ar
    37   21   22 ar
    38   21   42 1
    39   22   23 ar
    40   22   43 1
    41   23   24 ar
    42   23   44 1
    43   24   25 ar
    44   24   45 1
    45   25   26 1
    46   26   27 1
    47   28   29 1
    48   28   46 1
    49   28   47 1
    50   29   30 1
    51   29   48 1
    52   29   49 1
    53   30   31 1
    54   30   53 1
    55   31   50 1
    56   31   51 1
    57   32   52 1
@<TRIPOS>MOLECULE
ZINC05117657
   29    31     0     0     0
SMALL
USER_CHARGES
8-piperazin-1-ylimidazo[1,2-a]pyrazine
@<TRIPOS>ATOM
      1 C1         -0.0126    1.0758    0.0080 C.2       1 <0>         0.0362
      2 C2         -1.1228    1.8517    0.0168 C.2       1 <0>        -0.0561
      3 N1         -0.7065    3.1468    0.0257 N.pl3     1 <0>        -0.3436
      4 C3         -1.3609    4.3513    0.0380 C.2       1 <0>         0.0026
      5 C4         -0.6556    5.4994    0.0371 C.2       1 <0>         0.0618
      6 N2          0.6815    5.4944    0.0243 N.2       1 <0>        -0.5008
      7 C5          1.3611    4.3655    0.0121 C.2       1 <0>         0.3834
      8 C6          0.6649    3.1304    0.0125 C.2       1 <0>         0.1525
      9 N3          1.0593    1.8691    0.0020 N.2       1 <0>        -0.4591
     10 N4          2.7467    4.3854   -0.0015 N.pl3     1 <0>        -0.4617
     11 C7          3.2729    3.6358   -1.1507 C.3       1 <0>         0.0240
     12 C8          4.8019    3.6144   -1.0856 C.3       1 <0>         0.0048
     13 C9          4.7827    5.7434    0.0659 C.3       1 <0>        -0.0006
     14 C10         3.2537    5.7647    0.0008 C.3       1 <0>         0.0348
     15 H1          0.0021   -0.0041    0.0020 H         1 <0>         0.1945
     16 H2         -2.1463    1.5069    0.0187 H         1 <0>         0.1965
     17 H3         -2.4405    4.3800    0.0481 H         1 <0>         0.1809
     18 H4         -1.1810    6.4429    0.0472 H         1 <0>         0.1881
     19 H5          2.8935    2.6144   -1.1232 H         1 <0>         0.1475
     20 H6          2.9550    4.1174   -2.0754 H         1 <0>         0.0713
     21 H7          5.1954    3.0837   -1.9526 H         1 <0>         0.1454
     22 H8          5.1200    3.1086   -0.1740 H         1 <0>         0.1445
     23 H9          5.1621    6.7648    0.0384 H         1 <0>         0.1447
     24 H10         5.1006    5.2621    0.9907 H         1 <0>         0.1411
     25 H11         2.9356    6.2706   -0.9109 H         1 <0>         0.0805
     26 H12         2.8602    6.2954    0.8677 H         1 <0>         0.1347
     27 N5          5.3150    4.9975   -1.0902 N.4       1 <0>        -0.5204
     28 H13         5.0244    5.4640   -1.9575 H         1 <0>         0.4316
     29 H14         6.3403    4.9789   -1.0386 H         1 <0>         0.4408
@<TRIPOS>BOND
     1    1    9 1
     2    1    2 2
     3    1   15 1
     4    2    3 1
     5    2   16 1
     6    3    8 1
     7    3    4 1
     8    4    5 2
     9    4   17 1
    10    5    6 1
    11    5   18 1
    12    6    7 2
    13    7    8 1
    14    7   10 1
    15    8    9 2
    16   10   14 1
    17   10   11 1
    18   11   12 1
    19   11   19 1
    20   11   20 1
    21   12   21 1
    22   12   22 1
    23   12   27 1
    24   13   14 1
    25   13   23 1
    26   13   24 1
    27   13   27 1
    28   14   25 1
    29   14   26 1
    30   27   28 1
    31   27   29 1
@<TRIPOS>MOLECULE
ZINC05117657
   30    32     0     0     0
SMALL
USER_CHARGES
8-piperazin-1-ylimidazo[1,2-a]pyrazine
@<TRIPOS>ATOM
      1 C1         -0.0126    1.0758    0.0080 C.2       1 <0>         0.0897
      2 C2         -1.1228    1.8517    0.0168 C.2       1 <0>         0.0019
      3 N1         -0.7065    3.1468    0.0257 N.pl3     1 <0>        -0.2882
      4 C3         -1.3609    4.3513    0.0380 C.2       1 <0>         0.0288
      5 C4         -0.6556    5.4994    0.0371 C.2       1 <0>         0.1118
      6 N2          0.6815    5.4944    0.0243 N.2       1 <0>        -0.4399
      7 C5          1.3611    4.3655    0.0121 C.2       1 <0>         0.3599
      8 C6          0.6649    3.1304    0.0125 C.cat     1 <0>         0.2194
      9 N3          2.7467    4.3854   -0.0015 N.pl3     1 <0>        -0.4741
     10 C7          3.2729    3.6358   -1.1507 C.3       1 <0>         0.0180
     11 C8          4.8019    3.6144   -1.0856 C.3       1 <0>         0.0023
     12 C9          4.7827    5.7434    0.0659 C.3       1 <0>        -0.0029
     13 C10         3.2537    5.7647    0.0008 C.3       1 <0>         0.0346
     14 H1          0.0021   -0.0041    0.0020 H         1 <0>         0.2440
     15 H2         -2.1463    1.5069    0.0187 H         1 <0>         0.2411
     16 H3         -2.4405    4.3800    0.0481 H         1 <0>         0.2200
     17 H4         -1.1810    6.4429    0.0472 H         1 <0>         0.2203
     18 H5          2.8935    2.6144   -1.1232 H         1 <0>         0.1109
     19 H6          2.9550    4.1174   -2.0754 H         1 <0>         0.0949
     20 H7          5.1954    3.0837   -1.9526 H         1 <0>         0.1557
     21 H8          5.1200    3.1086   -0.1740 H         1 <0>         0.1486
     22 H9          5.1621    6.7648    0.0384 H         1 <0>         0.1564
     23 H10         5.1006    5.2621    0.9907 H         1 <0>         0.1466
     24 H11         2.9356    6.2706   -0.9109 H         1 <0>         0.0943
     25 H12         2.8602    6.2954    0.8677 H         1 <0>         0.1454
     26 N4          5.3150    4.9975   -1.0902 N.4       1 <0>        -0.5213
     27 H13         5.0244    5.4640   -1.9575 H         1 <0>         0.4369
     28 H14         6.3403    4.9789   -1.0386 H         1 <0>         0.4514
     29 N5          1.0573    1.8697    0.0020 N.pl3     1 <0>        -0.4842
     30 H15         2.0334    1.5514   -0.0090 H         1 <0>         0.4776
@<TRIPOS>BOND
     1    1    2 2
     2    1   14 1
     3    1   29 1
     4    2    3 1
     5    2   15 1
     6    3    8 1
     7    3    4 1
     8    4    5 2
     9    4   16 1
    10    5    6 1
    11    5   17 1
    12    6    7 2
    13    7    8 1
    14    7    9 1
    15    8   29 2
    16    9   13 1
    17    9   10 1
    18   10   11 1
    19   10   18 1
    20   10   19 1
    21   11   20 1
    22   11   21 1
    23   11   26 1
    24   12   13 1
    25   12   22 1
    26   12   23 1
    27   12   26 1
    28   13   24 1
    29   13   25 1
    30   26   27 1
    31   26   28 1
    32   29   30 1
@<TRIPOS>MOLECULE
ZINC00896484
   23    24     0     0     0
SMALL
USER_CHARGES

@<TRIPOS>ATOM
      1 C1         -0.0167    1.3793    0.0096 C.ar      1 <0>        -0.1251
      2 C2          1.1680    2.0938    0.0022 C.ar      1 <0>        -0.0904
      3 C3          2.3785    1.4297   -0.0129 C.ar      1 <0>        -0.0648
      4 C4          2.4050    0.0334   -0.0206 C.ar      1 <0>         0.1769
      5 C5          1.2052   -0.6814   -0.0130 C.ar      1 <0>        -0.0649
      6 C6          0.0021   -0.0041    0.0020 C.ar      1 <0>        -0.0904
      7 Cl1         1.2264   -2.4172   -0.0231 Cl        1 <0>        -0.0561
      8 N1          3.6030   -0.6324   -0.0361 N.2       1 <0>        -0.6265
      9 C7          4.1879   -0.9573    1.0933 C.2       1 <0>         0.6631
     10 N2          3.6659   -0.6737    2.3229 N.pl3     1 <0>        -0.7535
     11 C8          4.5775   -1.1780    3.3591 C.3       1 <0>         0.0928
     12 C9          5.7389   -1.8145    2.5745 C.3       1 <0>         0.1005
     13 N3          5.3800   -1.6198    1.1630 N.pl3     1 <0>        -0.7140
     14 Cl2         3.8638    2.3282   -0.0229 Cl        1 <0>        -0.0561
     15 H1         -0.9606    1.9039    0.0260 H         1 <0>         0.1385
     16 H2          1.1460    3.1736    0.0078 H         1 <0>         0.1363
     17 H3         -0.9265   -0.5555    0.0082 H         1 <0>         0.1363
     18 H4          4.9410   -0.3577    3.9780 H         1 <0>         0.0821
     19 H5          4.0780   -1.9269    3.9736 H         1 <0>         0.0822
     20 H6          6.6764   -1.3088    2.8056 H         1 <0>         0.0847
     21 H7          5.8134   -2.8781    2.8012 H         1 <0>         0.0844
     22 H8          5.9064   -1.9129    0.4028 H         1 <0>         0.4371
     23 H9          2.8280   -0.2130    2.4861 H         1 <0>         0.4271
@<TRIPOS>BOND
     1    1    6 ar
     2    1    2 ar
     3    1   15 1
     4    2    3 ar
     5    2   16 1
     6    3    4 ar
     7    3   14 1
     8    4    5 ar
     9    4    8 1
    10    5    6 ar
    11    5    7 1
    12    6   17 1
    13    8    9 2
    14    9   13 1
    15    9   10 1
    16   10   11 1
    17   10   23 1
    18   11   12 1
    19   11   18 1
    20   11   19 1
    21   12   13 1
    22   12   20 1
    23   12   21 1
    24   13   22 1
@<TRIPOS>MOLECULE
ZINC03860825
   53    57     0     0     0
SMALL
USER_CHARGES

@<TRIPOS>ATOM
      1 C1         -0.0173    1.4248    0.0099 C.3       1 <0>         0.0327
      2 O1          0.0021   -0.0041    0.0020 O.3       1 <0>        -0.3479
      3 C2          0.5984   -0.5997   -1.0427 C.2       1 <0>         0.4737
      4 O2          1.0877    0.0699   -1.9214 O.2       1 <0>        -0.5039
      5 C3          0.6575   -2.1036   -1.1196 C.3       1 <0>        -0.0650
      6 H1          1.1947   -2.4917   -0.2542 H         1 <0>         0.1260
      7 C4         -0.7643   -2.6714   -1.1364 C.3       1 <0>         0.1104
      8 H2         -1.2823   -2.3789   -0.2230 H         1 <0>         0.0803
      9 C5         -0.7098   -4.1973   -1.2238 C.3       1 <0>        -0.1531
     10 C6          0.0283   -4.6160   -2.4980 C.3       1 <0>        -0.1090
     11 C7          1.4478   -4.0496   -2.4652 C.3       1 <0>        -0.1066
     12 H3          1.9678   -4.4265   -1.5844 H         1 <0>         0.0984
     13 C8          1.3811   -2.5214   -2.3995 C.3       1 <0>        -0.0762
     14 H4          0.8340   -2.1460   -3.2643 H         1 <0>         0.1112
     15 C9          2.8021   -1.9525   -2.4146 C.3       1 <0>        -0.1520
     16 C10         3.5142   -2.4494   -3.6743 C.3       1 <0>         0.1158
     17 H5          2.9655   -2.1183   -4.5560 H         1 <0>         0.1480
     18 C11         4.9207   -1.9091   -3.7260 C.2       1 <0>         0.0226
     19 C12         5.9775   -2.6629   -4.1115 C.2       1 <0>        -0.1599
     20 C13         7.1508   -1.8219   -4.0411 C.ar      1 <0>        -0.1001
     21 C14         8.5026   -2.0504   -4.3178 C.ar      1 <0>        -0.0652
     22 C15         9.3608   -0.9941   -4.1376 C.ar      1 <0>        -0.1357
     23 C16         8.9212    0.2451   -3.7015 C.ar      1 <0>        -0.0818
     24 C17         7.5903    0.4991   -3.4190 C.ar      1 <0>        -0.1277
     25 C18         6.6952   -0.5542   -3.5938 C.ar      1 <0>         0.1109
     26 N1          5.3444   -0.6471   -3.4127 N.pl3     1 <0>        -0.5612
     27 H6          4.7717    0.0739   -3.1078 H         1 <0>         0.4234
     28 C19         5.8580   -4.1083   -4.5249 C.3       1 <0>        -0.0677
     29 C20         4.3745   -4.4075   -4.7852 C.3       1 <0>        -0.0061
     30 N2          3.5745   -3.9171   -3.6582 N.4       1 <0>        -0.3774
     31 C21         2.2119   -4.4657   -3.7230 C.3       1 <0>         0.0006
     32 O3         -1.4686   -2.1563   -2.2680 O.3       1 <0>        -0.5638
     33 H7          1.0053    1.8021    0.0021 H         1 <0>         0.0628
     34 H8         -0.5445    1.7859   -0.8732 H         1 <0>         0.0656
     35 H9         -0.5275    1.7763    0.9067 H         1 <0>         0.1087
     36 H10        -0.1842   -4.5917   -0.3542 H         1 <0>         0.0829
     37 H11        -1.7242   -4.5957   -1.2448 H         1 <0>         0.0871
     38 H12         0.0713   -5.7038   -2.5532 H         1 <0>         0.0818
     39 H13        -0.4991   -4.2269   -3.3690 H         1 <0>         0.0847
     40 H14         2.7600   -0.8634   -2.4237 H         1 <0>         0.1318
     41 H15         3.3419   -2.2929   -1.5309 H         1 <0>         0.0903
     42 H16         8.8550   -3.0132   -4.6571 H         1 <0>         0.1348
     43 H17        10.4120   -1.1338   -4.3420 H         1 <0>         0.1279
     44 H18         9.6417    1.0401   -3.5774 H         1 <0>         0.1311
     45 H19         7.2605    1.4697   -3.0791 H         1 <0>         0.1352
     46 H20         6.4334   -4.2800   -5.4346 H         1 <0>         0.1209
     47 H21         6.2289   -4.7515   -3.7269 H         1 <0>         0.0998
     48 H22         4.0584   -3.9085   -5.7013 H         1 <0>         0.1319
     49 H23         4.2337   -5.4833   -4.8902 H         1 <0>         0.1399
     50 H24         2.2638   -5.5532   -3.7749 H         1 <0>         0.1399
     51 H25         1.6991   -4.0815   -4.6048 H         1 <0>         0.1347
     52 H26        -2.3787   -2.4743   -2.3430 H         1 <0>         0.3915
     53 H27         4.0031   -4.2176   -2.7956 H         1 <0>         0.4231
@<TRIPOS>BOND
     1    1    2 1
     2    1   33 1
     3    1   34 1
     4    1   35 1
     5    2    3 1
     6    3    4 2
     7    3    5 1
     8    5    6 1
     9    5   13 1
    10    5    7 1
    11    7    8 1
    12    7    9 1
    13    7   32 1
    14    9   10 1
    15    9   36 1
    16    9   37 1
    17   10   11 1
    18   10   38 1
    19   10   39 1
    20   11   12 1
    21   11   31 1
    22   11   13 1
    23   13   14 1
    24   13   15 1
    25   15   16 1
    26   15   40 1
    27   15   41 1
    28   16   17 1
    29   16   30 1
    30   16   18 1
    31   18   26 1
    32   18   19 2
    33   19   20 1
    34   19   28 1
    35   20   25 ar
    36   20   21 ar
    37   21   22 ar
    38   21   42 1
    39   22   23 ar
    40   22   43 1
    41   23   24 ar
    42   23   44 1
    43   24   25 ar
    44   24   45 1
    45   25   26 1
    46   26   27 1
    47   28   29 1
    48   28   46 1
    49   28   47 1
    50   29   30 1
    51   29   48 1
    52   29   49 1
    53   30   31 1
    54   30   53 1
    55   31   50 1
    56   31   51 1
    57   32   52 1
@<TRIPOS>MOLECULE
ZINC27719434
   30    32     0     0     0
SMALL
USER_CHARGES
(10aS)-5,7,8,9,10,10a-hexahydro-4H-thiazolo[5,4-h]quinolizin-2-amine
@<TRIPOS>ATOM
      1 C1          0.3999    4.1607   -0.9312 C.3       1 <0>        -0.1410
      2 C2         -0.9839    3.5055   -0.9359 C.3       1 <0>        -0.1482
      3 C3         -0.8274    1.9913   -1.0958 C.3       1 <0>        -0.0010
      4 N1         -0.0178    1.4643    0.0101 N.4       1 <0>        -0.3989
      5 C4          0.0021   -0.0041    0.0020 C.3       1 <0>         0.0022
      6 C5          0.4955   -0.5032    1.3715 C.3       1 <0>        -0.0439
      7 C6          1.7016    0.2931    1.7370 C.2       1 <0>        -0.2855
      8 C7          2.1278    1.4451    1.1541 C.2       1 <0>         0.0979
      9 N2          3.2398    1.9751    1.6558 N.2       1 <0>        -0.5929
     10 C8          3.8906    1.4193    2.6586 C.2       1 <0>         0.3874
     11 S1          2.9199    0.0152    2.9907 S.3       1 <0>         0.0993
     12 N3          5.0509    1.8445    3.2864 N.pl3     1 <0>        -0.8100
     13 C9          1.3317    2.0415    0.0003 C.3       1 <0>         0.1259
     14 H1          1.7913    1.7985   -0.9691 H         1 <0>         0.1432
     15 C10         1.2399    3.5563    0.1977 C.3       1 <0>        -0.1277
     16 H2          0.2948    5.2438   -0.7705 H         1 <0>         0.0965
     17 H3          0.8971    3.9797   -1.8956 H         1 <0>         0.0823
     18 H4         -1.4963    3.7242    0.0126 H         1 <0>         0.0889
     19 H5         -1.5757    3.9045   -1.7729 H         1 <0>         0.1143
     20 H6         -1.8197    1.5167   -1.0828 H         1 <0>         0.1355
     21 H7         -0.3291    1.7731   -2.0519 H         1 <0>         0.1280
     22 H8         -1.0127   -0.3835   -0.1886 H         1 <0>         0.1431
     23 H9          0.6801   -0.3573   -0.7889 H         1 <0>         0.1296
     24 H10        -0.2974   -0.3619    2.1207 H         1 <0>         0.1049
     25 H11         0.7489   -1.5714    1.3029 H         1 <0>         0.1222
     26 H12         5.4716    1.2608    4.1185 H         1 <0>         0.4544
     27 H13         5.5510    2.7656    2.9526 H         1 <0>         0.4485
     28 H14         2.2492    3.9932    0.1780 H         1 <0>         0.1191
     29 H15         0.7648    3.7745    1.1655 H         1 <0>         0.0868
     30 H16        -0.4888    1.7708    0.9557 H         1 <0>         0.4391
@<TRIPOS>BOND
     1    1   15 1
     2    1    2 1
     3    1   16 1
     4    1   17 1
     5    2    3 1
     6    2   18 1
     7    2   19 1
     8    3    4 1
     9    3   20 1
    10    3   21 1
    11    4   13 1
    12    4    5 1
    13    4   30 1
    14    5    6 1
    15    5   22 1
    16    5   23 1
    17    6    7 1
    18    6   24 1
    19    6   25 1
    20    7   11 1
    21    7    8 2
    22    8    9 1
    23    8   13 1
    24    9   10 2
    25   10   11 1
    26   10   12 1
    27   12   26 1
    28   12   27 1
    29   13   14 1
    30   13   15 1
    31   15   28 1
    32   15   29 1
@<TRIPOS>MOLECULE
ZINC27719434
   31    33     0     0     0
SMALL
USER_CHARGES
(10aS)-5,7,8,9,10,10a-hexahydro-4H-thiazolo[5,4-h]quinolizin-2-amine
@<TRIPOS>ATOM
      1 C1          0.3999    4.1607   -0.9312 C.3       1 <0>        -0.1399
      2 C2         -0.9839    3.5055   -0.9359 C.3       1 <0>        -0.1522
      3 C3         -0.8274    1.9913   -1.0958 C.3       1 <0>        -0.0037
      4 N1         -0.0178    1.4643    0.0101 N.4       1 <0>        -0.3998
      5 C4          0.0021   -0.0041    0.0020 C.3       1 <0>        -0.0048
      6 C5          0.4955   -0.5032    1.3715 C.3       1 <0>        -0.0667
      7 C6          1.7016    0.2931    1.7370 C.2       1 <0>        -0.1932
      8 C7          2.1278    1.4451    1.1541 C.2       1 <0>         0.0514
      9 N2          3.2398    1.9751    1.6558 N.pl3     1 <0>        -0.5662
     10 C8          3.8906    1.4193    2.6586 C.cat     1 <0>         0.3772
     11 S1          2.9199    0.0152    2.9907 S.3       1 <0>         0.3448
     12 N3          5.0509    1.8445    3.2864 N.pl3     1 <0>        -0.7580
     13 C9          1.3317    2.0415    0.0003 C.3       1 <0>         0.1136
     14 H1          1.7913    1.7985   -0.9691 H         1 <0>         0.1667
     15 C10         1.2399    3.5563    0.1977 C.3       1 <0>        -0.1479
     16 H2          0.2948    5.2438   -0.7705 H         1 <0>         0.1075
     17 H3          0.8971    3.9797   -1.8956 H         1 <0>         0.0904
     18 H4         -1.4963    3.7242    0.0126 H         1 <0>         0.0942
     19 H5         -1.5757    3.9045   -1.7729 H         1 <0>         0.1256
     20 H6         -1.8197    1.5167   -1.0828 H         1 <0>         0.1478
     21 H7         -0.3291    1.7731   -2.0519 H         1 <0>         0.1358
     22 H8         -1.0127   -0.3835   -0.1886 H         1 <0>         0.1620
     23 H9          0.6801   -0.3573   -0.7889 H         1 <0>         0.1409
     24 H10        -0.2974   -0.3619    2.1207 H         1 <0>         0.1350
     25 H11         0.7489   -1.5714    1.3029 H         1 <0>         0.1506
     26 H12         5.4716    1.2608    4.1185 H         1 <0>         0.4924
     27 H13         5.5510    2.7656    2.9526 H         1 <0>         0.4711
     28 H14         2.2492    3.9932    0.1780 H         1 <0>         0.1100
     29 H15         0.7648    3.7745    1.1655 H         1 <0>         0.1013
     30 H16         3.6443    2.9067    1.2333 H         1 <0>         0.4694
     31 H17        -0.4888    1.7708    0.9557 H         1 <0>         0.4449
@<TRIPOS>BOND
     1    1   15 1
     2    1    2 1
     3    1   16 1
     4    1   17 1
     5    2    3 1
     6    2   18 1
     7    2   19 1
     8    3    4 1
     9    3   20 1
    10    3   21 1
    11    4   13 1
    12    4    5 1
    13    4   31 1
    14    5    6 1
    15    5   22 1
    16    5   23 1
    17    6    7 1
    18    6   24 1
    19    6   25 1
    20    7   11 1
    21    7    8 2
    22    8    9 1
    23    8   13 1
    24    9   10 2
    25    9   30 1
    26   10   11 1
    27   10   12 1
    28   12   26 1
    29   12   27 1
    30   13   14 1
    31   13   15 1
    32   15   28 1
    33   15   29 1
@<TRIPOS>MOLECULE
ZINC27719434
   30    32     0     0     0
SMALL
USER_CHARGES
(10aS)-5,7,8,9,10,10a-hexahydro-4H-thiazolo[5,4-h]quinolizin-2-amine
@<TRIPOS>ATOM
      1 C1          0.3999    4.1607   -0.9312 C.3       1 <0>        -0.1241
      2 C2         -0.9839    3.5055   -0.9359 C.3       1 <0>        -0.1243
      3 C3         -0.8274    1.9913   -1.0958 C.3       1 <0>         0.0581
      4 N1         -0.0178    1.4643    0.0101 N.3       1 <0>        -0.5419
      5 C4          0.0021   -0.0041    0.0020 C.3       1 <0>         0.0542
      6 C5          0.4955   -0.5032    1.3715 C.3       1 <0>        -0.0414
      7 C6          1.7016    0.2931    1.7370 C.2       1 <0>        -0.1521
      8 C7          2.1278    1.4451    1.1541 C.2       1 <0>         0.0745
      9 N2          3.2398    1.9751    1.6558 N.pl3     1 <0>        -0.5574
     10 C8          3.8906    1.4193    2.6586 C.cat     1 <0>         0.3623
     11 S1          2.9199    0.0152    2.9907 S.3       1 <0>         0.2744
     12 N3          5.0509    1.8445    3.2864 N.pl3     1 <0>        -0.7813
     13 C9          1.3317    2.0415    0.0003 C.3       1 <0>         0.1557
     14 H1          1.7913    1.7985   -0.9691 H         1 <0>         0.0834
     15 C10         1.2399    3.5563    0.1977 C.3       1 <0>        -0.1175
     16 H2          0.2948    5.2438   -0.7705 H         1 <0>         0.0785
     17 H3          0.8971    3.9797   -1.8956 H         1 <0>         0.0675
     18 H4         -1.4963    3.7242    0.0126 H         1 <0>         0.0776
     19 H5         -1.5757    3.9045   -1.7729 H         1 <0>         0.0807
     20 H6         -1.8197    1.5167   -1.0828 H         1 <0>         0.0931
     21 H7         -0.3291    1.7731   -2.0519 H         1 <0>         0.0448
     22 H8         -1.0127   -0.3835   -0.1886 H         1 <0>         0.1073
     23 H9          0.6801   -0.3573   -0.7889 H         1 <0>         0.0522
     24 H10        -0.2974   -0.3619    2.1207 H         1 <0>         0.1141
     25 H11         0.7489   -1.5714    1.3029 H         1 <0>         0.1084
     26 H12         5.4716    1.2608    4.1185 H         1 <0>         0.4814
     27 H13         5.5510    2.7656    2.9526 H         1 <0>         0.4608
     28 H14         2.2492    3.9932    0.1780 H         1 <0>         0.0660
     29 H15         0.7648    3.7745    1.1655 H         1 <0>         0.0842
     30 H16         3.6443    2.9067    1.2333 H         1 <0>         0.4608
@<TRIPOS>BOND
     1    1   15 1
     2    1    2 1
     3    1   16 1
     4    1   17 1
     5    2    3 1
     6    2   18 1
     7    2   19 1
     8    3    4 1
     9    3   20 1
    10    3   21 1
    11    4   13 1
    12    4    5 1
    13    5    6 1
    14    5   22 1
    15    5   23 1
    16    6    7 1
    17    6   24 1
    18    6   25 1
    19    7   11 1
    20    7    8 2
    21    8    9 1
    22    8   13 1
    23    9   10 2
    24    9   30 1
    25   10   11 1
    26   10   12 1
    27   12   26 1
    28   12   27 1
    29   13   14 1
    30   13   15 1
    31   15   28 1
    32   15   29 1
@<TRIPOS>MOLECULE
ZINC27719441
   30    32     0     0     0
SMALL
USER_CHARGES
(10aR)-5,7,8,9,10,10a-hexahydro-4H-thiazolo[5,4-h]quinolizin-2-amine
@<TRIPOS>ATOM
      1 C1         -2.1960    1.0804   -1.2056 C.3       1 <0>        -0.1410
      2 C2         -0.7536    1.5932   -1.2316 C.3       1 <0>        -0.1482
      3 C3         -0.0127    1.0858    0.0080 C.3       1 <0>        -0.0009
      4 N1         -0.7005    1.5596    1.2157 N.4       1 <0>        -0.3987
      5 C4          0.0776    1.2614    2.4233 C.3       1 <0>         0.0016
      6 C5         -0.4577    2.1166    3.5854 C.3       1 <0>        -0.0439
      7 C6         -1.9453    2.0199    3.5714 C.2       1 <0>        -0.2856
      8 C7         -2.7237    1.5403    2.5651 C.2       1 <0>         0.0980
      9 N2         -4.0351    1.5523    2.7869 N.2       1 <0>        -0.5929
     10 C8         -4.5514    2.0025    3.9133 C.2       1 <0>         0.3874
     11 S1         -3.1333    2.4733    4.8028 S.3       1 <0>         0.0993
     12 N3         -5.8827    2.0813    4.2912 N.pl3     1 <0>        -0.8100
     13 C9         -2.0692    1.0336    1.2862 C.3       1 <0>         0.1260
     14 H1         -2.0054   -0.0645    1.2792 H         1 <0>         0.1433
     15 C10        -2.8730    1.5434    0.0876 C.3       1 <0>        -0.1277
     16 H2         -2.1974   -0.0188   -1.2469 H         1 <0>         0.0823
     17 H3         -2.7453    1.4805   -2.0706 H         1 <0>         0.0965
     18 H4         -0.2499    1.2251   -2.1376 H         1 <0>         0.1143
     19 H5         -0.7555    2.6932   -1.2344 H         1 <0>         0.0889
     20 H6          0.0023   -0.0141    0.0016 H         1 <0>         0.1281
     21 H7          1.0193    1.4666   -0.0001 H         1 <0>         0.1355
     22 H8         -0.0230    0.1942    2.6701 H         1 <0>         0.1295
     23 H9          1.1369    1.4981    2.2447 H         1 <0>         0.1431
     24 H10        -0.0584    1.7341    4.5363 H         1 <0>         0.1223
     25 H11        -0.1409    3.1610    3.4483 H         1 <0>         0.1050
     26 H12        -6.1513    2.4870    5.2777 H         1 <0>         0.4544
     27 H13        -6.6706    1.7381    3.6046 H         1 <0>         0.4485
     28 H14        -2.9105    2.6426    0.1086 H         1 <0>         0.0868
     29 H15        -3.8958    1.1408    0.1306 H         1 <0>         0.1192
     30 H16        -0.7825    2.6549    1.1563 H         1 <0>         0.4390
@<TRIPOS>BOND
     1    1   15 1
     2    1    2 1
     3    1   16 1
     4    1   17 1
     5    2    3 1
     6    2   18 1
     7    2   19 1
     8    3    4 1
     9    3   20 1
    10    3   21 1
    11    4   13 1
    12    4    5 1
    13    4   30 1
    14    5    6 1
    15    5   22 1
    16    5   23 1
    17    6    7 1
    18    6   24 1
    19    6   25 1
    20    7   11 1
    21    7    8 2
    22    8    9 1
    23    8   13 1
    24    9   10 2
    25   10   11 1
    26   10   12 1
    27   12   26 1
    28   12   27 1
    29   13   14 1
    30   13   15 1
    31   15   28 1
    32   15   29 1
@<TRIPOS>MOLECULE
ZINC27719441
   31    33     0     0     0
SMALL
USER_CHARGES
(10aR)-5,7,8,9,10,10a-hexahydro-4H-thiazolo[5,4-h]quinolizin-2-amine
@<TRIPOS>ATOM
      1 C1         -2.1960    1.0804   -1.2056 C.3       1 <0>        -0.1400
      2 C2         -0.7536    1.5932   -1.2316 C.3       1 <0>        -0.1522
      3 C3         -0.0127    1.0858    0.0080 C.3       1 <0>        -0.0037
      4 N1         -0.7005    1.5596    1.2157 N.4       1 <0>        -0.3995
      5 C4          0.0776    1.2614    2.4233 C.3       1 <0>        -0.0054
      6 C5         -0.4577    2.1166    3.5854 C.3       1 <0>        -0.0666
      7 C6         -1.9453    2.0199    3.5714 C.2       1 <0>        -0.1933
      8 C7         -2.7237    1.5403    2.5651 C.2       1 <0>         0.0514
      9 N2         -4.0351    1.5523    2.7869 N.pl3     1 <0>        -0.5662
     10 C8         -4.5514    2.0025    3.9133 C.cat     1 <0>         0.3772
     11 S1         -3.1333    2.4733    4.8028 S.3       1 <0>         0.3449
     12 N3         -5.8827    2.0813    4.2912 N.pl3     1 <0>        -0.7580
     13 C9         -2.0692    1.0336    1.2862 C.3       1 <0>         0.1137
     14 H1         -2.0054   -0.0645    1.2792 H         1 <0>         0.1667
     15 C10        -2.8730    1.5434    0.0876 C.3       1 <0>        -0.1478
     16 H2         -2.1974   -0.0188   -1.2469 H         1 <0>         0.0904
     17 H3         -2.7453    1.4805   -2.0706 H         1 <0>         0.1075
     18 H4         -0.2499    1.2251   -2.1376 H         1 <0>         0.1256
     19 H5         -0.7555    2.6932   -1.2344 H         1 <0>         0.0942
     20 H6          0.0023   -0.0141    0.0016 H         1 <0>         0.1358
     21 H7          1.0193    1.4666   -0.0001 H         1 <0>         0.1478
     22 H8         -0.0230    0.1942    2.6701 H         1 <0>         0.1408
     23 H9          1.1369    1.4981    2.2447 H         1 <0>         0.1620
     24 H10        -0.0584    1.7341    4.5363 H         1 <0>         0.1506
     25 H11        -0.1409    3.1610    3.4483 H         1 <0>         0.1350
     26 H12        -6.1513    2.4870    5.2777 H         1 <0>         0.4924
     27 H13        -6.6706    1.7381    3.6046 H         1 <0>         0.4711
     28 H14        -2.9105    2.6426    0.1086 H         1 <0>         0.1014
     29 H15        -3.8958    1.1408    0.1306 H         1 <0>         0.1100
     30 H16        -4.7265    1.1786    2.0173 H         1 <0>         0.4694
     31 H17        -0.7825    2.6549    1.1563 H         1 <0>         0.4448
@<TRIPOS>BOND
     1    1   15 1
     2    1    2 1
     3    1   16 1
     4    1   17 1
     5    2    3 1
     6    2   18 1
     7    2   19 1
     8    3    4 1
     9    3   20 1
    10    3   21 1
    11    4   13 1
    12    4    5 1
    13    4   31 1
    14    5    6 1
    15    5   22 1
    16    5   23 1
    17    6    7 1
    18    6   24 1
    19    6   25 1
    20    7   11 1
    21    7    8 2
    22    8    9 1
    23    8   13 1
    24    9   10 2
    25    9   30 1
    26   10   11 1
    27   10   12 1
    28   12   26 1
    29   12   27 1
    30   13   14 1
    31   13   15 1
    32   15   28 1
    33   15   29 1
@<TRIPOS>MOLECULE
ZINC27719441
   30    32     0     0     0
SMALL
USER_CHARGES
(10aR)-5,7,8,9,10,10a-hexahydro-4H-thiazolo[5,4-h]quinolizin-2-amine
@<TRIPOS>ATOM
      1 C1         -2.1960    1.0804   -1.2056 C.3       1 <0>        -0.1241
      2 C2         -0.7536    1.5932   -1.2316 C.3       1 <0>        -0.1243
      3 C3         -0.0127    1.0858    0.0080 C.3       1 <0>         0.0583
      4 N1         -0.7005    1.5596    1.2157 N.3       1 <0>        -0.5424
      5 C4          0.0776    1.2614    2.4233 C.3       1 <0>         0.0547
      6 C5         -0.4577    2.1166    3.5854 C.3       1 <0>        -0.0415
      7 C6         -1.9453    2.0199    3.5714 C.2       1 <0>        -0.1521
      8 C7         -2.7237    1.5403    2.5651 C.2       1 <0>         0.0744
      9 N2         -4.0351    1.5523    2.7869 N.pl3     1 <0>        -0.5574
     10 C8         -4.5514    2.0025    3.9133 C.cat     1 <0>         0.3623
     11 S1         -3.1333    2.4733    4.8028 S.3       1 <0>         0.2744
     12 N3         -5.8827    2.0813    4.2912 N.pl3     1 <0>        -0.7813
     13 C9         -2.0692    1.0336    1.2862 C.3       1 <0>         0.1560
     14 H1         -2.0054   -0.0645    1.2792 H         1 <0>         0.0834
     15 C10        -2.8730    1.5434    0.0876 C.3       1 <0>        -0.1174
     16 H2         -2.1974   -0.0188   -1.2469 H         1 <0>         0.0675
     17 H3         -2.7453    1.4805   -2.0706 H         1 <0>         0.0785
     18 H4         -0.2499    1.2251   -2.1376 H         1 <0>         0.0807
     19 H5         -0.7555    2.6932   -1.2344 H         1 <0>         0.0776
     20 H6          0.0023   -0.0141    0.0016 H         1 <0>         0.0448
     21 H7          1.0193    1.4666   -0.0001 H         1 <0>         0.0930
     22 H8         -0.0230    0.1942    2.6701 H         1 <0>         0.0519
     23 H9          1.1369    1.4981    2.2447 H         1 <0>         0.1073
     24 H10        -0.0584    1.7341    4.5363 H         1 <0>         0.1084
     25 H11        -0.1409    3.1610    3.4483 H         1 <0>         0.1141
     26 H12        -6.1513    2.4870    5.2777 H         1 <0>         0.4814
     27 H13        -6.6706    1.7381    3.6046 H         1 <0>         0.4608
     28 H14        -2.9105    2.6426    0.1086 H         1 <0>         0.0842
     29 H15        -3.8958    1.1408    0.1306 H         1 <0>         0.0659
     30 H16        -4.7265    1.1786    2.0173 H         1 <0>         0.4608
@<TRIPOS>BOND
     1    1   15 1
     2    1    2 1
     3    1   16 1
     4    1   17 1
     5    2    3 1
     6    2   18 1
     7    2   19 1
     8    3    4 1
     9    3   20 1
    10    3   21 1
    11    4   13 1
    12    4    5 1
    13    5    6 1
    14    5   22 1
    15    5   23 1
    16    6    7 1
    17    6   24 1
    18    6   25 1
    19    7   11 1
    20    7    8 2
    21    8    9 1
    22    8   13 1
    23    9   10 2
    24    9   30 1
    25   10   11 1
    26   10   12 1
    27   12   26 1
    28   12   27 1
    29   13   14 1
    30   13   15 1
    31   15   28 1
    32   15   29 1
@<TRIPOS>MOLECULE
ZINC00004090
   40    42     0     0     0
SMALL
USER_CHARGES
propylBLAHol
@<TRIPOS>ATOM
      1 C1         -1.1711    5.4108   -2.7634 C.3       1 <0>        -0.1568
      2 C2         -1.2616    3.8892   -2.6311 C.3       1 <0>        -0.1493
      3 C3         -0.6832    3.4594   -1.2814 C.3       1 <0>        -0.0141
      4 C4         -2.1720    1.5592   -1.0659 C.3       1 <0>        -0.0054
      5 C5         -2.2504    0.0329   -1.0359 C.3       1 <0>        -0.1463
      6 C6         -1.4309   -0.5126    0.1408 C.3       1 <0>        -0.1288
      7 C7          0.0021   -0.0041    0.0020 C.3       1 <0>        -0.0530
      8 H1          0.4017   -0.3522   -0.9505 H         1 <0>         0.1038
      9 C8         -0.0187    1.5275    0.0104 C.3       1 <0>        -0.0114
     10 H2         -0.5132    1.8770    0.9168 H         1 <0>         0.1497
     11 C9          1.4264    2.0225   -0.0007 C.3       1 <0>         0.0543
     12 O1          2.0445    1.6104    1.2216 O.3       1 <0>        -0.2903
     13 C10         1.8588    0.3350    1.6533 C.ar      1 <0>         0.1102
     14 C11         0.8832   -0.4919    1.1159 C.ar      1 <0>        -0.1469
     15 C12         0.7177   -1.7753    1.6034 C.ar      1 <0>        -0.1026
     16 C13         1.5272   -2.2442    2.6262 C.ar      1 <0>         0.0927
     17 C14         2.5074   -1.4219    3.1611 C.ar      1 <0>        -0.0983
     18 C15         2.6720   -0.1407    2.6769 C.ar      1 <0>        -0.1170
     19 O2          1.3603   -3.5063    3.1039 O.3       1 <0>        -0.4929
     20 H3         -0.1276    5.7195   -2.7004 H         1 <0>         0.0678
     21 H4         -1.5831    5.7170   -3.7250 H         1 <0>         0.0786
     22 H5         -1.7380    5.8798   -1.9592 H         1 <0>         0.0677
     23 H6         -0.6947    3.4202   -3.4353 H         1 <0>         0.0866
     24 H7         -2.3051    3.5805   -2.6941 H         1 <0>         0.0869
     25 H8         -1.2502    3.9284   -0.4772 H         1 <0>         0.1345
     26 H9          0.3602    3.7681   -1.2183 H         1 <0>         0.1310
     27 H10        -2.7219    1.9317   -1.9302 H         1 <0>         0.1355
     28 H11        -2.6163    1.9611   -0.1553 H         1 <0>         0.1311
     29 H12        -1.8544   -0.3679   -1.9690 H         1 <0>         0.0899
     30 H13        -3.2905   -0.2736   -0.9252 H         1 <0>         0.1178
     31 H14        -1.4379   -1.6024    0.1197 H         1 <0>         0.1014
     32 H15        -1.8568   -0.1599    1.0802 H         1 <0>         0.0880
     33 H16         1.9582    1.5879   -0.8472 H         1 <0>         0.0888
     34 H17         1.4428    3.1099   -0.0735 H         1 <0>         0.1279
     35 H18        -0.0457   -2.4149    1.1857 H         1 <0>         0.1383
     36 H19         3.1416   -1.7844    3.9566 H         1 <0>         0.1461
     37 H20         3.4364    0.4972    3.0955 H         1 <0>         0.1445
     38 H21         1.8901   -4.1734    2.6462 H         1 <0>         0.3974
     39 N1         -0.7620    1.9849   -1.1723 N.4       1 <0>        -0.3830
     40 H22        -0.3473    1.5651   -2.0125 H         1 <0>         0.4257
@<TRIPOS>BOND
     1    1    2 1
     2    1   20 1
     3    1   21 1
     4    1   22 1
     5    2    3 1
     6    2   23 1
     7    2   24 1
     8    3   25 1
     9    3   26 1
    10    3   39 1
    11    4    5 1
    12    4   27 1
    13    4   28 1
    14    4   39 1
    15    5    6 1
    16    5   29 1
    17    5   30 1
    18    6    7 1
    19    6   31 1
    20    6   32 1
    21    7    8 1
    22    7   14 1
    23    7    9 1
    24    9   10 1
    25    9   11 1
    26    9   39 1
    27   11   12 1
    28   11   33 1
    29   11   34 1
    30   12   13 1
    31   13   18 ar
    32   13   14 ar
    33   14   15 ar
    34   15   16 ar
    35   15   35 1
    36   16   17 ar
    37   16   19 1
    38   17   18 ar
    39   17   36 1
    40   18   37 1
    41   19   38 1
    42   39   40 1
@<TRIPOS>MOLECULE
ZINC13470092
   30    31     0     0     0
SMALL
USER_CHARGES
2-(1-methyl-4-piperidyl)pyridine
@<TRIPOS>ATOM
      1 C1         -4.0523    5.2601    0.7555 C.3       1 <0>        -0.0424
      2 C2         -3.0253    3.1840    1.4595 C.3       1 <0>         0.0003
      3 C3         -1.7151    2.3932    1.4606 C.3       1 <0>        -0.1386
      4 C4         -1.3359    2.0412    0.0195 C.3       1 <0>        -0.0457
      5 C5         -1.2169    3.3297   -0.7993 C.3       1 <0>        -0.1453
      6 C6         -2.5411    4.0941   -0.7336 C.3       1 <0>         0.0000
      7 C7         -0.0158    1.3143    0.0093 C.ar      1 <0>         0.1171
      8 C8          1.1622    2.0375    0.0019 C.ar      1 <0>        -0.1732
      9 C9          2.3711    1.3591   -0.0129 C.ar      1 <0>        -0.0684
     10 C10         2.3499   -0.0274   -0.0202 C.ar      1 <0>        -0.1630
     11 C11         1.1331   -0.6822   -0.0125 C.ar      1 <0>         0.1096
     12 N1          0.0021   -0.0041    0.0020 N.ar      1 <0>        -0.4790
     13 H1         -4.2220    5.5387    1.7955 H         1 <0>         0.1221
     14 H2         -3.9024    6.1595    0.1582 H         1 <0>         0.1222
     15 H3         -4.9177    4.7144    0.3796 H         1 <0>         0.1233
     16 H4         -3.8173    2.5740    1.0252 H         1 <0>         0.1327
     17 H5         -3.2907    3.4485    2.4831 H         1 <0>         0.1317
     18 H6         -1.8434    1.4771    2.0372 H         1 <0>         0.1157
     19 H7         -0.9253    2.9969    1.9076 H         1 <0>         0.0893
     20 H8         -2.1061    1.4037   -0.4146 H         1 <0>         0.1075
     21 H9         -0.4193    3.9492   -0.3890 H         1 <0>         0.0927
     22 H10        -0.9895    3.0822   -1.8362 H         1 <0>         0.1157
     23 H11        -3.3354    3.4798   -1.1576 H         1 <0>         0.1323
     24 H12        -2.4548    5.0196   -1.3028 H         1 <0>         0.1321
     25 H13         1.1411    3.1172    0.0076 H         1 <0>         0.1331
     26 H14         3.3072    1.8978   -0.0190 H         1 <0>         0.1402
     27 H15         3.2727   -0.5884   -0.0313 H         1 <0>         0.1428
     28 H16         1.1080   -1.7619   -0.0180 H         1 <0>         0.1635
     29 N2         -2.8366    4.4240    0.6770 N.4       1 <0>        -0.3970
     30 H17        -2.0456    4.9481    1.0692 H         1 <0>         0.4286
@<TRIPOS>BOND
     1    1   13 1
     2    1   14 1
     3    1   15 1
     4    1   29 1
     5    2    3 1
     6    2   16 1
     7    2   17 1
     8    2   29 1
     9    3    4 1
    10    3   18 1
    11    3   19 1
    12    4    5 1
    13    4    7 1
    14    4   20 1
    15    5    6 1
    16    5   21 1
    17    5   22 1
    18    6   23 1
    19    6   24 1
    20    6   29 1
    21    7   12 ar
    22    7    8 ar
    23    8    9 ar
    24    8   25 1
    25    9   10 ar
    26    9   26 1
    27   10   11 ar
    28   10   27 1
    29   11   12 ar
    30   11   28 1
    31   29   30 1
@<TRIPOS>MOLECULE
ZINC19014810
   26    27     0     0     0
SMALL
USER_CHARGES
1-(2-pyridyl)piperazine
@<TRIPOS>ATOM
      1 C1         -1.2206    1.7609    0.0173 C.ar      1 <0>        -0.0494
      2 C2         -0.0126    1.0758    0.0080 C.ar      1 <0>        -0.1779
      3 C3          1.1691    1.7890    0.0005 C.ar      1 <0>         0.1284
      4 N1          1.1632    3.1087    0.0072 N.ar      1 <0>        -0.5179
      5 C4          0.0327    3.7978    0.0212 C.ar      1 <0>         0.2868
      6 C5         -1.1952    3.1436    0.0294 C.ar      1 <0>        -0.1759
      7 N2          0.0730    5.1872    0.0283 N.pl3     1 <0>        -0.4782
      8 C6         -0.6641    5.7296    1.1781 C.3       1 <0>         0.0260
      9 C7         -0.6634    7.2584    1.1059 C.3       1 <0>         0.0028
     10 C8          1.4603    7.2028   -0.0539 C.3       1 <0>        -0.0018
     11 C9          1.4596    5.6739    0.0182 C.3       1 <0>         0.0366
     12 H1         -2.1588    1.2259    0.0192 H         1 <0>         0.1448
     13 H2          0.0021   -0.0041    0.0020 H         1 <0>         0.1444
     14 H3          2.1107    1.2603   -0.0113 H         1 <0>         0.1652
     15 H4         -2.1160    3.7079    0.0405 H         1 <0>         0.1388
     16 H5         -1.6911    5.3650    1.1564 H         1 <0>         0.1294
     17 H6         -0.1834    5.4090    2.1023 H         1 <0>         0.0713
     18 H7         -1.1848    7.6636    1.9732 H         1 <0>         0.1432
     19 H8         -1.1682    7.5797    0.1949 H         1 <0>         0.1418
     20 H9          2.4873    7.5674   -0.0323 H         1 <0>         0.1422
     21 H10         0.9800    7.5234   -0.9783 H         1 <0>         0.1393
     22 H11         1.9644    5.3526    0.9293 H         1 <0>         0.0755
     23 H12         1.9810    5.2687   -0.8490 H         1 <0>         0.1317
     24 N3          0.7270    7.7512    1.1026 N.4       1 <0>        -0.5194
     25 H13         1.1927    7.4577    1.9694 H         1 <0>         0.4318
     26 H14         0.7232    8.7764    1.0464 H         1 <0>         0.4402
@<TRIPOS>BOND
     1    1    6 ar
     2    1    2 ar
     3    1   12 1
     4    2    3 ar
     5    2   13 1
     6    3    4 ar
     7    3   14 1
     8    4    5 ar
     9    5    6 ar
    10    5    7 1
    11    6   15 1
    12    7   11 1
    13    7    8 1
    14    8    9 1
    15    8   16 1
    16    8   17 1
    17    9   18 1
    18    9   19 1
    19    9   24 1
    20   10   11 1
    21   10   20 1
    22   10   21 1
    23   10   24 1
    24   11   22 1
    25   11   23 1
    26   24   25 1
    27   24   26 1
@<TRIPOS>MOLECULE
ZINC00601304
   50    53     0     0     0
SMALL
USER_CHARGES

@<TRIPOS>ATOM
      1 C1         -0.0848    1.4532   -0.3643 C.3       1 <0>         0.0157
      2 O1         -0.0673    0.0248   -0.4029 O.3       1 <0>        -0.2899
      3 C2         -1.2697   -0.6091   -0.3507 C.ar      1 <0>         0.1141
      4 C3         -2.4181    0.1263   -0.2712 C.ar      1 <0>        -0.1159
      5 C4         -3.6565   -0.5247   -0.2178 C.ar      1 <0>        -0.1900
      6 C5         -3.7118   -1.9398   -0.2465 C.ar      1 <0>         0.2208
      7 C6         -2.5225   -2.6738   -0.3282 C.ar      1 <0>        -0.2298
      8 C7         -1.3169   -2.0092   -0.3848 C.ar      1 <0>         0.2171
      9 O2         -0.1616   -2.7187   -0.4697 O.3       1 <0>        -0.2781
     10 C8         -0.2756   -4.1428   -0.5007 C.3       1 <0>         0.0126
     11 N1         -4.9113   -2.5410   -0.1946 N.ar      1 <0>        -0.5852
     12 C9         -6.0151   -1.8231   -0.1184 C.ar      1 <0>         0.6808
     13 N2         -6.0075   -0.4933   -0.0894 N.ar      1 <0>        -0.5933
     14 C10        -4.8747    0.1928   -0.1354 C.ar      1 <0>         0.5614
     15 N3         -4.8820    1.5717   -0.1036 N.pl3     1 <0>        -0.7723
     16 N4         -7.2317   -2.4807   -0.0668 N.pl3     1 <0>        -0.5638
     17 C11        -7.2984   -3.9422   -0.2055 C.3       1 <0>         0.0875
     18 C12        -8.0309   -4.5172    1.0132 C.3       1 <0>         0.0811
     19 N5         -9.2792   -3.7665    1.2081 N.am      1 <0>        -0.6161
     20 C13        -9.2125   -2.3049    1.3468 C.3       1 <0>         0.0965
     21 C14        -8.4794   -1.7305    0.1337 C.3       1 <0>         0.1036
     22 C15       -10.4640   -4.4068    1.2583 C.2       1 <0>         0.6126
     23 O3        -11.4993   -3.7686    1.3005 O.2       1 <0>        -0.5007
     24 C16       -10.5057   -5.8728    1.2622 C.2       1 <0>        -0.0999
     25 C17       -11.6286   -6.6439    1.1675 C.2       1 <0>        -0.0980
     26 C18       -11.2046   -7.9813    1.2107 C.2       1 <0>        -0.2186
     27 C19        -9.8585   -7.9681    1.3284 C.2       1 <0>        -0.0023
     28 O4         -9.4406   -6.6959    1.3540 O.3       1 <0>        -0.1695
     29 H1          0.9367    1.8304   -0.4129 H         1 <0>         0.1175
     30 H2         -0.6531    1.8327   -1.2135 H         1 <0>         0.0636
     31 H3         -0.5513    1.7859    0.5629 H         1 <0>         0.0637
     32 H4         -2.3709    1.2050   -0.2492 H         1 <0>         0.1589
     33 H5         -2.5500   -3.7532   -0.3508 H         1 <0>         0.1674
     34 H6         -0.7651   -4.4880    0.4100 H         1 <0>         0.0684
     35 H7         -0.8669   -4.4412   -1.3664 H         1 <0>         0.0684
     36 H8          0.7180   -4.5855   -0.5693 H         1 <0>         0.1203
     37 H9         -4.0457    2.0621   -0.1379 H         1 <0>         0.4288
     38 H10        -5.7233    2.0512   -0.0471 H         1 <0>         0.4313
     39 H11        -7.8428   -4.1990   -1.1142 H         1 <0>         0.1106
     40 H12        -6.2893   -4.3517   -0.2526 H         1 <0>         0.0927
     41 H13        -8.2596   -5.5687    0.8400 H         1 <0>         0.1354
     42 H14        -7.4023   -4.4179    1.8982 H         1 <0>         0.0848
     43 H15       -10.2215   -1.8954    1.3938 H         1 <0>         0.1238
     44 H16        -8.6680   -2.0481    2.2555 H         1 <0>         0.0830
     45 H17        -8.2501   -0.6797    0.3105 H         1 <0>         0.1273
     46 H18        -9.1099   -1.8262   -0.7503 H         1 <0>         0.0981
     47 H19       -12.6459   -6.2927    1.0769 H         1 <0>         0.1643
     48 H20       -11.8356   -8.8563    1.1598 H         1 <0>         0.1626
     49 H21        -9.2239   -8.8399    1.3885 H         1 <0>         0.2151
     50 H22        -4.9664   -3.5093   -0.2136 H         1 <0>         0.4337
@<TRIPOS>BOND
     1    1    2 1
     2    1   29 1
     3    1   30 1
     4    1   31 1
     5    2    3 1
     6    3    8 ar
     7    3    4 ar
     8    4    5 ar
     9    4   32 1
    10    5   14 ar
    11    5    6 ar
    12    6    7 ar
    13    6   11 ar
    14    7    8 ar
    15    7   33 1
    16    8    9 1
    17    9   10 1
    18   10   34 1
    19   10   35 1
    20   10   36 1
    21   11   12 ar
    22   11   50 1
    23   12   13 ar
    24   12   16 1
    25   13   14 ar
    26   14   15 1
    27   15   37 1
    28   15   38 1
    29   16   21 1
    30   16   17 1
    31   17   18 1
    32   17   39 1
    33   17   40 1
    34   18   19 1
    35   18   41 1
    36   18   42 1
    37   19   20 1
    38   19   22 am
    39   20   21 1
    40   20   43 1
    41   20   44 1
    42   21   45 1
    43   21   46 1
    44   22   23 2
    45   22   24 1
    46   24   28 1
    47   24   25 2
    48   25   26 1
    49   25   47 1
    50   26   27 2
    51   26   48 1
    52   27   28 1
    53   27   49 1
@<TRIPOS>MOLECULE
ZINC01571800
   25    26     0     0     0
SMALL
USER_CHARGES

@<TRIPOS>ATOM
      1 C1          0.0058    1.3143    0.2255 C.ar      1 <0>         0.0078
      2 C2          1.1819    2.0265    0.0017 C.ar      1 <0>         0.3632
      3 N1          2.3163    1.3747   -0.2188 N.ar      1 <0>        -0.4918
      4 C3          2.3262    0.0514   -0.2252 C.ar      1 <0>         0.1743
      5 C4          1.1557   -0.6517   -0.0029 C.ar      1 <0>         0.0305
      6 N2          0.0235   -0.0049    0.2176 N.ar      1 <0>        -0.3796
      7 Cl1         3.8095   -0.8031   -0.5135 Cl        1 <0>         0.0093
      8 N3          1.1669    3.4164    0.0088 N.pl3     1 <0>        -0.6210
      9 C5          2.4203    4.1864   -0.0052 C.3       1 <0>         0.0984
     10 C6          2.3337    5.2349   -1.1192 C.3       1 <0>        -0.0220
     11 N4          1.1252    6.0476   -0.9323 N.4       1 <0>        -0.5049
     12 C7         -0.0702    5.2088   -1.0856 C.3       1 <0>        -0.0220
     13 C8         -0.1028    4.1591    0.0244 C.3       1 <0>         0.0983
     14 H1         -0.9187    1.8414    0.4097 H         1 <0>         0.1747
     15 H2          1.1666   -1.7316   -0.0090 H         1 <0>         0.1864
     16 H3          2.5558    4.6831    0.9555 H         1 <0>         0.0939
     17 H4          3.2592    3.5172   -0.1965 H         1 <0>         0.1382
     18 H5          3.2133    5.8776   -1.0825 H         1 <0>         0.1477
     19 H6          2.2892    4.7345   -2.0866 H         1 <0>         0.1351
     20 H7          1.1337    6.4533   -0.0085 H         1 <0>         0.4297
     21 H8         -0.9621    5.8324   -1.0240 H         1 <0>         0.1506
     22 H9         -0.0420    4.7092   -2.0539 H         1 <0>         0.1358
     23 H10        -0.9313    3.4718   -0.1472 H         1 <0>         0.1300
     24 H11        -0.2264    4.6529    0.9882 H         1 <0>         0.1013
     25 H12         1.1076    6.7851   -1.6207 H         1 <0>         0.4359
@<TRIPOS>BOND
     1    1    6 ar
     2    1    2 ar
     3    1   14 1
     4    2    3 ar
     5    2    8 1
     6    3    4 ar
     7    4    5 ar
     8    4    7 1
     9    5    6 ar
    10    5   15 1
    11    8   13 1
    12    8    9 1
    13    9   10 1
    14    9   16 1
    15    9   17 1
    16   10   11 1
    17   10   18 1
    18   10   19 1
    19   11   12 1
    20   11   20 1
    21   11   25 1
    22   12   13 1
    23   12   21 1
    24   12   22 1
    25   13   23 1
    26   13   24 1
@<TRIPOS>MOLECULE
ZINC19811349
   25    26     0     0     0
SMALL
USER_CHARGES
2-(1,2,3,6-tetrahydropyridin-4-yl)pyridine
@<TRIPOS>ATOM
      1 C1          1.1833    2.0794    0.0019 C.ar      1 <0>        -0.0697
      2 C2          2.3650    1.3512   -0.0128 C.ar      1 <0>        -0.1534
      3 C3          2.3110   -0.0304   -0.0202 C.ar      1 <0>         0.1083
      4 N1          1.1552   -0.6626   -0.0125 N.ar      1 <0>        -0.4731
      5 C4          0.0021   -0.0041    0.0020 C.ar      1 <0>         0.1282
      6 C5         -0.0168    1.3912    0.0097 C.ar      1 <0>        -0.1560
      7 C6         -1.2706   -0.7546    0.0106 C.2       1 <0>        -0.0319
      8 C7         -2.4001   -0.0809    0.0255 C.2       1 <0>        -0.1967
      9 C8         -3.7481   -0.7425    0.0423 C.3       1 <0>         0.0439
     10 N2         -3.6295   -2.1483   -0.3647 N.4       1 <0>        -0.5404
     11 C9         -2.5819   -2.8201    0.4217 C.3       1 <0>        -0.0011
     12 C10        -1.2219   -2.2570   -0.0041 C.3       1 <0>        -0.1086
     13 H1          1.2004    3.1592    0.0072 H         1 <0>         0.1442
     14 H2          3.3180    1.8593   -0.0192 H         1 <0>         0.1455
     15 H3          3.2290   -0.5991   -0.0320 H         1 <0>         0.1664
     16 H4         -0.9550    1.9262    0.0171 H         1 <0>         0.1386
     17 H5         -2.3845    1.0190    0.0260 H         1 <0>         0.1550
     18 H6         -4.1665   -0.6965    1.0586 H         1 <0>         0.1384
     19 H7         -4.4208   -0.2218   -0.6551 H         1 <0>         0.1432
     20 H8         -4.5885   -2.6605   -0.1977 H         1 <0>         0.4579
     21 H9         -2.7491   -2.6310    1.4923 H         1 <0>         0.1295
     22 H10        -2.6175   -3.9028    0.2307 H         1 <0>         0.1397
     23 H11        -0.9837   -2.6062   -1.0196 H         1 <0>         0.1084
     24 H12        -0.4472   -2.6056    0.6947 H         1 <0>         0.1299
     25 H13        -3.3670   -2.2003   -1.4317 H         1 <0>         0.4536
@<TRIPOS>BOND
     1    1    6 ar
     2    1    2 ar
     3    1   13 1
     4    2    3 ar
     5    2   14 1
     6    3    4 ar
     7    3   15 1
     8    4    5 ar
     9    5    6 ar
    10    5    7 1
    11    6   16 1
    12    7   12 1
    13    7    8 2
    14    8    9 1
    15    8   17 1
    16    9   10 1
    17    9   18 1
    18    9   19 1
    19   10   11 1
    20   10   20 1
    21   10   25 1
    22   11   12 1
    23   11   21 1
    24   11   22 1
    25   12   23 1
    26   12   24 1
@<TRIPOS>MOLECULE
ZINC36237989
   29    30     0     0     0
SMALL
USER_CHARGES

@<TRIPOS>ATOM
      1 C1         -0.0257    1.4604   -0.1631 C.3       1 <0>        -0.0461
      2 N1         -0.0017   -0.0062   -0.0822 N.4       1 <0>        -0.3824
      3 C2          0.5995   -0.5523   -1.3055 C.3       1 <0>        -0.0223
      4 C3          0.5210   -2.0822   -1.2730 C.3       1 <0>         0.1221
      5 N2          1.1441   -2.5548   -0.0269 N.pl3     1 <0>        -0.6616
      6 C4          0.7149   -1.9405    1.2390 C.3       1 <0>         0.1222
      7 C5          0.7842   -0.4173    1.0879 C.3       1 <0>        -0.0222
      8 C6          2.1122   -3.5540   -0.0453 C.ar      1 <0>         0.3224
      9 C7          1.7284   -4.8896    0.0580 C.ar      1 <0>         0.0604
     10 C8          2.7030   -5.8727    0.0378 C.ar      1 <0>        -0.1022
     11 C9          4.0315   -5.4861   -0.0853 C.ar      1 <0>        -0.1288
     12 C10         4.3391   -4.1445   -0.1831 C.ar      1 <0>         0.1040
     13 N3          3.3891   -3.2281   -0.1662 N.ar      1 <0>        -0.4672
     14 F1          0.4240   -5.2204    0.1767 F         1 <0>        -0.1221
     15 H1          0.9932    1.8357   -0.2589 H         1 <0>         0.1213
     16 H2         -0.6089    1.7669   -1.0315 H         1 <0>         0.1244
     17 H3         -0.4791    1.8667    0.7410 H         1 <0>         0.1244
     18 H4          0.0579   -0.1790   -2.1746 H         1 <0>         0.1389
     19 H5          1.6429   -0.2432   -1.3669 H         1 <0>         0.1334
     20 H6         -0.5224   -2.3961   -1.3027 H         1 <0>         0.0862
     21 H7          1.0552   -2.4947   -2.1289 H         1 <0>         0.1146
     22 H8         -0.3089   -2.2402    1.4629 H         1 <0>         0.0862
     23 H9          1.3772   -2.2593    2.0439 H         1 <0>         0.1147
     24 H10         1.8221   -0.1123    0.9541 H         1 <0>         0.1334
     25 H11         0.3788    0.0555    1.9824 H         1 <0>         0.1389
     26 H12         2.4365   -6.9163    0.1163 H         1 <0>         0.1560
     27 H13         4.8159   -6.2282   -0.1040 H         1 <0>         0.1555
     28 H14         5.3710   -3.8403   -0.2790 H         1 <0>         0.1719
     29 H15        -0.9451   -0.3522    0.0093 H         1 <0>         0.4241
@<TRIPOS>BOND
     1    1    2 1
     2    1   15 1
     3    1   16 1
     4    1   17 1
     5    2    7 1
     6    2    3 1
     7    2   29 1
     8    3    4 1
     9    3   18 1
    10    3   19 1
    11    4    5 1
    12    4   20 1
    13    4   21 1
    14    5    6 1
    15    5    8 1
    16    6    7 1
    17    6   22 1
    18    6   23 1
    19    7   24 1
    20    7   25 1
    21    8   13 ar
    22    8    9 ar
    23    9   10 ar
    24    9   14 1
    25   10   11 ar
    26   10   26 1
    27   11   12 ar
    28   11   27 1
    29   12   13 ar
    30   12   28 1
@<TRIPOS>MOLECULE
ZINC36237989
   28    29     0     0     0
SMALL
USER_CHARGES

@<TRIPOS>ATOM
      1 C1         -0.0317    1.4605   -0.1628 C.3       1 <0>         0.0250
      2 N1         -0.0050   -0.0062   -0.0857 N.3       1 <0>        -0.5415
      3 C2          0.5039   -0.5898   -1.3341 C.3       1 <0>         0.0396
      4 C3          0.3470   -2.1132   -1.2832 C.3       1 <0>         0.1530
      5 N2          0.9912   -2.6085   -0.0572 N.pl3     1 <0>        -0.6633
      6 C4          0.6325   -1.9765    1.2215 C.3       1 <0>         0.1531
      7 C5          0.7782   -0.4584    1.0719 C.3       1 <0>         0.0397
      8 C6          1.9152   -3.6478   -0.1058 C.ar      1 <0>         0.3507
      9 C7          1.4792   -4.9658    0.0141 C.ar      1 <0>         0.0512
     10 C8          2.4103   -5.9892   -0.0366 C.ar      1 <0>        -0.1073
     11 C9          3.7489   -5.6592   -0.2059 C.ar      1 <0>        -0.1476
     12 C10         4.1093   -4.3319   -0.3178 C.ar      1 <0>         0.0986
     13 N3          3.1998   -3.3763   -0.2711 N.ar      1 <0>        -0.4699
     14 F1          0.1668   -5.2411    0.1780 F         1 <0>        -0.1231
     15 H1          0.9862    1.8378   -0.2605 H         1 <0>         0.0250
     16 H2         -0.6180    1.7682   -1.0286 H         1 <0>         0.0692
     17 H3         -0.4833    1.8637    0.7437 H         1 <0>         0.0695
     18 H4         -0.0616   -0.1939   -2.1777 H         1 <0>         0.0825
     19 H5          1.5576   -0.3364   -1.4510 H         1 <0>         0.0393
     20 H6         -0.7118   -2.3720   -1.2707 H         1 <0>         0.0665
     21 H7          0.8258   -2.5600   -2.1546 H         1 <0>         0.0708
     22 H8         -0.3989   -2.2222    1.4747 H         1 <0>         0.0666
     23 H9          1.3000   -2.3329    2.0060 H         1 <0>         0.0708
     24 H10         1.8280   -0.2069    0.9215 H         1 <0>         0.0394
     25 H11         0.4116    0.0327    1.9733 H         1 <0>         0.0825
     26 H12         2.1028   -7.0205    0.0538 H         1 <0>         0.1487
     27 H13         4.5002   -6.4338   -0.2492 H         1 <0>         0.1472
     28 H14         5.1491   -4.0717   -0.4496 H         1 <0>         0.1638
@<TRIPOS>BOND
     1    1    2 1
     2    1   15 1
     3    1   16 1
     4    1   17 1
     5    2    7 1
     6    2    3 1
     7    3    4 1
     8    3   18 1
     9    3   19 1
    10    4    5 1
    11    4   20 1
    12    4   21 1
    13    5    6 1
    14    5    8 1
    15    6    7 1
    16    6   22 1
    17    6   23 1
    18    7   24 1
    19    7   25 1
    20    8   13 ar
    21    8    9 ar
    22    9   10 ar
    23    9   14 1
    24   10   11 ar
    25   10   26 1
    26   11   12 ar
    27   11   27 1
    28   12   13 ar
    29   12   28 1
@<TRIPOS>MOLECULE
ZINC13737041
   45    46     0     0     0
SMALL
USER_CHARGES
(3S)-5-methoxy-N,N-dipropyl-chroman-3-amine
@<TRIPOS>ATOM
      1 C1          0.0113    1.5677   -2.3850 C.3       1 <0>        -0.1559
      2 C2         -0.7367    1.8857   -1.0887 C.3       1 <0>        -0.1648
      3 C3         -0.0629    1.1629    0.0794 C.3       1 <0>        -0.0113
      4 C4         -1.8742    0.6298    1.5952 C.3       1 <0>        -0.0186
      5 C5         -2.9350    0.8218    0.5094 C.3       1 <0>        -0.1545
      6 C6         -4.1861    0.0189    0.8711 C.3       1 <0>        -0.1575
      7 C7          0.2054    1.5192    2.4592 C.3       1 <0>        -0.0106
      8 H1          1.0935    2.0940    2.1965 H         1 <0>         0.1506
      9 C8         -0.4607    2.1338    3.6928 C.3       1 <0>        -0.0815
     10 C9          0.3834    1.8639    4.9128 C.ar      1 <0>        -0.2028
     11 C10         1.3520    0.8765    4.9160 C.ar      1 <0>         0.1536
     12 C11         2.1047    0.6520    6.0646 C.ar      1 <0>        -0.1718
     13 C12         1.8910    1.4111    7.1976 C.ar      1 <0>        -0.0321
     14 C13         0.9263    2.4000    7.1951 C.ar      1 <0>        -0.2274
     15 C14         0.1720    2.6275    6.0542 C.ar      1 <0>         0.1712
     16 O1         -0.7763    3.6009    6.0519 O.3       1 <0>        -0.3171
     17 C15        -0.9409    4.3491    7.2582 C.3       1 <0>         0.0237
     18 O2          1.5966    0.1104    3.8211 O.3       1 <0>        -0.2854
     19 C16         0.6038    0.0763    2.7948 C.3       1 <0>         0.0534
     20 H2         -0.4687    2.0827   -3.2172 H         1 <0>         0.0776
     21 H3          1.0454    1.9015   -2.2990 H         1 <0>         0.0665
     22 H4         -0.0099    0.4924   -2.5622 H         1 <0>         0.0671
     23 H5         -1.7708    1.5520   -1.1747 H         1 <0>         0.0994
     24 H6         -0.7155    2.9610   -0.9115 H         1 <0>         0.0860
     25 H7         -0.1299    0.0856   -0.0727 H         1 <0>         0.1327
     26 H8          0.9851    1.4577    0.1332 H         1 <0>         0.1310
     27 H9         -1.5315   -0.4050    1.5893 H         1 <0>         0.1330
     28 H10        -2.3042    0.8646    2.5688 H         1 <0>         0.1314
     29 H11        -3.1907    1.8788    0.4342 H         1 <0>         0.0864
     30 H12        -2.5436    0.4738   -0.4465 H         1 <0>         0.0964
     31 H13        -4.5775    0.3670    1.8271 H         1 <0>         0.0666
     32 H14        -4.9419    0.1558    0.0976 H         1 <0>         0.0782
     33 H15        -3.9305   -1.0380    0.9463 H         1 <0>         0.0673
     34 H16        -0.5622    3.2099    3.5520 H         1 <0>         0.1078
     35 H17        -1.4476    1.6919    3.8302 H         1 <0>         0.0961
     36 H18         2.8601   -0.1199    6.0697 H         1 <0>         0.1412
     37 H19         2.4784    1.2321    8.0861 H         1 <0>         0.1430
     38 H20         0.7596    2.9950    8.0810 H         1 <0>         0.1398
     39 H21        -1.2154    3.6747    8.0694 H         1 <0>         0.0630
     40 H22        -0.0057    4.8519    7.5044 H         1 <0>         0.0630
     41 H23        -1.7273    5.0913    7.1210 H         1 <0>         0.1077
     42 H24        -0.2692   -0.4733    3.1466 H         1 <0>         0.0885
     43 H25         1.0101   -0.4083    1.9070 H         1 <0>         0.1259
     44 N1         -0.7483    1.5500    1.3304 N.4       1 <0>        -0.3879
     45 H26        -1.1141    2.5040    1.2288 H         1 <0>         0.4308
@<TRIPOS>BOND
     1    1    2 1
     2    1   20 1
     3    1   21 1
     4    1   22 1
     5    2    3 1
     6    2   23 1
     7    2   24 1
     8    3   25 1
     9    3   26 1
    10    3   44 1
    11    4    5 1
    12    4   27 1
    13    4   28 1
    14    4   44 1
    15    5    6 1
    16    5   29 1
    17    5   30 1
    18    6   31 1
    19    6   32 1
    20    6   33 1
    21    7    8 1
    22    7   19 1
    23    7    9 1
    24    7   44 1
    25    9   10 1
    26    9   34 1
    27    9   35 1
    28   10   15 ar
    29   10   11 ar
    30   11   12 ar
    31   11   18 1
    32   12   13 ar
    33   12   36 1
    34   13   14 ar
    35   13   37 1
    36   14   15 ar
    37   14   38 1
    38   15   16 1
    39   16   17 1
    40   17   39 1
    41   17   40 1
    42   17   41 1
    43   18   19 1
    44   19   42 1
    45   19   43 1
    46   44   45 1
@<TRIPOS>MOLECULE
ZINC13737043
   45    46     0     0     0
SMALL
USER_CHARGES
(3R)-5-methoxy-N,N-dipropyl-chroman-3-amine
@<TRIPOS>ATOM
      1 C1          5.2890    8.1412    0.2925 C.3       1 <0>        -0.1561
      2 C2          5.5677    6.6764   -0.0502 C.3       1 <0>        -0.1491
      3 C3          4.4108    5.8072    0.4468 C.3       1 <0>        -0.0166
      4 C4          5.8394    3.8973    0.8639 C.3       1 <0>        -0.0145
      5 C5          5.5078    3.8573    2.3570 C.3       1 <0>        -0.1487
      6 C6          6.7540    3.4497    3.1455 C.3       1 <0>        -0.1548
      7 C7          3.4934    3.5680    0.3632 C.3       1 <0>        -0.0122
      8 H1          3.1504    3.7102    1.3880 H         1 <0>         0.1529
      9 C8          3.8418    2.0950    0.1335 C.3       1 <0>        -0.0785
     10 C9          2.5775    1.2748    0.0919 C.ar      1 <0>        -0.2029
     11 C10         1.3434    1.8622   -0.1208 C.ar      1 <0>         0.1532
     12 C11         0.2002    1.0700   -0.1641 C.ar      1 <0>        -0.1715
     13 C12         0.2922   -0.2965    0.0081 C.ar      1 <0>        -0.0323
     14 C13         1.5235   -0.8845    0.2250 C.ar      1 <0>        -0.2273
     15 C14         2.6664   -0.1006    0.2676 C.ar      1 <0>         0.1711
     16 O1          3.8773   -0.6794    0.4813 O.3       1 <0>        -0.3171
     17 C15         3.8970   -2.0978    0.6533 C.3       1 <0>         0.0237
     18 O2          1.2085    3.2039   -0.2859 O.3       1 <0>        -0.2846
     19 C16         2.3769    3.9566   -0.6145 C.3       1 <0>         0.0481
     20 H2          4.3639    8.4574   -0.1895 H         1 <0>         0.0676
     21 H3          5.1913    8.2494    1.3727 H         1 <0>         0.0671
     22 H4          6.1132    8.7604   -0.0616 H         1 <0>         0.0781
     23 H5          6.4928    6.3601    0.4318 H         1 <0>         0.0868
     24 H6          5.6654    6.5682   -1.1304 H         1 <0>         0.0866
     25 H7          3.4857    6.1234   -0.0352 H         1 <0>         0.1300
     26 H8          4.3131    5.9154    1.5270 H         1 <0>         0.1353
     27 H9          6.0850    2.8928    0.5192 H         1 <0>         0.1319
     28 H10         6.6914    4.5567    0.6985 H         1 <0>         0.1344
     29 H11         5.1785    4.8441    2.6826 H         1 <0>         0.0849
     30 H12         4.7130    3.1325    2.5334 H         1 <0>         0.0859
     31 H13         7.0833    2.4630    2.8199 H         1 <0>         0.0676
     32 H14         7.5487    4.1745    2.9691 H         1 <0>         0.0668
     33 H15         6.5177    3.4212    4.2092 H         1 <0>         0.0772
     34 H16         4.4764    1.7422    0.9465 H         1 <0>         0.1091
     35 H17         4.3733    1.9902   -0.8123 H         1 <0>         0.0951
     36 H18        -0.7632    1.5260   -0.3377 H         1 <0>         0.1412
     37 H19        -0.5985   -0.9063   -0.0272 H         1 <0>         0.1429
     38 H20         1.5957   -1.9535    0.3610 H         1 <0>         0.1397
     39 H21         3.2872   -2.3678    1.5155 H         1 <0>         0.0629
     40 H22         3.4965   -2.5778   -0.2396 H         1 <0>         0.0630
     41 H23         4.9225   -2.4299    0.8154 H         1 <0>         0.1075
     42 H24         2.6861    3.7282   -1.6344 H         1 <0>         0.0890
     43 H25         2.1644    5.0220   -0.5252 H         1 <0>         0.1269
     44 N1          4.6846    4.3993    0.0898 N.4       1 <0>        -0.3877
     45 H26         4.9058    4.3461   -0.9114 H         1 <0>         0.4277
@<TRIPOS>BOND
     1    1    2 1
     2    1   20 1
     3    1   21 1
     4    1   22 1
     5    2    3 1
     6    2   23 1
     7    2   24 1
     8    3   25 1
     9    3   26 1
    10    3   44 1
    11    4    5 1
    12    4   27 1
    13    4   28 1
    14    4   44 1
    15    5    6 1
    16    5   29 1
    17    5   30 1
    18    6   31 1
    19    6   32 1
    20    6   33 1
    21    7    8 1
    22    7   19 1
    23    7    9 1
    24    7   44 1
    25    9   10 1
    26    9   34 1
    27    9   35 1
    28   10   15 ar
    29   10   11 ar
    30   11   12 ar
    31   11   18 1
    32   12   13 ar
    33   12   36 1
    34   13   14 ar
    35   13   37 1
    36   14   15 ar
    37   14   38 1
    38   15   16 1
    39   16   17 1
    40   17   39 1
    41   17   40 1
    42   17   41 1
    43   18   19 1
    44   19   42 1
    45   19   43 1
    46   44   45 1
@<TRIPOS>MOLECULE
ZINC19735568
   26    27     0     0     0
SMALL
USER_CHARGES
1-(3-iodo-2-pyridyl)piperazine
@<TRIPOS>ATOM
      1 C1         -0.0204    1.0759    0.0308 C.ar      1 <0>        -0.1573
      2 C2         -0.9196    1.7558   -0.7803 C.ar      1 <0>        -0.0313
      3 C3         -0.8945    3.1391   -0.7789 C.ar      1 <0>        -0.1343
      4 C4          0.0334    3.7982    0.0222 C.ar      1 <0>         0.3053
      5 N1          0.8779    3.1134    0.7776 N.ar      1 <0>        -0.5061
      6 C5          0.8728    1.7938    0.8001 C.ar      1 <0>         0.1337
      7 N2          0.0741    5.1878    0.0289 N.pl3     1 <0>        -0.4799
      8 C6         -0.7593    5.7339    1.1091 C.3       1 <0>         0.0251
      9 C7         -0.7510    7.2625    1.0330 C.3       1 <0>         0.0045
     10 N3          0.6316    7.7484    1.1416 N.4       1 <0>        -0.5378
     11 C8          1.4650    7.2023    0.0614 C.3       1 <0>         0.0006
     12 C9          1.4568    5.6737    0.1374 C.3       1 <0>         0.0295
     13 I1         -2.2291    4.2266   -1.9728 I         1 <0>         0.0025
     14 H1         -0.0170   -0.0038    0.0559 H         1 <0>         0.1538
     15 H2         -1.6254    1.2170   -1.3951 H         1 <0>         0.1512
     16 H3          1.5769    1.2688    1.4286 H         1 <0>         0.1710
     17 H4         -1.7900    5.3659    0.9987 H         1 <0>         0.1218
     18 H5         -0.3571    5.4120    2.0810 H         1 <0>         0.0731
     19 H6         -1.1793    7.5841    0.0722 H         1 <0>         0.1402
     20 H7         -1.3511    7.6740    1.8580 H         1 <0>         0.1431
     21 H8          0.6407    8.8463    1.0749 H         1 <0>         0.4588
     22 H9          1.0628    7.5242   -0.9105 H         1 <0>         0.1374
     23 H10         2.4957    7.5703    0.1717 H         1 <0>         0.1420
     24 H11         1.8845    5.3511    1.0981 H         1 <0>         0.0827
     25 H12         2.0562    5.2614   -0.6877 H         1 <0>         0.1210
     26 H13         1.0552    7.4362    2.1076 H         1 <0>         0.4494
@<TRIPOS>BOND
     1    1    6 ar
     2    1    2 ar
     3    1   14 1
     4    2    3 ar
     5    2   15 1
     6    3    4 ar
     7    3   13 1
     8    4    5 ar
     9    4    7 1
    10    5    6 ar
    11    6   16 1
    12    7   12 1
    13    7    8 1
    14    8    9 1
    15    8   17 1
    16    8   18 1
    17    9   10 1
    18    9   19 1
    19    9   20 1
    20   10   11 1
    21   10   21 1
    22   10   26 1
    23   11   12 1
    24   11   22 1
    25   11   23 1
    26   12   24 1
    27   12   25 1
@<TRIPOS>MOLECULE
ZINC26898957
   26    27     0     0     0
SMALL
USER_CHARGES
1-(3-bromo-2-pyridyl)piperazine
@<TRIPOS>ATOM
      1 C1         -0.0206    1.0760    0.0307 C.ar      1 <0>        -0.1553
      2 C2         -0.9219    1.7555   -0.7785 C.ar      1 <0>        -0.0363
      3 C3         -0.8962    3.1389   -0.7784 C.ar      1 <0>        -0.1215
      4 C4          0.0338    3.7983    0.0208 C.ar      1 <0>         0.3010
      5 N1          0.8796    3.1137    0.7745 N.ar      1 <0>        -0.5041
      6 C5          0.8741    1.7941    0.7978 C.ar      1 <0>         0.1308
      7 N2          0.0747    5.1882    0.0269 N.pl3     1 <0>        -0.4782
      8 C6         -0.7589    5.7348    1.1067 C.3       1 <0>         0.0258
      9 C7         -0.7504    7.2634    1.0300 C.3       1 <0>         0.0053
     10 N3          0.6323    7.7491    1.1387 N.4       1 <0>        -0.5381
     11 C8          1.4659    7.2024    0.0589 C.3       1 <0>         0.0009
     12 C9          1.4574    5.6738    0.1356 C.3       1 <0>         0.0292
     13 Br1        -2.1025    4.1203   -1.8544 Br        1 <0>        -0.0095
     14 H1         -0.0170   -0.0037    0.0559 H         1 <0>         0.1548
     15 H2         -1.6293    1.2164   -1.3912 H         1 <0>         0.1552
     16 H3          1.5793    1.2693    1.4252 H         1 <0>         0.1716
     17 H4         -1.7896    5.3668    0.9962 H         1 <0>         0.1234
     18 H5         -0.3570    5.4132    2.0788 H         1 <0>         0.0723
     19 H6         -1.1784    7.5847    0.0690 H         1 <0>         0.1399
     20 H7         -1.3506    7.6753    1.8547 H         1 <0>         0.1426
     21 H8          0.6416    8.8470    1.0716 H         1 <0>         0.4586
     22 H9          1.0639    7.5240   -0.9132 H         1 <0>         0.1372
     23 H10         2.4966    7.5703    0.1693 H         1 <0>         0.1418
     24 H11         1.8847    5.3515    1.0966 H         1 <0>         0.0822
     25 H12         2.0569    5.2610   -0.6891 H         1 <0>         0.1210
     26 H13         1.0556    7.4373    2.1049 H         1 <0>         0.4493
@<TRIPOS>BOND
     1    1    6 ar
     2    1    2 ar
     3    1   14 1
     4    2    3 ar
     5    2   15 1
     6    3    4 ar
     7    3   13 1
     8    4    5 ar
     9    4    7 1
    10    5    6 ar
    11    6   16 1
    12    7   12 1
    13    7    8 1
    14    8    9 1
    15    8   17 1
    16    8   18 1
    17    9   10 1
    18    9   19 1
    19    9   20 1
    20   10   11 1
    21   10   21 1
    22   10   26 1
    23   11   12 1
    24   11   22 1
    25   11   23 1
    26   12   24 1
    27   12   25 1
@<TRIPOS>MOLECULE
ZINC19735907
   28    29     0     0     0
SMALL
USER_CHARGES
1-(3-nitro-2-pyridyl)piperazine
@<TRIPOS>ATOM
      1 C1          1.2230   -0.6493    0.0517 C.ar      1 <0>        -0.1621
      2 C2          0.5778   -0.0273   -1.0093 C.ar      1 <0>         0.0104
      3 C3          0.5585    1.3549   -1.0512 C.ar      1 <0>        -0.0934
      4 C4          1.1825    2.0715   -0.0347 C.ar      1 <0>         0.3588
      5 N1          1.7873    1.4414    0.9603 N.ar      1 <0>        -0.5065
      6 C5          1.8214    0.1238    1.0260 C.ar      1 <0>         0.1750
      7 N2          1.1711    3.4611   -0.0645 N.pl3     1 <0>        -0.4754
      8 C6          0.5196    4.0082    1.1338 C.3       1 <0>         0.0298
      9 C7          0.4566    5.5336    1.0254 C.3       1 <0>         0.0057
     10 N3          1.8175    6.0684    0.8789 N.4       1 <0>        -0.5378
     11 C8          2.4690    5.5212   -0.3194 C.3       1 <0>         0.0043
     12 C9          2.5321    3.9959   -0.2110 C.3       1 <0>         0.0283
     13 N4         -0.0549    2.0026   -2.0712 N.pl3     1 <0>         0.0670
     14 O1         -0.5060    1.3710   -3.0099 O.2       1 <0>        -0.1939
     15 O2         -0.1553    3.2162   -2.0493 O.3       1 <0>        -0.1293
     16 H1          1.2563   -1.7270    0.1136 H         1 <0>         0.1716
     17 H2          0.1023   -0.6099   -1.7844 H         1 <0>         0.1787
     18 H3          2.3245   -0.3558    1.8526 H         1 <0>         0.1867
     19 H4         -0.4998    3.6029    1.2142 H         1 <0>         0.1204
     20 H5          1.0976    3.7266    2.0263 H         1 <0>         0.0790
     21 H6         -0.1451    5.8143    0.1484 H         1 <0>         0.1450
     22 H7         -0.0050    5.9470    1.9342 H         1 <0>         0.1433
     23 H8          1.7732    7.1638    0.7886 H         1 <0>         0.4608
     24 H9          1.8909    5.8027   -1.2119 H         1 <0>         0.1446
     25 H10         3.4884    5.9265   -0.4000 H         1 <0>         0.1435
     26 H11         3.1331    3.7142    0.6662 H         1 <0>         0.0783
     27 H12         2.9931    3.5815   -1.1197 H         1 <0>         0.1188
     28 H13         2.4151    5.7971    1.7617 H         1 <0>         0.4482
@<TRIPOS>BOND
     1    1    6 ar
     2    1    2 ar
     3    1   16 1
     4    2    3 ar
     5    2   17 1
     6    3    4 ar
     7    3   13 1
     8    4    5 ar
     9    4    7 1
    10    5    6 ar
    11    6   18 1
    12    7   12 1
    13    7    8 1
    14    8    9 1
    15    8   19 1
    16    8   20 1
    17    9   10 1
    18    9   21 1
    19    9   22 1
    20   10   11 1
    21   10   23 1
    22   10   28 1
    23   11   12 1
    24   11   24 1
    25   11   25 1
    26   12   26 1
    27   12   27 1
    28   13   14 2
    29   13   15 1
@<TRIPOS>MOLECULE
ZINC19015150
   26    27     0     0     0
SMALL
USER_CHARGES
1-(5-chloro-2-pyridyl)piperazine
@<TRIPOS>ATOM
      1 C1         -0.0168    1.3850    0.0097 C.ar      1 <0>        -0.0403
      2 C2          1.1900    2.0615    0.0018 C.ar      1 <0>        -0.1625
      3 C3          2.3743    1.3325   -0.0130 C.ar      1 <0>         0.2916
      4 N1          2.3512    0.0087   -0.0199 N.ar      1 <0>        -0.5023
      5 C4          1.2160   -0.6638   -0.0131 C.ar      1 <0>         0.1447
      6 C5          0.0021   -0.0041    0.0020 C.ar      1 <0>        -0.1007
      7 Cl1        -1.4839   -0.9015    0.0120 Cl        1 <0>        -0.0327
      8 N2          3.5942    2.0003   -0.0211 N.pl3     1 <0>        -0.4767
      9 C6          3.7006    2.9165    1.1230 C.3       1 <0>         0.0250
     10 C7          5.0194    3.6881    1.0343 C.3       1 <0>         0.0029
     11 C8          6.0336    1.8213   -0.1256 C.3       1 <0>        -0.0015
     12 C9          4.7148    1.0497   -0.0369 C.3       1 <0>         0.0349
     13 H1         -0.9523    1.9246    0.0171 H         1 <0>         0.1558
     14 H2          1.2120    3.1413    0.0070 H         1 <0>         0.1490
     15 H3          1.2359   -1.7436   -0.0191 H         1 <0>         0.1744
     16 H4          2.8668    3.6183    1.1057 H         1 <0>         0.1308
     17 H5          3.6757    2.3445    2.0505 H         1 <0>         0.0734
     18 H6          5.1138    4.3473    1.8972 H         1 <0>         0.1443
     19 H7          5.0328    4.2813    0.1199 H         1 <0>         0.1425
     20 H8          6.8674    1.1195   -0.1083 H         1 <0>         0.1433
     21 H9          6.0587    2.3931   -1.0533 H         1 <0>         0.1401
     22 H10         4.7014    0.4565    0.8775 H         1 <0>         0.0775
     23 H11         4.6204    0.3906   -0.8998 H         1 <0>         0.1331
     24 N3          6.1473    2.7373    1.0251 N.4       1 <0>        -0.5198
     25 H12         6.1378    2.1917    1.8949 H         1 <0>         0.4322
     26 H13         7.0294    3.2584    0.9576 H         1 <0>         0.4410
@<TRIPOS>BOND
     1    1    6 ar
     2    1    2 ar
     3    1   13 1
     4    2    3 ar
     5    2   14 1
     6    3    4 ar
     7    3    8 1
     8    4    5 ar
     9    5    6 ar
    10    5   15 1
    11    6    7 1
    12    8   12 1
    13    8    9 1
    14    9   10 1
    15    9   16 1
    16    9   17 1
    17   10   18 1
    18   10   19 1
    19   10   24 1
    20   11   12 1
    21   11   20 1
    22   11   21 1
    23   11   24 1
    24   12   22 1
    25   12   23 1
    26   24   25 1
    27   24   26 1
@<TRIPOS>MOLECULE
ZINC19015148
   26    27     0     0     0
SMALL
USER_CHARGES
1-(3-chloro-2-pyridyl)piperazine
@<TRIPOS>ATOM
      1 C1         -0.0206    1.0760    0.0307 C.ar      1 <0>        -0.1472
      2 C2         -0.9231    1.7555   -0.7772 C.ar      1 <0>        -0.0562
      3 C3         -0.8973    3.1391   -0.7772 C.ar      1 <0>        -0.0622
      4 C4          0.0340    3.7985    0.0208 C.ar      1 <0>         0.2820
      5 N1          0.8809    3.1137    0.7732 N.ar      1 <0>        -0.4987
      6 C5          0.8752    1.7940    0.7964 C.ar      1 <0>         0.1207
      7 N2          0.0752    5.1885    0.0269 N.pl3     1 <0>        -0.4779
      8 C6         -0.7583    5.7353    1.1067 C.3       1 <0>         0.0281
      9 C7         -0.7496    7.2638    1.0300 C.3       1 <0>         0.0042
     10 C8          1.4666    7.2025    0.0589 C.3       1 <0>         0.0016
     11 C9          1.4580    5.6740    0.1356 C.3       1 <0>         0.0315
     12 Cl1        -2.0062    4.0401   -1.7632 Cl        1 <0>        -0.0309
     13 H1         -0.0169   -0.0037    0.0560 H         1 <0>         0.1553
     14 H2         -1.6315    1.2164   -1.3888 H         1 <0>         0.1564
     15 H3          1.5813    1.2692    1.4228 H         1 <0>         0.1717
     16 H4         -1.7800    5.3715    0.9972 H         1 <0>         0.1241
     17 H5         -0.3600    5.4172    2.0701 H         1 <0>         0.0727
     18 H6         -1.3438    7.6723    1.8475 H         1 <0>         0.1425
     19 H7         -1.1732    7.5826    0.0776 H         1 <0>         0.1420
     20 H8          2.4883    7.5663    0.1684 H         1 <0>         0.1417
     21 H9          1.0687    7.5206   -0.9047 H         1 <0>         0.1400
     22 H10         1.8815    5.3552    1.0880 H         1 <0>         0.0824
     23 H11         2.0521    5.2655   -0.6819 H         1 <0>         0.1225
     24 N3          0.6364    7.7554    1.1457 N.4       1 <0>        -0.5185
     25 H12         1.0249    7.4644    2.0505 H         1 <0>         0.4321
     26 H13         0.6387    8.7804    1.0860 H         1 <0>         0.4402
@<TRIPOS>BOND
     1    1    6 ar
     2    1    2 ar
     3    1   13 1
     4    2    3 ar
     5    2   14 1
     6    3    4 ar
     7    3   12 1
     8    4    5 ar
     9    4    7 1
    10    5    6 ar
    11    6   15 1
    12    7   11 1
    13    7    8 1
    14    8    9 1
    15    8   16 1
    16    8   17 1
    17    9   18 1
    18    9   19 1
    19    9   24 1
    20   10   11 1
    21   10   20 1
    22   10   21 1
    23   10   24 1
    24   11   22 1
    25   11   23 1
    26   24   25 1
    27   24   26 1
@<TRIPOS>MOLECULE
ZINC29463497
   29    30     0     0     0
SMALL
USER_CHARGES
1-(3-chloro-4-methyl-2-pyridyl)piperazine
@<TRIPOS>ATOM
      1 C1          2.5411    6.1299    2.4552 C.3       1 <0>        -0.1290
      2 C2          1.9517    5.4212    1.2629 C.ar      1 <0>        -0.0227
      3 C3          1.4114    6.1406    0.2047 C.ar      1 <0>        -0.1481
      4 C4          0.8794    5.4618   -0.8726 C.ar      1 <0>         0.1203
      5 N1          0.8782    4.1424   -0.9085 N.ar      1 <0>        -0.5022
      6 C5          1.3832    3.4206    0.0794 C.ar      1 <0>         0.2809
      7 C6          1.9313    4.0390    1.2001 C.ar      1 <0>        -0.0579
      8 Cl1         2.5860    3.0893    2.4975 Cl        1 <0>        -0.0282
      9 N2          1.3610    2.0324   -0.0000 N.pl3     1 <0>        -0.4784
     10 C7         -0.0192    1.5286   -0.0299 C.3       1 <0>         0.0270
     11 C8         -0.0008   -0.0018   -0.0370 C.3       1 <0>         0.0047
     12 N3          0.7547   -0.4746   -1.2054 N.4       1 <0>        -0.5379
     13 C9          2.1349    0.0292   -1.1756 C.3       1 <0>         0.0026
     14 C10         2.1165    1.5596   -1.1685 C.3       1 <0>         0.0272
     15 H1          2.4609    7.2176    2.3118 H         1 <0>         0.0832
     16 H2          3.5999    5.8511    2.5610 H         1 <0>         0.0875
     17 H3          1.9927    5.8383    3.3631 H         1 <0>         0.0875
     18 H4          1.4081    7.2204    0.2247 H         1 <0>         0.1537
     19 H5          0.4587    6.0176   -1.6976 H         1 <0>         0.1705
     20 H6         -0.5592    1.8856    0.8594 H         1 <0>         0.1204
     21 H7         -0.5235    1.8944   -0.9365 H         1 <0>         0.0763
     22 H8          0.4787   -0.3670    0.8832 H         1 <0>         0.1380
     23 H9         -1.0322   -0.3807   -0.0882 H         1 <0>         0.1412
     24 H10         0.7794   -1.5743   -1.2056 H         1 <0>         0.4580
     25 H11         2.6392   -0.3366   -0.2691 H         1 <0>         0.1376
     26 H12         2.6749   -0.3278   -2.0650 H         1 <0>         0.1413
     27 H13         1.6366    1.9258   -2.0881 H         1 <0>         0.0770
     28 H14         3.1475    1.9394   -1.1167 H         1 <0>         0.1201
     29 H15         0.2679   -0.1187   -2.1254 H         1 <0>         0.4494
@<TRIPOS>BOND
     1    1    2 1
     2    1   15 1
     3    1   16 1
     4    1   17 1
     5    2    7 ar
     6    2    3 ar
     7    3    4 ar
     8    3   18 1
     9    4    5 ar
    10    4   19 1
    11    5    6 ar
    12    6    7 ar
    13    6    9 1
    14    7    8 1
    15    9   14 1
    16    9   10 1
    17   10   11 1
    18   10   20 1
    19   10   21 1
    20   11   12 1
    21   11   22 1
    22   11   23 1
    23   12   13 1
    24   12   24 1
    25   12   29 1
    26   13   14 1
    27   13   25 1
    28   13   26 1
    29   14   27 1
    30   14   28 1
@<TRIPOS>MOLECULE
ZINC13728053
   29    31     0     0     0
SMALL
USER_CHARGES
6-chloro-8-piperazin-1-yl-imidazo[1,2-a]pyrazine
@<TRIPOS>ATOM
      1 C1          1.3018   -0.3855   -0.0124 C.2       1 <0>         0.0391
      2 C2          0.0021   -0.0041    0.0020 C.2       1 <0>        -0.0441
      3 N1         -0.0164    1.3561    0.0095 N.pl3     1 <0>        -0.3400
      4 C3         -1.0212    2.2889    0.0291 C.2       1 <0>         0.0209
      5 C4         -0.7183    3.6033    0.0291 C.2       1 <0>         0.1324
      6 N2          0.5512    4.0243    0.0192 N.2       1 <0>        -0.4995
      7 C5          1.5547    3.1703    0.0046 C.2       1 <0>         0.4085
      8 C6          1.2884    1.7780   -0.0007 C.2       1 <0>         0.1472
      9 N3          2.0648    0.7081   -0.0138 N.2       1 <0>        -0.4489
     10 N4          2.8619    3.6304   -0.0059 N.pl3     1 <0>        -0.4586
     11 C7          3.6006    3.0918   -1.1565 C.3       1 <0>         0.0231
     12 C8          5.0567    3.5581   -1.0882 C.3       1 <0>         0.0050
     13 C9          4.3595    5.5656    0.0705 C.3       1 <0>        -0.0001
     14 C10         2.9033    5.0993    0.0022 C.3       1 <0>         0.0321
     15 Cl1        -2.0019    4.7720    0.0487 Cl        1 <0>         0.0188
     16 H1          1.6600   -1.4043   -0.0216 H         1 <0>         0.1985
     17 H2         -0.8580   -0.6572    0.0072 H         1 <0>         0.2007
     18 H3         -2.0535    1.9718    0.0421 H         1 <0>         0.1894
     19 H4          3.5660    2.0026   -1.1334 H         1 <0>         0.1489
     20 H5          3.1468    3.4508   -2.0803 H         1 <0>         0.0739
     21 H6          5.5996    3.1838   -1.9561 H         1 <0>         0.1468
     22 H7          5.5184    3.1764   -0.1776 H         1 <0>         0.1454
     23 H8          4.3940    6.6548    0.0474 H         1 <0>         0.1460
     24 H9          4.8132    5.2070    0.9945 H         1 <0>         0.1421
     25 H10         2.4416    5.4811   -0.9084 H         1 <0>         0.0830
     26 H11         2.3605    5.4737    0.8701 H         1 <0>         0.1363
     27 N5          5.1027    5.0326   -1.0869 N.4       1 <0>        -0.5208
     28 H12         4.6796    5.3857   -1.9532 H         1 <0>         0.4320
     29 H13         6.0806    5.3412   -1.0331 H         1 <0>         0.4417
@<TRIPOS>BOND
     1    1    9 1
     2    1    2 2
     3    1   16 1
     4    2    3 1
     5    2   17 1
     6    3    8 1
     7    3    4 1
     8    4    5 2
     9    4   18 1
    10    5    6 1
    11    5   15 1
    12    6    7 2
    13    7    8 1
    14    7   10 1
    15    8    9 2
    16   10   14 1
    17   10   11 1
    18   11   12 1
    19   11   19 1
    20   11   20 1
    21   12   21 1
    22   12   22 1
    23   12   27 1
    24   13   14 1
    25   13   23 1
    26   13   24 1
    27   13   27 1
    28   14   25 1
    29   14   26 1
    30   27   28 1
    31   27   29 1
@<TRIPOS>MOLECULE
ZINC13728053
   30    32     0     0     0
SMALL
USER_CHARGES
6-chloro-8-piperazin-1-yl-imidazo[1,2-a]pyrazine
@<TRIPOS>ATOM
      1 C1          1.3018   -0.3855   -0.0124 C.2       1 <0>         0.0948
      2 C2          0.0021   -0.0041    0.0020 C.2       1 <0>         0.0110
      3 N1         -0.0164    1.3561    0.0095 N.pl3     1 <0>        -0.2814
      4 C3         -1.0212    2.2889    0.0291 C.2       1 <0>         0.0372
      5 C4         -0.7183    3.6033    0.0291 C.2       1 <0>         0.1657
      6 N2          0.5512    4.0243    0.0192 N.2       1 <0>        -0.4400
      7 C5          1.5547    3.1703    0.0046 C.2       1 <0>         0.3847
      8 C6          1.2884    1.7780   -0.0007 C.cat     1 <0>         0.2139
      9 N3          2.8619    3.6304   -0.0059 N.pl3     1 <0>        -0.4702
     10 C7          3.6006    3.0918   -1.1565 C.3       1 <0>         0.0168
     11 C8          5.0567    3.5581   -1.0882 C.3       1 <0>         0.0026
     12 C9          4.3595    5.5656    0.0705 C.3       1 <0>        -0.0023
     13 C10         2.9033    5.0993    0.0022 C.3       1 <0>         0.0315
     14 Cl1        -2.0019    4.7720    0.0487 Cl        1 <0>         0.0798
     15 H1          1.6600   -1.4043   -0.0216 H         1 <0>         0.2479
     16 H2         -0.8580   -0.6572    0.0072 H         1 <0>         0.2449
     17 H3         -2.0535    1.9718    0.0421 H         1 <0>         0.2269
     18 H4          3.5660    2.0026   -1.1334 H         1 <0>         0.1124
     19 H5          3.1468    3.4508   -2.0803 H         1 <0>         0.0976
     20 H6          5.5996    3.1838   -1.9561 H         1 <0>         0.1572
     21 H7          5.5184    3.1764   -0.1776 H         1 <0>         0.1495
     22 H8          4.3940    6.6548    0.0474 H         1 <0>         0.1577
     23 H9          4.8132    5.2070    0.9945 H         1 <0>         0.1477
     24 H10         2.4416    5.4811   -0.9084 H         1 <0>         0.0966
     25 H11         2.3605    5.4737    0.8701 H         1 <0>         0.1469
     26 N4          5.1027    5.0326   -1.0869 N.4       1 <0>        -0.5216
     27 H12         4.6796    5.3857   -1.9532 H         1 <0>         0.4373
     28 H13         6.0806    5.3412   -1.0331 H         1 <0>         0.4522
     29 N5          2.0626    0.7081   -0.0138 N.pl3     1 <0>        -0.4770
     30 H14         3.0893    0.7176   -0.0235 H         1 <0>         0.4797
@<TRIPOS>BOND
     1    1    2 2
     2    1   15 1
     3    1   29 1
     4    2    3 1
     5    2   16 1
     6    3    8 1
     7    3    4 1
     8    4    5 2
     9    4   17 1
    10    5    6 1
    11    5   14 1
    12    6    7 2
    13    7    8 1
    14    7    9 1
    15    8   29 2
    16    9   13 1
    17    9   10 1
    18   10   11 1
    19   10   18 1
    20   10   19 1
    21   11   20 1
    22   11   21 1
    23   11   26 1
    24   12   13 1
    25   12   22 1
    26   12   23 1
    27   12   26 1
    28   13   24 1
    29   13   25 1
    30   26   27 1
    31   26   28 1
    32   29   30 1
@<TRIPOS>MOLECULE
ZINC19735102
   29    30     0     0     0
SMALL
USER_CHARGES
1-[3-(trifluoromethyl)-2-pyridyl]piperazine
@<TRIPOS>ATOM
      1 C1          1.2522   -0.6490    0.0260 C.ar      1 <0>        -0.1566
      2 C2          0.5890   -0.0210   -1.0203 C.ar      1 <0>        -0.0198
      3 C3          0.5396    1.3610   -1.0356 C.ar      1 <0>        -0.2015
      4 C4          1.1525    2.0714   -0.0081 C.ar      1 <0>         0.3234
      5 N1          1.7752    1.4358    0.9722 N.ar      1 <0>        -0.5075
      6 C5          1.8382    0.1182    1.0125 C.ar      1 <0>         0.1455
      7 N2          1.1109    3.4608   -0.0112 N.pl3     1 <0>        -0.4910
      8 C6          0.4329    3.9700    1.1891 C.3       1 <0>         0.0270
      9 C7          0.3377    5.4955    1.1094 C.3       1 <0>         0.0043
     10 N3          1.6882    6.0625    0.9904 N.4       1 <0>        -0.5380
     11 C8          2.3662    5.5532   -0.2099 C.3       1 <0>         0.0024
     12 C9          2.4615    4.0278   -0.1302 C.3       1 <0>         0.0274
     13 C10        -0.1631    2.0878   -2.1532 C.3       1 <0>         0.5256
     14 F1         -0.6140    1.1622   -3.1004 F         1 <0>        -0.1734
     15 F2         -1.2539    2.7950   -1.6363 F         1 <0>        -0.1711
     16 F3          0.7262    2.9808   -2.7605 F         1 <0>        -0.1708
     17 H1          1.3092   -1.7267    0.0671 H         1 <0>         0.1594
     18 H2          0.1227   -0.5989   -1.8045 H         1 <0>         0.1615
     19 H3          2.3552   -0.3661    1.8277 H         1 <0>         0.1753
     20 H4         -0.5783    3.5411    1.2488 H         1 <0>         0.1227
     21 H5          1.0060    3.6836    2.0833 H         1 <0>         0.0801
     22 H6         -0.2593    5.7802    0.2304 H         1 <0>         0.1388
     23 H7         -0.1439    5.8809    2.0202 H         1 <0>         0.1431
     24 H8          1.6210    7.1582    0.9207 H         1 <0>         0.4591
     25 H9          1.7930    5.8395   -1.1041 H         1 <0>         0.1388
     26 H10         3.3774    5.9821   -0.2697 H         1 <0>         0.1433
     27 H11         3.0578    3.7421    0.7489 H         1 <0>         0.0792
     28 H12         2.9425    3.6414   -1.0409 H         1 <0>         0.1229
     29 H13         2.2808    5.7871    1.8752 H         1 <0>         0.4495
@<TRIPOS>BOND
     1    1    6 ar
     2    1    2 ar
     3    1   17 1
     4    2    3 ar
     5    2   18 1
     6    3    4 ar
     7    3   13 1
     8    4    5 ar
     9    4    7 1
    10    5    6 ar
    11    6   19 1
    12    7   12 1
    13    7    8 1
    14    8    9 1
    15    8   20 1
    16    8   21 1
    17    9   10 1
    18    9   22 1
    19    9   23 1
    20   10   11 1
    21   10   24 1
    22   10   29 1
    23   11   12 1
    24   11   25 1
    25   11   26 1
    26   12   27 1
    27   12   28 1
    28   13   14 1
    29   13   15 1
    30   13   16 1
@<TRIPOS>MOLECULE
ZINC21948317
   28    29     0     0     0
SMALL
USER_CHARGES
2-piperazin-1-ylpyridin-3-amine
@<TRIPOS>ATOM
      1 C1          1.2264   -0.6489    0.0113 C.ar      1 <0>        -0.1045
      2 C2          0.1710   -0.0028   -0.6192 C.ar      1 <0>        -0.1602
      3 C3          0.1558    1.3853   -0.6276 C.ar      1 <0>         0.2172
      4 C4          1.1978    2.0775   -0.0043 C.ar      1 <0>         0.1784
      5 N1          2.1828    1.4203    0.5842 N.ar      1 <0>        -0.4713
      6 C5          2.2206    0.1003    0.6060 C.ar      1 <0>         0.0470
      7 N2          1.1988    3.4703   -0.0035 N.pl3     1 <0>        -0.4720
      8 C6          0.5526    3.9967    1.2069 C.3       1 <0>         0.0214
      9 C7          0.5031    5.5246    1.1321 C.3       1 <0>         0.0046
     10 N3          1.8688    6.0502    0.9967 N.4       1 <0>        -0.5380
     11 C8          2.5151    5.5239   -0.2136 C.3       1 <0>         0.0000
     12 C9          2.5645    3.9960   -0.1388 C.3       1 <0>         0.0312
     13 N4         -0.8842    2.0811   -1.2557 N.pl3     1 <0>        -0.8803
     14 H1          1.2686   -1.7278    0.0355 H         1 <0>         0.1416
     15 H2         -0.6191   -0.5670   -1.0923 H         1 <0>         0.1399
     16 H3          3.0423   -0.4002    1.0966 H         1 <0>         0.1581
     17 H4         -0.4704    3.5988    1.2790 H         1 <0>         0.1187
     18 H5          1.1284    3.6904    2.0927 H         1 <0>         0.0687
     19 H6         -0.0963    5.8298    0.2618 H         1 <0>         0.1356
     20 H7          0.0455    5.9220    2.0501 H         1 <0>         0.1390
     21 H8          1.8344    7.1477    0.9306 H         1 <0>         0.4566
     22 H9          1.9394    5.8303   -1.0994 H         1 <0>         0.1341
     23 H10         3.5381    5.9218   -0.2856 H         1 <0>         0.1394
     24 H11         3.1632    3.6897    0.7317 H         1 <0>         0.0793
     25 H12         3.0215    3.5976   -1.0566 H         1 <0>         0.1187
     26 H13        -0.8878    3.1811   -1.2572 H         1 <0>         0.4221
     27 H14        -1.6977    1.5278   -1.7476 H         1 <0>         0.4250
     28 H15         2.4642    5.7541    1.8729 H         1 <0>         0.4497
@<TRIPOS>BOND
     1    1    6 ar
     2    1    2 ar
     3    1   14 1
     4    2    3 ar
     5    2   15 1
     6    3    4 ar
     7    3   13 1
     8    4    5 ar
     9    4    7 1
    10    5    6 ar
    11    6   16 1
    12    7   12 1
    13    7    8 1
    14    8    9 1
    15    8   17 1
    16    8   18 1
    17    9   10 1
    18    9   19 1
    19    9   20 1
    20   10   11 1
    21   10   21 1
    22   10   28 1
    23   11   12 1
    24   11   22 1
    25   11   23 1
    26   12   24 1
    27   12   25 1
    28   13   26 1
    29   13   27 1
@<TRIPOS>MOLECULE
ZINC20388822
   26    27     0     0     0
SMALL
USER_CHARGES

@<TRIPOS>ATOM
      1 C1         -0.0051    1.3651    0.2264 C.ar      1 <0>        -0.0161
      2 C2          1.2018    2.0420    0.2210 C.ar      1 <0>        -0.2265
      3 C3          2.3747    1.3327   -0.0135 C.ar      1 <0>         0.4084
      4 N1          2.3411    0.0264   -0.2291 N.ar      1 <0>        -0.5342
      5 C4          1.2047   -0.6458   -0.2299 C.ar      1 <0>         0.2216
      6 C5          0.0017   -0.0034   -0.0037 C.ar      1 <0>        -0.1912
      7 Cl1         1.2215   -2.3575   -0.5185 Cl        1 <0>        -0.0121
      8 N2          3.5936    2.0010   -0.0220 N.pl3     1 <0>        -0.6281
      9 C6          4.8632    1.2583   -0.0443 C.3       1 <0>         0.1004
     10 C7          5.7362    1.8225   -1.1701 C.3       1 <0>        -0.0224
     11 N3          5.8853    3.2724   -0.9927 N.4       1 <0>        -0.5047
     12 C8          4.5807    3.9306   -1.1368 C.3       1 <0>        -0.0222
     13 C9          3.6504    3.4709   -0.0151 C.3       1 <0>         0.1007
     14 H1         -0.9313    1.8894    0.4100 H         1 <0>         0.1531
     15 H2          1.2324    3.1073    0.3962 H         1 <0>         0.1416
     16 H3         -0.9233   -0.5609   -0.0057 H         1 <0>         0.1522
     17 H4          5.3746    1.3782    0.9108 H         1 <0>         0.0898
     18 H5          4.6665    0.2020   -0.2277 H         1 <0>         0.1385
     19 H6          6.7180    1.3498   -1.1403 H         1 <0>         0.1459
     20 H7          5.2645    1.6206   -2.1317 H         1 <0>         0.1344
     21 H8          6.2562    3.4612   -0.0735 H         1 <0>         0.4290
     22 H9          4.7109    5.0115   -1.0826 H         1 <0>         0.1479
     23 H10         4.1439    3.6649   -2.0995 H         1 <0>         0.1348
     24 H11         2.6521    3.8768   -0.1792 H         1 <0>         0.1288
     25 H12         4.0371    3.8181    0.9430 H         1 <0>         0.0959
     26 H13         6.5207    3.6317   -1.6893 H         1 <0>         0.4346
@<TRIPOS>BOND
     1    1    6 ar
     2    1    2 ar
     3    1   14 1
     4    2    3 ar
     5    2   15 1
     6    3    4 ar
     7    3    8 1
     8    4    5 ar
     9    5    6 ar
    10    5    7 1
    11    6   16 1
    12    8   13 1
    13    8    9 1
    14    9   10 1
    15    9   17 1
    16    9   18 1
    17   10   11 1
    18   10   19 1
    19   10   20 1
    20   11   12 1
    21   11   21 1
    22   11   26 1
    23   12   13 1
    24   12   22 1
    25   12   23 1
    26   13   24 1
    27   13   25 1
@<TRIPOS>MOLECULE
ZINC19721266
   29    30     0     0     0
SMALL
USER_CHARGES
1-(3-chloro-2-pyridyl)-4-methyl-piperazine
@<TRIPOS>ATOM
      1 C1          0.8413    9.2224   -0.9655 C.3       1 <0>        -0.0448
      2 N1          0.7979    7.7541   -0.9725 N.4       1 <0>        -0.4034
      3 C2          1.4542    7.2021    0.2209 C.3       1 <0>         0.0018
      4 C3          1.4580    5.6739    0.1369 C.3       1 <0>         0.0295
      5 N2          0.0752    5.1885    0.0278 N.pl3     1 <0>        -0.4788
      6 C4         -0.5811    5.7405   -1.1656 C.3       1 <0>         0.0296
      7 C5         -0.5849    7.2687   -1.0816 C.3       1 <0>         0.0019
      8 C6          0.0340    3.7985    0.0212 C.ar      1 <0>         0.2769
      9 C7         -0.6066    3.1220    1.0561 C.ar      1 <0>        -0.0521
     10 C8         -0.6446    1.7389    1.0333 C.ar      1 <0>        -0.0611
     11 C9         -0.0291    1.0764   -0.0208 C.ar      1 <0>        -0.1422
     12 C10         0.5883    1.8109   -1.0128 C.ar      1 <0>         0.1169
     13 N3          0.6046    3.1299   -0.9686 N.ar      1 <0>        -0.4963
     14 Cl1        -1.3534    4.0018    2.3530 Cl        1 <0>        -0.0288
     15 H1          1.8856    9.5579   -0.8832 H         1 <0>         0.1252
     16 H2          0.2655    9.6021   -0.1086 H         1 <0>         0.1203
     17 H3          0.4053    9.6066   -1.8995 H         1 <0>         0.1254
     18 H4          2.4895    7.5700    0.2732 H         1 <0>         0.1403
     19 H5          0.9065    7.5195    1.1205 H         1 <0>         0.1370
     20 H6          2.0299    5.3567   -0.7476 H         1 <0>         0.0772
     21 H7          1.9232    5.2580    1.0428 H         1 <0>         0.1225
     22 H8         -0.0333    5.4231   -2.0652 H         1 <0>         0.0781
     23 H9         -1.6164    5.3726   -1.2179 H         1 <0>         0.1223
     24 H10        -1.1560    7.5869   -0.1970 H         1 <0>         0.1369
     25 H11        -1.0495    7.6856   -1.9874 H         1 <0>         0.1404
     26 H12        -1.1382    1.1870    1.8195 H         1 <0>         0.1562
     27 H13        -0.0374   -0.0026   -0.0661 H         1 <0>         0.1552
     28 H14         1.0641    1.2995   -1.8365 H         1 <0>         0.1710
     29 H15         1.3514    7.4050   -1.8567 H         1 <0>         0.4429
@<TRIPOS>BOND
     1    1    2 1
     2    1   15 1
     3    1   16 1
     4    1   17 1
     5    2    7 1
     6    2    3 1
     7    2   29 1
     8    3    4 1
     9    3   18 1
    10    3   19 1
    11    4    5 1
    12    4   20 1
    13    4   21 1
    14    5    6 1
    15    5    8 1
    16    6    7 1
    17    6   22 1
    18    6   23 1
    19    7   24 1
    20    7   25 1
    21    8   13 ar
    22    8    9 ar
    23    9   10 ar
    24    9   14 1
    25   10   11 ar
    26   10   26 1
    27   11   12 ar
    28   11   27 1
    29   12   13 ar
    30   12   28 1
@<TRIPOS>MOLECULE
ZINC19721266
   28    29     0     0     0
SMALL
USER_CHARGES
1-(3-chloro-2-pyridyl)-4-methyl-piperazine
@<TRIPOS>ATOM
      1 C1          0.8413    9.2224   -0.9655 C.3       1 <0>         0.0229
      2 N1          0.7979    7.7541   -0.9725 N.3       1 <0>        -0.5446
      3 C2          1.4542    7.2021    0.2209 C.3       1 <0>         0.0564
      4 C3          1.4580    5.6739    0.1369 C.3       1 <0>         0.0626
      5 N2          0.0752    5.1885    0.0278 N.pl3     1 <0>        -0.4837
      6 C4         -0.5811    5.7405   -1.1656 C.3       1 <0>         0.0625
      7 C5         -0.5849    7.2687   -1.0816 C.3       1 <0>         0.0565
      8 C6          0.0340    3.7985    0.0212 C.ar      1 <0>         0.3031
      9 C7         -0.6066    3.1220    1.0561 C.ar      1 <0>        -0.0609
     10 C8         -0.6446    1.7389    1.0333 C.ar      1 <0>        -0.0654
     11 C9         -0.0291    1.0764   -0.0208 C.ar      1 <0>        -0.1621
     12 C10         0.5883    1.8109   -1.0128 C.ar      1 <0>         0.1127
     13 N3          0.6046    3.1299   -0.9686 N.ar      1 <0>        -0.4939
     14 Cl1        -1.3534    4.0018    2.3530 Cl        1 <0>        -0.0370
     15 H1          1.8856    9.5579   -0.8832 H         1 <0>         0.0704
     16 H2          0.2655    9.6021   -0.1086 H         1 <0>         0.0277
     17 H3          0.4053    9.6066   -1.8995 H         1 <0>         0.0707
     18 H4          2.4895    7.5700    0.2732 H         1 <0>         0.0850
     19 H5          0.9065    7.5195    1.1205 H         1 <0>         0.0456
     20 H6          2.0299    5.3567   -0.7476 H         1 <0>         0.0608
     21 H7          1.9232    5.2580    1.0428 H         1 <0>         0.0797
     22 H8         -0.0333    5.4231   -2.0652 H         1 <0>         0.0618
     23 H9         -1.6164    5.3726   -1.2179 H         1 <0>         0.0795
     24 H10        -1.1560    7.5869   -0.1970 H         1 <0>         0.0455
     25 H11        -1.0495    7.6856   -1.9874 H         1 <0>         0.0850
     26 H12        -1.1382    1.1870    1.8195 H         1 <0>         0.1488
     27 H13        -0.0374   -0.0026   -0.0661 H         1 <0>         0.1469
     28 H14         1.0641    1.2995   -1.8365 H         1 <0>         0.1636
@<TRIPOS>BOND
     1    1    2 1
     2    1   15 1
     3    1   16 1
     4    1   17 1
     5    2    7 1
     6    2    3 1
     7    3    4 1
     8    3   18 1
     9    3   19 1
    10    4    5 1
    11    4   20 1
    12    4   21 1
    13    5    6 1
    14    5    8 1
    15    6    7 1
    16    6   22 1
    17    6   23 1
    18    7   24 1
    19    7   25 1
    20    8   13 ar
    21    8    9 ar
    22    9   10 ar
    23    9   14 1
    24   10   11 ar
    25   10   26 1
    26   11   12 ar
    27   11   27 1
    28   12   13 ar
    29   12   28 1
@<TRIPOS>MOLECULE
ZINC29409561
   39    41     0     0     0
SMALL
USER_CHARGES
1-benzyl-4-(3-chloro-2-pyridyl)piperazine
@<TRIPOS>ATOM
      1 C1         -0.4493   10.7035   -4.7587 C.ar      1 <0>        -0.0844
      2 C2         -1.3696   10.4955   -3.7484 C.ar      1 <0>        -0.1135
      3 C3         -0.9520   10.0160   -2.5210 C.ar      1 <0>        -0.0973
      4 C4          0.3860    9.7448   -2.3038 C.ar      1 <0>        -0.1604
      5 C5          1.3071    9.9583   -3.3122 C.ar      1 <0>        -0.0941
      6 C6          0.8887   10.4329   -4.5413 C.ar      1 <0>        -0.1132
      7 C7          0.8413    9.2224   -0.9655 C.3       1 <0>         0.0478
      8 N1          0.7979    7.7541   -0.9725 N.4       1 <0>        -0.4001
      9 C8          1.4542    7.2021    0.2209 C.3       1 <0>         0.0022
     10 C9          1.4580    5.6739    0.1369 C.3       1 <0>         0.0306
     11 N2          0.0752    5.1885    0.0278 N.pl3     1 <0>        -0.4780
     12 C10        -0.5811    5.7405   -1.1656 C.3       1 <0>         0.0328
     13 C11        -0.5849    7.2687   -1.0816 C.3       1 <0>        -0.0015
     14 C12         0.0340    3.7985    0.0212 C.ar      1 <0>         0.2780
     15 C13        -0.6066    3.1220    1.0561 C.ar      1 <0>        -0.0520
     16 C14        -0.6446    1.7389    1.0333 C.ar      1 <0>        -0.0613
     17 C15        -0.0291    1.0764   -0.0208 C.ar      1 <0>        -0.1428
     18 C16         0.5883    1.8109   -1.0128 C.ar      1 <0>         0.1168
     19 N3          0.6046    3.1299   -0.9686 N.ar      1 <0>        -0.4959
     20 Cl1        -1.3534    4.0018    2.3530 Cl        1 <0>        -0.0290
     21 H1         -0.7757   11.0779   -5.7177 H         1 <0>         0.1355
     22 H2         -2.4150   10.7073   -3.9181 H         1 <0>         0.1358
     23 H3         -1.6710    9.8534   -1.7317 H         1 <0>         0.1307
     24 H4          2.3530    9.7506   -3.1411 H         1 <0>         0.1312
     25 H5          1.6078   10.5957   -5.3305 H         1 <0>         0.1358
     26 H6          1.8708    9.5579   -0.7719 H         1 <0>         0.1384
     27 H7          0.1766    9.6051   -0.1770 H         1 <0>         0.1345
     28 H8          2.4895    7.5700    0.2732 H         1 <0>         0.1405
     29 H9          0.9065    7.5195    1.1205 H         1 <0>         0.1382
     30 H10         2.0299    5.3567   -0.7476 H         1 <0>         0.0768
     31 H11         1.9232    5.2580    1.0428 H         1 <0>         0.1231
     32 H12        -0.0333    5.4231   -2.0652 H         1 <0>         0.0771
     33 H13        -1.6164    5.3726   -1.2179 H         1 <0>         0.1216
     34 H14        -1.1560    7.5869   -0.1970 H         1 <0>         0.1370
     35 H15        -1.0495    7.6856   -1.9874 H         1 <0>         0.1388
     36 H16        -1.1382    1.1870    1.8195 H         1 <0>         0.1558
     37 H17        -0.0374   -0.0026   -0.0661 H         1 <0>         0.1548
     38 H18         1.0641    1.2995   -1.8365 H         1 <0>         0.1705
     39 H19         1.3514    7.4050   -1.8567 H         1 <0>         0.4392
@<TRIPOS>BOND
     1    1    6 ar
     2    1    2 ar
     3    1   21 1
     4    2    3 ar
     5    2   22 1
     6    3    4 ar
     7    3   23 1
     8    4    5 ar
     9    4    7 1
    10    5    6 ar
    11    5   24 1
    12    6   25 1
    13    7    8 1
    14    7   26 1
    15    7   27 1
    16    8   13 1
    17    8    9 1
    18    8   39 1
    19    9   10 1
    20    9   28 1
    21    9   29 1
    22   10   11 1
    23   10   30 1
    24   10   31 1
    25   11   12 1
    26   11   14 1
    27   12   13 1
    28   12   32 1
    29   12   33 1
    30   13   34 1
    31   13   35 1
    32   14   19 ar
    33   14   15 ar
    34   15   16 ar
    35   15   20 1
    36   16   17 ar
    37   16   36 1
    38   17   18 ar
    39   17   37 1
    40   18   19 ar
    41   18   38 1
@<TRIPOS>MOLECULE
ZINC29409561
   38    40     0     0     0
SMALL
USER_CHARGES
1-benzyl-4-(3-chloro-2-pyridyl)piperazine
@<TRIPOS>ATOM
      1 C1         -0.4493   10.7035   -4.7587 C.ar      1 <0>        -0.1199
      2 C2         -1.3696   10.4955   -3.7484 C.ar      1 <0>        -0.1208
      3 C3         -0.9520   10.0160   -2.5210 C.ar      1 <0>        -0.1155
      4 C4          0.3860    9.7448   -2.3038 C.ar      1 <0>        -0.0785
      5 C5          1.3071    9.9583   -3.3122 C.ar      1 <0>        -0.0983
      6 C6          0.8887   10.4329   -4.5413 C.ar      1 <0>        -0.1206
      7 C7          0.8413    9.2224   -0.9655 C.3       1 <0>         0.0928
      8 N1          0.7979    7.7541   -0.9725 N.3       1 <0>        -0.5323
      9 C8          1.4542    7.2021    0.2209 C.3       1 <0>         0.0576
     10 C9          1.4580    5.6739    0.1369 C.3       1 <0>         0.0637
     11 N2          0.0752    5.1885    0.0278 N.pl3     1 <0>        -0.4831
     12 C10        -0.5811    5.7405   -1.1656 C.3       1 <0>         0.0642
     13 C11        -0.5849    7.2687   -1.0816 C.3       1 <0>         0.0546
     14 C12         0.0340    3.7985    0.0212 C.ar      1 <0>         0.3034
     15 C13        -0.6066    3.1220    1.0561 C.ar      1 <0>        -0.0609
     16 C14        -0.6446    1.7389    1.0333 C.ar      1 <0>        -0.0656
     17 C15        -0.0291    1.0764   -0.0208 C.ar      1 <0>        -0.1623
     18 C16         0.5883    1.8109   -1.0128 C.ar      1 <0>         0.1127
     19 N3          0.6046    3.1299   -0.9686 N.ar      1 <0>        -0.4935
     20 Cl1        -1.3534    4.0018    2.3530 Cl        1 <0>        -0.0371
     21 H1         -0.7757   11.0779   -5.7177 H         1 <0>         0.1207
     22 H2         -2.4150   10.7073   -3.9181 H         1 <0>         0.1211
     23 H3         -1.6710    9.8534   -1.7317 H         1 <0>         0.1183
     24 H4          2.3530    9.7506   -3.1411 H         1 <0>         0.1218
     25 H5          1.6078   10.5957   -5.3305 H         1 <0>         0.1216
     26 H6          1.8708    9.5579   -0.7719 H         1 <0>         0.0857
     27 H7          0.1766    9.6051   -0.1770 H         1 <0>         0.0457
     28 H8          2.4895    7.5700    0.2732 H         1 <0>         0.0857
     29 H9          0.9065    7.5195    1.1205 H         1 <0>         0.0466
     30 H10         2.0299    5.3567   -0.7476 H         1 <0>         0.0609
     31 H11         1.9232    5.2580    1.0428 H         1 <0>         0.0799
     32 H12        -0.0333    5.4231   -2.0652 H         1 <0>         0.0613
     33 H13        -1.6164    5.3726   -1.2179 H         1 <0>         0.0783
     34 H14        -1.1560    7.5869   -0.1970 H         1 <0>         0.0446
     35 H15        -1.0495    7.6856   -1.9874 H         1 <0>         0.0887
     36 H16        -1.1382    1.1870    1.8195 H         1 <0>         0.1486
     37 H17        -0.0374   -0.0026   -0.0661 H         1 <0>         0.1467
     38 H18         1.0641    1.2995   -1.8365 H         1 <0>         0.1633
@<TRIPOS>BOND
     1    1    6 ar
     2    1    2 ar
     3    1   21 1
     4    2    3 ar
     5    2   22 1
     6    3    4 ar
     7    3   23 1
     8    4    5 ar
     9    4    7 1
    10    5    6 ar
    11    5   24 1
    12    6   25 1
    13    7    8 1
    14    7   26 1
    15    7   27 1
    16    8   13 1
    17    8    9 1
    18    9   10 1
    19    9   28 1
    20    9   29 1
    21   10   11 1
    22   10   30 1
    23   10   31 1
    24   11   12 1
    25   11   14 1
    26   12   13 1
    27   12   32 1
    28   12   33 1
    29   13   34 1
    30   13   35 1
    31   14   19 ar
    32   14   15 ar
    33   15   16 ar
    34   15   20 1
    35   16   17 ar
    36   16   36 1
    37   17   18 ar
    38   17   37 1
    39   18   19 ar
    40   18   38 1
@<TRIPOS>MOLECULE
ZINC22174955
   30    31     0     0     0
SMALL
USER_CHARGES
2-piperazin-1-ylpyridine-3-carboxamide
@<TRIPOS>ATOM
      1 C1          0.0292    1.0762    0.0408 C.ar      1 <0>        -0.1700
      2 C2         -0.8864    1.7099   -0.7810 C.ar      1 <0>        -0.0346
      3 C3         -0.9094    3.1089   -0.7961 C.ar      1 <0>        -0.1626
      4 C4          0.0020    3.8095    0.0126 C.ar      1 <0>         0.3294
      5 N1          0.8610    3.1524    0.7764 N.ar      1 <0>        -0.5181
      6 C5          0.8947    1.8345    0.8085 C.ar      1 <0>         0.1434
      7 N2          0.0019    5.1922    0.0102 N.pl3     1 <0>        -0.4606
      8 C6         -0.8488    5.7207    1.0856 C.3       1 <0>         0.0385
      9 C7         -0.8854    7.2483    0.9994 C.3       1 <0>         0.0064
     10 N3          0.4823    7.7753    1.1066 N.4       1 <0>        -0.5370
     11 C8          1.3330    7.2468    0.0312 C.3       1 <0>         0.0021
     12 C9          1.3696    5.7192    0.1174 C.3       1 <0>         0.0280
     13 C10        -1.8678    3.8348   -1.6495 C.2       1 <0>         0.5671
     14 O1         -1.8123    5.0468   -1.7313 O.2       1 <0>        -0.5252
     15 N4         -2.8054    3.1550   -2.3388 N.am      1 <0>        -0.8731
     16 H1          0.0706   -0.0023    0.0790 H         1 <0>         0.1521
     17 H2         -1.5689    1.1386   -1.3926 H         1 <0>         0.1479
     18 H3          1.6115    1.3380    1.4458 H         1 <0>         0.1694
     19 H4         -1.8681    5.3218    0.9763 H         1 <0>         0.1186
     20 H5         -0.4388    5.4172    2.0602 H         1 <0>         0.0659
     21 H6         -1.3215    7.5508    0.0359 H         1 <0>         0.1428
     22 H7         -1.4986    7.6473    1.8208 H         1 <0>         0.1391
     23 H8          0.4593    8.8726    1.0326 H         1 <0>         0.4572
     24 H9          0.9229    7.5503   -0.9433 H         1 <0>         0.1376
     25 H10         2.3523    7.6457    0.1404 H         1 <0>         0.1397
     26 H11         1.8050    5.4157    1.0809 H         1 <0>         0.0788
     27 H12         1.9821    5.3192   -0.7040 H         1 <0>         0.1180
     28 H13        -3.5205    3.6965   -2.9755 H         1 <0>         0.4332
     29 H14        -2.8556    2.0586   -2.2647 H         1 <0>         0.4190
     30 H15         0.9134    7.4821    2.0752 H         1 <0>         0.4470
@<TRIPOS>BOND
     1    1    6 ar
     2    1    2 ar
     3    1   16 1
     4    2    3 ar
     5    2   17 1
     6    3    4 ar
     7    3   13 1
     8    4    5 ar
     9    4    7 1
    10    5    6 ar
    11    6   18 1
    12    7   12 1
    13    7    8 1
    14    8    9 1
    15    8   19 1
    16    8   20 1
    17    9   10 1
    18    9   21 1
    19    9   22 1
    20   10   11 1
    21   10   23 1
    22   10   30 1
    23   11   12 1
    24   11   24 1
    25   11   25 1
    26   12   26 1
    27   12   27 1
    28   13   14 2
    29   13   15 am
    30   15   28 1
    31   15   29 1
@<TRIPOS>MOLECULE
ZINC29413191
   26    27     0     0     0
SMALL
USER_CHARGES
1-(3-chloro-4-pyridyl)piperazine
@<TRIPOS>ATOM
      1 C1         -0.0231    1.7329    0.0476 C.ar      1 <0>        -0.2085
      2 C2          1.1565    2.4481    0.0511 C.ar      1 <0>         0.1345
      3 N1          1.1483    3.7675    0.0251 N.ar      1 <0>        -0.4702
      4 C3          0.0235    4.4580   -0.0056 C.ar      1 <0>         0.1426
      5 C4         -1.1989    3.8183   -0.0117 C.ar      1 <0>        -0.1012
      6 C5         -1.2340    2.4232    0.0210 C.ar      1 <0>         0.1407
      7 N2         -2.4466    1.7390    0.0224 N.pl3     1 <0>        -0.4845
      8 C6         -2.2399    0.3006   -0.1968 C.3       1 <0>         0.0163
      9 C7         -3.5977   -0.4022   -0.2676 C.3       1 <0>         0.0033
     10 N3         -4.3357   -0.1633    0.9805 N.4       1 <0>        -0.5390
     11 C8         -4.5424    1.2751    1.1997 C.3       1 <0>         0.0018
     12 C9         -3.1847    1.9778    1.2706 C.3       1 <0>         0.0137
     13 Cl1        -2.6723    4.7353   -0.0522 Cl        1 <0>        -0.0338
     14 H1         -0.0088    0.6532    0.0690 H         1 <0>         0.1480
     15 H2          2.0990    1.9214    0.0758 H         1 <0>         0.1712
     16 H3          0.0607    5.5372   -0.0265 H         1 <0>         0.1747
     17 H4         -1.6972    0.1479   -1.1413 H         1 <0>         0.1308
     18 H5         -1.6530   -0.1164    0.6348 H         1 <0>         0.0753
     19 H6         -4.1727   -0.0042   -1.1167 H         1 <0>         0.1394
     20 H7         -3.4445   -1.4830   -0.4030 H         1 <0>         0.1445
     21 H8         -5.3169   -0.6576    0.9266 H         1 <0>         0.4606
     22 H9         -5.1292    1.6921    0.3680 H         1 <0>         0.1398
     23 H10        -5.0852    1.4278    2.1442 H         1 <0>         0.1449
     24 H11        -2.6087    1.5799    2.1190 H         1 <0>         0.0729
     25 H12        -3.3369    3.0588    1.4055 H         1 <0>         0.1334
     26 H13        -3.7654   -0.5719    1.8277 H         1 <0>         0.4490
@<TRIPOS>BOND
     1    1    6 ar
     2    1    2 ar
     3    1   14 1
     4    2    3 ar
     5    2   15 1
     6    3    4 ar
     7    4    5 ar
     8    4   16 1
     9    5    6 ar
    10    5   13 1
    11    6    7 1
    12    7   12 1
    13    7    8 1
    14    8    9 1
    15    8   17 1
    16    8   18 1
    17    9   10 1
    18    9   19 1
    19    9   20 1
    20   10   11 1
    21   10   21 1
    22   10   26 1
    23   11   12 1
    24   11   22 1
    25   11   23 1
    26   12   24 1
    27   12   25 1
@<TRIPOS>MOLECULE
ZINC29413191
   27    28     0     0     0
SMALL
USER_CHARGES
1-(3-chloro-4-pyridyl)piperazine
@<TRIPOS>ATOM
      1 C1         -0.0231    1.7329    0.0476 C.ar      1 <0>        -0.1793
      2 C2          1.1565    2.4481    0.0511 C.ar      1 <0>         0.1782
      3 N1          1.1483    3.7675    0.0251 N.ar      1 <0>        -0.4663
      4 C3          0.0235    4.4580   -0.0056 C.ar      1 <0>         0.1713
      5 C4         -1.1989    3.8183   -0.0117 C.ar      1 <0>        -0.0889
      6 C5         -1.2340    2.4232    0.0210 C.ar      1 <0>         0.2252
      7 N2         -2.4466    1.7390    0.0224 N.pl3     1 <0>        -0.4849
      8 C6         -2.2399    0.3006   -0.1968 C.3       1 <0>         0.0070
      9 C7         -3.5977   -0.4022   -0.2676 C.3       1 <0>         0.0017
     10 N3         -4.3357   -0.1633    0.9805 N.4       1 <0>        -0.5424
     11 C8         -4.5424    1.2751    1.1997 C.3       1 <0>        -0.0006
     12 C9         -3.1847    1.9778    1.2706 C.3       1 <0>         0.0125
     13 Cl1        -2.6723    4.7353   -0.0522 Cl        1 <0>         0.0423
     14 H1         -0.0088    0.6532    0.0690 H         1 <0>         0.1923
     15 H2          2.0990    1.9214    0.0758 H         1 <0>         0.2206
     16 H3          0.0607    5.5372   -0.0265 H         1 <0>         0.2225
     17 H4         -1.6972    0.1479   -1.1413 H         1 <0>         0.1401
     18 H5         -1.6530   -0.1164    0.6348 H         1 <0>         0.0896
     19 H6         -4.1727   -0.0042   -1.1167 H         1 <0>         0.1451
     20 H7         -3.4445   -1.4830   -0.4030 H         1 <0>         0.1550
     21 H8         -5.3169   -0.6576    0.9266 H         1 <0>         0.4713
     22 H9         -5.1292    1.6921    0.3680 H         1 <0>         0.1457
     23 H10        -5.0852    1.4278    2.1442 H         1 <0>         0.1560
     24 H11        -2.6087    1.5799    2.1190 H         1 <0>         0.0901
     25 H12        -3.3369    3.0588    1.4055 H         1 <0>         0.1379
     26 H13        -3.7654   -0.5719    1.8277 H         1 <0>         0.4525
     27 H14         2.0974    4.3236    0.0287 H         1 <0>         0.5056
@<TRIPOS>BOND
     1    1    6 ar
     2    1    2 ar
     3    1   14 1
     4    2    3 ar
     5    2   15 1
     6    3    4 ar
     7    3   27 1
     8    4    5 ar
     9    4   16 1
    10    5    6 ar
    11    5   13 1
    12    6    7 1
    13    7   12 1
    14    7    8 1
    15    8    9 1
    16    8   17 1
    17    8   18 1
    18    9   10 1
    19    9   19 1
    20    9   20 1
    21   10   11 1
    22   10   21 1
    23   10   26 1
    24   11   12 1
    25   11   22 1
    26   11   23 1
    27   12   24 1
    28   12   25 1
@<TRIPOS>MOLECULE
ZINC19702600
   27    28     0     0     0
SMALL
USER_CHARGES
2-piperazin-1-ylpyridine-3-carbonitrile
@<TRIPOS>ATOM
      1 C1          1.2201   -0.6451    0.0107 C.ar      1 <0>        -0.1599
      2 C2          0.2959   -0.0012   -0.7939 C.ar      1 <0>        -0.0160
      3 C3          0.2833    1.3979   -0.8033 C.ar      1 <0>        -0.0477
      4 C4          1.2060    2.0885    0.0018 C.ar      1 <0>         0.3211
      5 N1          2.0688    1.4221    0.7523 N.ar      1 <0>        -0.5095
      6 C5          2.0962    0.1035    0.7752 C.ar      1 <0>         0.1472
      7 N2          1.2125    3.4725    0.0091 N.pl3     1 <0>        -0.4880
      8 C6          0.3656    3.9974    1.0893 C.3       1 <0>         0.0262
      9 C7          0.3363    5.5258    1.0141 C.3       1 <0>         0.0041
     10 N3          1.7066    6.0454    1.1234 N.4       1 <0>        -0.5380
     11 C8          2.5535    5.5205    0.0432 C.3       1 <0>        -0.0005
     12 C9          2.5828    3.9921    0.1184 C.3       1 <0>         0.0288
     13 C10        -0.6485    2.1132   -1.6223 C.1       1 <0>         0.2525
     14 N4         -1.3876    2.6807   -2.2721 N.1       1 <0>        -0.3883
     15 H1          1.2568   -1.7240    0.0410 H         1 <0>         0.1580
     16 H2         -0.3980   -0.5649   -1.3999 H         1 <0>         0.1565
     17 H3          2.8164   -0.4009    1.4023 H         1 <0>         0.1738
     18 H4         -0.6557    3.6042    0.9784 H         1 <0>         0.1221
     19 H5          0.7753    3.6849    2.0612 H         1 <0>         0.0775
     20 H6         -0.0995    5.8373    0.0533 H         1 <0>         0.1378
     21 H7         -0.2740    5.9219    1.8391 H         1 <0>         0.1440
     22 H8          1.6888    7.1433    1.0573 H         1 <0>         0.4593
     23 H9          2.1438    5.8330   -0.9287 H         1 <0>         0.1359
     24 H10         3.5748    5.9137    0.1540 H         1 <0>         0.1436
     25 H11         3.0179    3.6796    1.0791 H         1 <0>         0.0861
     26 H12         3.1924    3.5950   -0.7066 H         1 <0>         0.1234
     27 H13         2.1374    5.7432    2.0894 H         1 <0>         0.4501
@<TRIPOS>BOND
     1    1    6 ar
     2    1    2 ar
     3    1   15 1
     4    2    3 ar
     5    2   16 1
     6    3    4 ar
     7    3   13 1
     8    4    5 ar
     9    4    7 1
    10    5    6 ar
    11    6   17 1
    12    7   12 1
    13    7    8 1
    14    8    9 1
    15    8   18 1
    16    8   19 1
    17    9   10 1
    18    9   20 1
    19    9   21 1
    20   10   11 1
    21   10   22 1
    22   10   27 1
    23   11   12 1
    24   11   23 1
    25   11   24 1
    26   12   25 1
    27   12   26 1
    28   13   14 3
@<TRIPOS>MOLECULE
ZINC26898952
   26    27     0     0     0
SMALL
USER_CHARGES
1-(3-fluoro-2-pyridyl)piperazine
@<TRIPOS>ATOM
      1 C1         -0.0126    1.0758    0.0080 C.ar      1 <0>        -0.1495
      2 C2         -1.2209    1.7608    0.0174 C.ar      1 <0>        -0.0820
      3 C3         -1.1952    3.1450    0.0294 C.ar      1 <0>         0.0417
      4 C4          0.0352    3.7990    0.0207 C.ar      1 <0>         0.2673
      5 N1          1.1642    3.1087    0.0067 N.ar      1 <0>        -0.4923
      6 C5          1.1688    1.7887    0.0005 C.ar      1 <0>         0.1213
      7 N2          0.0771    5.1898    0.0264 N.pl3     1 <0>        -0.4747
      8 C6         -0.6588    5.7342    1.1761 C.3       1 <0>         0.0102
      9 C7         -0.6564    7.2629    1.1024 C.3       1 <0>         0.0064
     10 N3          0.7307    7.7481    1.0911 N.4       1 <0>        -0.5393
     11 C8          1.4666    7.2037   -0.0586 C.3       1 <0>        -0.0022
     12 C9          1.4642    5.6750    0.0150 C.3       1 <0>         0.0347
     13 F1         -2.3466    3.8515    0.0432 F         1 <0>        -0.1222
     14 H1          0.0021   -0.0041    0.0020 H         1 <0>         0.1558
     15 H2         -2.1591    1.2258    0.0189 H         1 <0>         0.1582
     16 H3          2.1102    1.2594   -0.0110 H         1 <0>         0.1744
     17 H4         -1.6954    5.3667    1.1553 H         1 <0>         0.1372
     18 H5         -0.1737    5.4103    2.1087 H         1 <0>         0.0722
     19 H6         -1.1665    7.5865    0.1831 H         1 <0>         0.1399
     20 H7         -1.1822    7.6730    1.9772 H         1 <0>         0.1446
     21 H8          0.7345    8.8462    1.0259 H         1 <0>         0.4591
     22 H9          0.9814    7.5276   -0.9912 H         1 <0>         0.1369
     23 H10         2.5032    7.5711   -0.0378 H         1 <0>         0.1439
     24 H11         1.9737    5.3504    0.9343 H         1 <0>         0.0772
     25 H12         1.9893    5.2640   -0.8599 H         1 <0>         0.1322
     26 H13         1.2366    7.4340    2.0160 H         1 <0>         0.4490
@<TRIPOS>BOND
     1    1    6 ar
     2    1    2 ar
     3    1   14 1
     4    2    3 ar
     5    2   15 1
     6    3    4 ar
     7    3   13 1
     8    4    5 ar
     9    4    7 1
    10    5    6 ar
    11    6   16 1
    12    7   12 1
    13    7    8 1
    14    8    9 1
    15    8   17 1
    16    8   18 1
    17    9   10 1
    18    9   19 1
    19    9   20 1
    20   10   11 1
    21   10   21 1
    22   10   26 1
    23   11   12 1
    24   11   22 1
    25   11   23 1
    26   12   24 1
    27   12   25 1
@<TRIPOS>MOLECULE
ZINC01530571
   60    63     0     0     0
SMALL
USER_CHARGES

@<TRIPOS>ATOM
      1 C1         -0.0167    1.3818    0.0096 C.ar      1 <0>        -0.2679
      2 C2          1.1915    2.0609    0.0018 C.ar      1 <0>         0.1958
      3 N1          2.3197    1.3705   -0.0127 N.ar      1 <0>        -0.5666
      4 C3          2.3029    0.0457   -0.0197 C.ar      1 <0>         0.5562
      5 N2          1.1654   -0.6335   -0.0129 N.ar      1 <0>        -0.5663
      6 C4          0.0021   -0.0041    0.0020 C.ar      1 <0>         0.1960
      7 N3          3.5022   -0.6451   -0.0348 N.pl3     1 <0>        -0.6064
      8 C5          4.7874    0.0707   -0.0371 C.3       1 <0>         0.1080
      9 C6          5.6545   -0.4916   -1.1683 C.3       1 <0>        -0.0202
     10 N4          5.7718   -1.9473   -1.0165 N.4       1 <0>        -0.3840
     11 C7          4.4544   -2.5749   -1.1794 C.3       1 <0>        -0.0262
     12 C8          3.5278   -2.1159   -0.0430 C.3       1 <0>         0.1092
     13 C9          6.6913   -2.4716   -2.0352 C.3       1 <0>        -0.0085
     14 C10         6.9121   -3.9674   -1.8016 C.3       1 <0>        -0.1445
     15 C11         7.8697   -4.5135   -2.8626 C.3       1 <0>        -0.1292
     16 C12         8.0905   -6.0093   -2.6289 C.3       1 <0>         0.0911
     17 N5          9.0074   -6.5321   -3.6449 N.am      1 <0>        -0.5675
     18 C13         8.4943   -7.0005   -4.7921 C.2       1 <0>         0.5274
     19 O1          7.2949   -6.9658   -4.9647 O.2       1 <0>        -0.4991
     20 C14         9.3797   -7.5686   -5.8706 C.3       1 <0>        -0.1339
     21 C15        10.7544   -6.9065   -5.7927 C.3       1 <0>        -0.0666
     22 C16        11.7066   -7.5412   -6.8156 C.3       1 <0>        -0.1146
     23 C17        12.1410   -6.4083   -7.7700 C.3       1 <0>        -0.1265
     24 C18        11.9376   -5.1147   -6.9422 C.3       1 <0>        -0.1244
     25 C19        10.6393   -5.4143   -6.1507 C.3       1 <0>        -0.1220
     26 C20        11.3191   -7.0612   -4.3813 C.3       1 <0>        -0.1329
     27 C21        10.3239   -6.5167   -3.3897 C.2       1 <0>         0.5271
     28 O2         10.7205   -6.0600   -2.3391 O.2       1 <0>        -0.4986
     29 H1         -0.9525    1.9208    0.0259 H         1 <0>         0.1543
     30 H2          1.2116    3.1407    0.0070 H         1 <0>         0.1759
     31 H3         -0.9219   -0.5632    0.0082 H         1 <0>         0.1760
     32 H4          4.6141    1.1341   -0.2023 H         1 <0>         0.1406
     33 H5          5.2907   -0.0773    0.9184 H         1 <0>         0.0917
     34 H6          5.1926   -0.2623   -2.1286 H         1 <0>         0.1320
     35 H7          6.6459   -0.0406   -1.1249 H         1 <0>         0.1443
     36 H8          4.0288   -2.2827   -2.1393 H         1 <0>         0.1328
     37 H9          4.5614   -3.6591   -1.1441 H         1 <0>         0.1450
     38 H10         3.9061   -2.4809    0.9119 H         1 <0>         0.0920
     39 H11         2.5214   -2.4989   -0.2121 H         1 <0>         0.1403
     40 H12         6.2623   -2.3179   -3.0254 H         1 <0>         0.1301
     41 H13         7.6452   -1.9486   -1.9674 H         1 <0>         0.1337
     42 H14         7.3410   -4.1211   -0.8114 H         1 <0>         0.0926
     43 H15         5.9581   -4.4905   -1.8694 H         1 <0>         0.0914
     44 H16         7.4407   -4.3598   -3.8528 H         1 <0>         0.0793
     45 H17         8.8236   -3.9904   -2.7947 H         1 <0>         0.0796
     46 H18         8.5194   -6.1630   -1.6388 H         1 <0>         0.0991
     47 H19         7.1365   -6.5323   -2.6968 H         1 <0>         0.0987
     48 H20         9.4847   -8.6439   -5.7267 H         1 <0>         0.1160
     49 H21         8.9360   -7.3726   -6.8468 H         1 <0>         0.1186
     50 H22        12.5771   -7.9571   -6.3083 H         1 <0>         0.0770
     51 H23        11.1896   -8.3222   -7.3732 H         1 <0>         0.0769
     52 H24        13.1891   -6.5234   -8.0465 H         1 <0>         0.0725
     53 H25        11.5103   -6.3955   -8.6589 H         1 <0>         0.0700
     54 H26        12.7754   -4.9549   -6.2634 H         1 <0>         0.0706
     55 H27        11.8006   -4.2545   -7.5974 H         1 <0>         0.0710
     56 H28         9.7628   -5.2377   -6.7741 H         1 <0>         0.0740
     57 H29        10.5946   -4.8071   -5.2466 H         1 <0>         0.0611
     58 H30        11.5032   -8.1158   -4.1763 H         1 <0>         0.1163
     59 H31        12.2530   -6.5051   -4.2998 H         1 <0>         0.1183
     60 H32         6.1334   -2.1605   -0.0990 H         1 <0>         0.4234
@<TRIPOS>BOND
     1    1    6 ar
     2    1    2 ar
     3    1   29 1
     4    2    3 ar
     5    2   30 1
     6    3    4 ar
     7    4    5 ar
     8    4    7 1
     9    5    6 ar
    10    6   31 1
    11    7   12 1
    12    7    8 1
    13    8    9 1
    14    8   32 1
    15    8   33 1
    16    9   10 1
    17    9   34 1
    18    9   35 1
    19   10   11 1
    20   10   13 1
    21   10   60 1
    22   11   12 1
    23   11   36 1
    24   11   37 1
    25   12   38 1
    26   12   39 1
    27   13   14 1
    28   13   40 1
    29   13   41 1
    30   14   15 1
    31   14   42 1
    32   14   43 1
    33   15   16 1
    34   15   44 1
    35   15   45 1
    36   16   17 1
    37   16   46 1
    38   16   47 1
    39   17   27 am
    40   17   18 am
    41   18   19 2
    42   18   20 1
    43   20   21 1
    44   20   48 1
    45   20   49 1
    46   21   25 1
    47   21   22 1
    48   21   26 1
    49   22   23 1
    50   22   50 1
    51   22   51 1
    52   23   24 1
    53   23   52 1
    54   23   53 1
    55   24   25 1
    56   24   54 1
    57   24   55 1
    58   25   56 1
    59   25   57 1
    60   26   27 1
    61   26   58 1
    62   26   59 1
    63   27   28 2
@<TRIPOS>MOLECULE
ZINC01530571
   59    62     0     0     0
SMALL
USER_CHARGES

@<TRIPOS>ATOM
      1 C1         -0.0167    1.3818    0.0096 C.ar      1 <0>        -0.2969
      2 C2          1.1915    2.0609    0.0018 C.ar      1 <0>         0.1938
      3 N1          2.3197    1.3705   -0.0127 N.ar      1 <0>        -0.5732
      4 C3          2.3029    0.0457   -0.0197 C.ar      1 <0>         0.5658
      5 N2          1.1654   -0.6335   -0.0129 N.ar      1 <0>        -0.5730
      6 C4          0.0021   -0.0041    0.0020 C.ar      1 <0>         0.1940
      7 N3          3.5022   -0.6451   -0.0348 N.pl3     1 <0>        -0.5851
      8 C5          4.7864    0.0719   -0.0371 C.3       1 <0>         0.1324
      9 C6          5.6472   -0.4751   -1.1808 C.3       1 <0>         0.0415
     10 N4          5.7512   -1.9351   -1.0561 N.3       1 <0>        -0.5378
     11 C7          4.4367   -2.5765   -1.1923 C.3       1 <0>         0.0378
     12 C8          3.5262   -2.1156   -0.0430 C.3       1 <0>         0.1322
     13 C9          6.7063   -2.4799   -2.0301 C.3       1 <0>         0.0580
     14 C10         6.9763   -3.9518   -1.7112 C.3       1 <0>        -0.1114
     15 C11         7.9711   -4.5193   -2.7257 C.3       1 <0>        -0.1277
     16 C12         8.2411   -5.9911   -2.4068 C.3       1 <0>         0.0925
     17 N5          9.1937   -6.5345   -3.3782 N.am      1 <0>        -0.5656
     18 C13         8.7176   -7.0831   -4.5056 C.2       1 <0>         0.5235
     19 O1          7.5209   -7.1017   -4.6983 O.2       1 <0>        -0.4979
     20 C14         9.6414   -7.6762   -5.5375 C.3       1 <0>        -0.1320
     21 C15        10.9900   -6.9610   -5.4750 C.3       1 <0>        -0.0665
     22 C16        11.9819   -7.6151   -6.4466 C.3       1 <0>        -0.1128
     23 C17        12.3921   -6.5206   -7.4551 C.3       1 <0>        -0.1254
     24 C18        12.1282   -5.1922   -6.7029 C.3       1 <0>        -0.1237
     25 C19        10.8279   -5.4956   -5.9162 C.3       1 <0>        -0.1241
     26 C20        11.5352   -7.0178   -4.0487 C.3       1 <0>        -0.1310
     27 C21        10.5042   -6.4570   -3.1040 C.2       1 <0>         0.5230
     28 O2         10.8659   -5.9296   -2.0741 O.2       1 <0>        -0.4965
     29 H1         -0.9525    1.9208    0.0259 H         1 <0>         0.1437
     30 H2          1.2116    3.1407    0.0070 H         1 <0>         0.1666
     31 H3         -0.9219   -0.5632    0.0082 H         1 <0>         0.1667
     32 H4          4.6108    1.1370   -0.1881 H         1 <0>         0.1016
     33 H5          5.2961   -0.0869    0.9132 H         1 <0>         0.0738
     34 H6          5.1859   -0.2235   -2.1357 H         1 <0>         0.0373
     35 H7          6.6426   -0.0339   -1.1299 H         1 <0>         0.0892
     36 H8          3.9922   -2.2957   -2.1471 H         1 <0>         0.0376
     37 H9          4.5541   -3.6593   -1.1498 H         1 <0>         0.0919
     38 H10         3.9172   -2.4807    0.9068 H         1 <0>         0.0739
     39 H11         2.5171   -2.4975   -0.1978 H         1 <0>         0.1013
     40 H12         6.2894   -2.3962   -3.0337 H         1 <0>         0.0338
     41 H13         7.6396   -1.9194   -1.9765 H         1 <0>         0.0768
     42 H14         7.3933   -4.0355   -0.7076 H         1 <0>         0.0768
     43 H15         6.0430   -4.5123   -1.7648 H         1 <0>         0.0665
     44 H16         7.5542   -4.4355   -3.7293 H         1 <0>         0.0656
     45 H17         8.9044   -3.9587   -2.6720 H         1 <0>         0.0680
     46 H18         8.6581   -6.0748   -1.4031 H         1 <0>         0.0965
     47 H19         7.3078   -6.5516   -2.4604 H         1 <0>         0.0949
     48 H20         9.7822   -8.7375   -5.3331 H         1 <0>         0.1123
     49 H21         9.2080   -7.5500   -6.5297 H         1 <0>         0.1155
     50 H22        12.8577   -7.9706   -5.9039 H         1 <0>         0.0751
     51 H23        11.5029   -8.4436   -6.9683 H         1 <0>         0.0748
     52 H24        13.4482   -6.6121   -7.7087 H         1 <0>         0.0699
     53 H25        11.7768   -6.5793   -8.3530 H         1 <0>         0.0686
     54 H26        12.9479   -4.9651   -6.0212 H         1 <0>         0.0700
     55 H27        11.9720   -4.3745   -7.4065 H         1 <0>         0.0701
     56 H28         9.9566   -5.3855   -6.5618 H         1 <0>         0.0744
     57 H29        10.7458   -4.8422   -5.0477 H         1 <0>         0.0652
     58 H30        11.7534   -8.0522   -3.7832 H         1 <0>         0.1126
     59 H31        12.4471   -6.4242   -3.9835 H         1 <0>         0.1155
@<TRIPOS>BOND
     1    1    6 ar
     2    1    2 ar
     3    1   29 1
     4    2    3 ar
     5    2   30 1
     6    3    4 ar
     7    4    5 ar
     8    4    7 1
     9    5    6 ar
    10    6   31 1
    11    7   12 1
    12    7    8 1
    13    8    9 1
    14    8   32 1
    15    8   33 1
    16    9   10 1
    17    9   34 1
    18    9   35 1
    19   10   11 1
    20   10   13 1
    21   11   12 1
    22   11   36 1
    23   11   37 1
    24   12   38 1
    25   12   39 1
    26   13   14 1
    27   13   40 1
    28   13   41 1
    29   14   15 1
    30   14   42 1
    31   14   43 1
    32   15   16 1
    33   15   44 1
    34   15   45 1
    35   16   17 1
    36   16   46 1
    37   16   47 1
    38   17   27 am
    39   17   18 am
    40   18   19 2
    41   18   20 1
    42   20   21 1
    43   20   48 1
    44   20   49 1
    45   21   25 1
    46   21   22 1
    47   21   26 1
    48   22   23 1
    49   22   50 1
    50   22   51 1
    51   23   24 1
    52   23   52 1
    53   23   53 1
    54   24   25 1
    55   24   54 1
    56   24   55 1
    57   25   56 1
    58   25   57 1
    59   26   27 1
    60   26   58 1
    61   26   59 1
    62   27   28 2
@<TRIPOS>MOLECULE
ZINC53683151
   83    89     0     0     0
SMALL
USER_CHARGES

@<TRIPOS>ATOM
      1 C1         -0.9604   -2.3128    0.2514 C.3       1 <0>        -0.1483
      2 C2          0.5064   -1.8892    0.3513 C.3       1 <0>        -0.1034
      3 C3          1.2341   -2.2622   -0.9419 C.3       1 <0>        -0.1440
      4 C4          0.5870   -0.3762    0.5637 C.3       1 <0>        -0.1150
      5 C5         -0.0320   -0.0173    1.9161 C.3       1 <0>         0.1563
      6 H1         -1.0342   -0.4403    1.9853 H         1 <0>         0.1308
      7 C6          0.8295   -0.5630    3.0317 C.2       1 <0>         0.5373
      8 O1          0.8476   -1.7563    3.2475 O.2       1 <0>        -0.5133
      9 N1          1.5736    0.2584    3.7840 N.am      1 <0>        -0.6100
     10 C7          2.7007   -0.1227    4.6620 C.3       1 <0>         0.1031
     11 C8          3.7480    0.9855    4.3693 C.3       1 <0>        -0.1314
     12 C9          2.8693    2.2537    4.2358 C.3       1 <0>        -0.1242
     13 C10         1.4703    1.7260    3.8747 C.3       1 <0>         0.1487
     14 H2          0.7511    2.0069    4.6441 H         1 <0>         0.1112
     15 C11         1.0392    2.2663    2.5065 C.3       1 <0>         0.4669
     16 N2         -0.0999    1.4440    2.0579 N.am      1 <0>        -0.6471
     17 C12        -1.1550    2.2360    1.8227 C.2       1 <0>         0.4985
     18 O2         -2.2292    1.8784    1.3876 O.2       1 <0>        -0.4509
     19 C13        -0.7768    3.6491    2.1925 C.3       1 <0>         0.3208
     20 O3          0.5890    3.6154    2.6297 O.3       1 <0>        -0.3399
     21 C14        -1.6753    4.1511    3.3245 C.3       1 <0>        -0.1013
     22 C15        -1.4531    3.2922    4.5710 C.3       1 <0>        -0.1551
     23 C16        -1.3309    5.6079    3.6410 C.3       1 <0>        -0.1375
     24 N3         -0.9073    4.5237    1.0245 N.am      1 <0>        -0.7268
     25 C17        -2.1136    4.7088    0.4526 C.2       1 <0>         0.5304
     26 O4         -3.1053    4.2295    0.9602 O.2       1 <0>        -0.4916
     27 C18        -2.2302    5.5113   -0.8176 C.3       1 <0>        -0.0655
     28 H3         -1.6380    5.0427   -1.6036 H         1 <0>         0.1218
     29 C19        -3.6990    5.5823   -1.2505 C.3       1 <0>         0.0816
     30 N4         -3.7936    6.4488   -2.4292 N.3       1 <0>        -0.5481
     31 C20        -3.4322    7.8324   -2.1489 C.3       1 <0>         0.1376
     32 H4         -4.2947    8.2947   -1.6688 H         1 <0>         0.0487
     33 C21        -3.1994    8.5819   -3.4680 C.3       1 <0>        -0.0302
     34 C22        -2.7108    9.9755   -3.1711 C.2       1 <0>        -0.1097
     35 C23        -2.0194   10.2479   -1.9167 C.ar      1 <0>        -0.1332
     36 C24        -1.7658    9.3056   -0.8975 C.ar      1 <0>         0.0035
     37 C25        -1.0880    9.7843    0.2001 C.ar      1 <0>        -0.1254
     38 C26        -0.7111   11.1251    0.2487 C.ar      1 <0>        -0.0868
     39 C27        -0.9744   12.0494   -0.7555 C.ar      1 <0>        -0.1197
     40 C28        -1.6569   11.5972   -1.8842 C.ar      1 <0>         0.1289
     41 N5         -2.1153   12.1208   -3.0559 N.pl3     1 <0>        -0.5791
     42 H5         -2.0178   13.0480   -3.3234 H         1 <0>         0.4203
     43 C29        -2.7412   11.1411   -3.8114 C.2       1 <0>         0.0686
     44 Br1        -3.5251   11.4216   -5.5092 Br        1 <0>         0.0105
     45 C30        -2.2765    7.9536   -1.1913 C.2       1 <0>        -0.0518
     46 C31        -1.7368    6.9130   -0.5787 C.2       1 <0>        -0.1348
     47 C32        -5.1282    6.3662   -3.0375 C.3       1 <0>         0.0268
     48 O5          2.1226    2.1876    1.5780 O.3       1 <0>        -0.5259
     49 H6         -1.4538   -1.7327   -0.5285 H         1 <0>         0.0544
     50 H7         -1.0165   -3.3733    0.0059 H         1 <0>         0.0594
     51 H8         -1.4560   -2.1340    1.2056 H         1 <0>         0.0540
     52 H9          0.9755   -2.3997    1.1924 H         1 <0>         0.0910
     53 H10         0.7650   -1.7517   -1.7830 H         1 <0>         0.0539
     54 H11         2.2791   -1.9605   -0.8707 H         1 <0>         0.0535
     55 H12         1.1766   -3.3401   -1.0932 H         1 <0>         0.0590
     56 H13         1.6306   -0.0620    0.5469 H         1 <0>         0.0785
     57 H14         0.0418    0.1319   -0.2317 H         1 <0>         0.0797
     58 H15         2.3990   -0.1028    5.7092 H         1 <0>         0.0800
     59 H16         3.0892   -1.1038    4.3888 H         1 <0>         0.0906
     60 H17         4.4477    1.0854    5.1991 H         1 <0>         0.0885
     61 H18         4.2770    0.7817    3.4383 H         1 <0>         0.0798
     62 H19         2.8382    2.7951    5.1813 H         1 <0>         0.0858
     63 H20         3.2490    2.8965    3.4416 H         1 <0>         0.0962
     64 H21        -2.7189    4.0829    3.0175 H         1 <0>         0.1181
     65 H22        -2.0932    3.6499    5.3775 H         1 <0>         0.0741
     66 H23        -1.6984    2.2544    4.3456 H         1 <0>         0.0507
     67 H24        -0.4095    3.3604    4.8780 H         1 <0>         0.0641
     68 H25        -1.5725    6.2333    2.7816 H         1 <0>         0.0560
     69 H26        -1.9082    5.9384    4.5045 H         1 <0>         0.0638
     70 H27        -0.2668    5.6899    3.8624 H         1 <0>         0.0633
     71 H28        -0.1255    4.9696    0.6627 H         1 <0>         0.4090
     72 H29        -4.0560    4.5833   -1.5005 H         1 <0>         0.0924
     73 H30        -4.2998    5.9976   -0.4413 H         1 <0>         0.0502
     74 H31        -2.4523    8.0530   -4.0597 H         1 <0>         0.0927
     75 H32        -4.1343    8.6354   -4.0258 H         1 <0>         0.0837
     76 H33        -0.8495    9.1239    1.0207 H         1 <0>         0.1266
     77 H34        -0.1798   11.4685    1.1240 H         1 <0>         0.1266
     78 H35        -0.6625   13.0793   -0.6647 H         1 <0>         0.1327
     79 H36        -0.9142    7.0722    0.1028 H         1 <0>         0.1216
     80 H37        -5.8712    6.7463   -2.3364 H         1 <0>         0.0304
     81 H38        -5.1496    6.9635   -3.9490 H         1 <0>         0.0748
     82 H39        -5.3540    5.3274   -3.2785 H         1 <0>         0.0756
     83 H40         1.9078    2.5159    0.6942 H         1 <0>         0.3869
@<TRIPOS>BOND
     1    1    2 1
     2    1   49 1
     3    1   50 1
     4    1   51 1
     5    2    3 1
     6    2    4 1
     7    2   52 1
     8    3   53 1
     9    3   54 1
    10    3   55 1
    11    4    5 1
    12    4   56 1
    13    4   57 1
    14    5    6 1
    15    5   16 1
    16    5    7 1
    17    7    8 2
    18    7    9 am
    19    9   13 1
    20    9   10 1
    21   10   11 1
    22   10   58 1
    23   10   59 1
    24   11   12 1
    25   11   60 1
    26   11   61 1
    27   12   13 1
    28   12   62 1
    29   12   63 1
    30   13   14 1
    31   13   15 1
    32   15   20 1
    33   15   16 1
    34   15   48 1
    35   16   17 am
    36   17   18 2
    37   17   19 1
    38   19   20 1
    39   19   21 1
    40   19   24 1
    41   21   22 1
    42   21   23 1
    43   21   64 1
    44   22   65 1
    45   22   66 1
    46   22   67 1
    47   23   68 1
    48   23   69 1
    49   23   70 1
    50   24   25 am
    51   24   71 1
    52   25   26 2
    53   25   27 1
    54   27   28 1
    55   27   46 1
    56   27   29 1
    57   29   30 1
    58   29   72 1
    59   29   73 1
    60   30   31 1
    61   30   47 1
    62   31   32 1
    63   31   45 1
    64   31   33 1
    65   33   34 1
    66   33   74 1
    67   33   75 1
    68   34   43 2
    69   34   35 1
    70   35   40 ar
    71   35   36 ar
    72   36   37 ar
    73   36   45 1
    74   37   38 ar
    75   37   76 1
    76   38   39 ar
    77   38   77 1
    78   39   40 ar
    79   39   78 1
    80   40   41 1
    81   41   42 1
    82   41   43 1
    83   43   44 1
    84   45   46 2
    85   46   79 1
    86   47   80 1
    87   47   81 1
    88   47   82 1
    89   48   83 1
@<TRIPOS>MOLECULE
ZINC19015156
   26    27     0     0     0
SMALL
USER_CHARGES
1-(3,5-dichloro-2-pyridyl)piperazine
@<TRIPOS>ATOM
      1 C1         -2.0331    3.6795    2.1240 C.ar      1 <0>        -0.0492
      2 C2         -2.1407    2.8652    3.2450 C.ar      1 <0>        -0.0731
      3 C3         -1.5376    1.6228    3.2387 C.ar      1 <0>         0.1358
      4 N1         -0.8634    1.2027    2.1845 N.ar      1 <0>        -0.4818
      5 C4         -0.7381    1.9482    1.0981 C.ar      1 <0>         0.2867
      6 C5         -1.3155    3.2137    1.0364 C.ar      1 <0>        -0.0510
      7 Cl1        -1.1425    4.1912   -0.3878 Cl        1 <0>        -0.0169
      8 N2         -0.0179    1.4653    0.0101 N.pl3     1 <0>        -0.4774
      9 C6          1.4117    1.7785    0.1439 C.3       1 <0>         0.0270
     10 C7          2.1548    1.3023   -1.1064 C.3       1 <0>         0.0044
     11 C8          0.5192   -0.4562   -1.4086 C.3       1 <0>         0.0019
     12 C9         -0.2239    0.0201   -0.1583 C.3       1 <0>         0.0300
     13 Cl2        -3.0237    3.4044    4.6391 Cl        1 <0>        -0.0165
     14 H1         -2.4955    4.6553    2.1037 H         1 <0>         0.1668
     15 H2         -1.6189    0.9865    4.1075 H         1 <0>         0.1810
     16 H3          1.5392    2.8554    0.2547 H         1 <0>         0.1254
     17 H4          1.8143    1.2722    1.0212 H         1 <0>         0.0747
     18 H5          3.2197    1.5075   -0.9969 H         1 <0>         0.1435
     19 H6          1.7707    1.8286   -1.9803 H         1 <0>         0.1426
     20 H7          0.3917   -1.5331   -1.5194 H         1 <0>         0.1428
     21 H8          0.1163    0.0498   -2.2860 H         1 <0>         0.1407
     22 H9          0.1602   -0.5062    0.7156 H         1 <0>         0.0839
     23 H10        -1.2888   -0.1851   -0.2678 H         1 <0>         0.1241
     24 N3          1.9560   -0.1497   -1.2750 N.4       1 <0>        -0.5189
     25 H11         2.3326   -0.6408   -0.4557 H         1 <0>         0.4325
     26 H12         2.4495   -0.4636   -2.1189 H         1 <0>         0.4409
@<TRIPOS>BOND
     1    1    6 ar
     2    1    2 ar
     3    1   14 1
     4    2    3 ar
     5    2   13 1
     6    3    4 ar
     7    3   15 1
     8    4    5 ar
     9    5    6 ar
    10    5    8 1
    11    6    7 1
    12    8   12 1
    13    8    9 1
    14    9   10 1
    15    9   16 1
    16    9   17 1
    17   10   18 1
    18   10   19 1
    19   10   24 1
    20   11   12 1
    21   11   20 1
    22   11   21 1
    23   11   24 1
    24   12   22 1
    25   12   23 1
    26   24   25 1
    27   24   26 1
@<TRIPOS>MOLECULE
ZINC29463846
   29    30     0     0     0
SMALL
USER_CHARGES
1-(3-bromo-2-pyridyl)-4-methyl-piperazine
@<TRIPOS>ATOM
      1 C1          0.8403    9.2222   -0.9655 C.3       1 <0>        -0.0448
      2 N1          0.7971    7.7539   -0.9725 N.4       1 <0>        -0.4033
      3 C2          1.4534    7.2020    0.2209 C.3       1 <0>         0.0018
      4 C3          1.4574    5.6738    0.1369 C.3       1 <0>         0.0298
      5 N2          0.0747    5.1882    0.0278 N.pl3     1 <0>        -0.4796
      6 C4         -0.5816    5.7400   -1.1656 C.3       1 <0>         0.0298
      7 C5         -0.5856    7.2682   -1.0816 C.3       1 <0>         0.0021
      8 C6          0.0338    3.7983    0.0212 C.ar      1 <0>         0.2951
      9 C7         -0.6368    3.1229    1.0373 C.ar      1 <0>        -0.1104
     10 C8         -0.6742    1.7400    1.0148 C.ar      1 <0>        -0.0412
     11 C9         -0.0282    1.0764   -0.0202 C.ar      1 <0>        -0.1496
     12 C10         0.6181    1.8099   -0.9945 C.ar      1 <0>         0.1270
     13 N3          0.6331    3.1289   -0.9509 N.ar      1 <0>        -0.5015
     14 Br1        -1.4913    4.0826    2.4247 Br        1 <0>        -0.0073
     15 H1          1.8846    9.5579   -0.8832 H         1 <0>         0.1253
     16 H2          0.2645    9.6019   -0.1086 H         1 <0>         0.1205
     17 H3          0.4042    9.6063   -1.8995 H         1 <0>         0.1253
     18 H4          2.4887    7.5700    0.2732 H         1 <0>         0.1404
     19 H5          0.9056    7.5193    1.1205 H         1 <0>         0.1376
     20 H6          2.0293    5.3567   -0.7476 H         1 <0>         0.0778
     21 H7          1.9227    5.2580    1.0428 H         1 <0>         0.1225
     22 H8         -0.0337    5.4227   -2.0651 H         1 <0>         0.0778
     23 H9         -1.6169    5.3719   -1.2180 H         1 <0>         0.1225
     24 H10        -1.1568    7.5863   -0.1970 H         1 <0>         0.1376
     25 H11        -1.0503    7.6849   -1.9874 H         1 <0>         0.1405
     26 H12        -1.1905    1.1889    1.7869 H         1 <0>         0.1554
     27 H13        -0.0353   -0.0027   -0.0647 H         1 <0>         0.1549
     28 H14         1.1178    1.2977   -1.8034 H         1 <0>         0.1711
     29 H15         1.3506    7.4049   -1.8567 H         1 <0>         0.4428
@<TRIPOS>BOND
     1    1    2 1
     2    1   15 1
     3    1   16 1
     4    1   17 1
     5    2    7 1
     6    2    3 1
     7    2   29 1
     8    3    4 1
     9    3   18 1
    10    3   19 1
    11    4    5 1
    12    4   20 1
    13    4   21 1
    14    5    6 1
    15    5    8 1
    16    6    7 1
    17    6   22 1
    18    6   23 1
    19    7   24 1
    20    7   25 1
    21    8   13 ar
    22    8    9 ar
    23    9   10 ar
    24    9   14 1
    25   10   11 ar
    26   10   26 1
    27   11   12 ar
    28   11   27 1
    29   12   13 ar
    30   12   28 1
@<TRIPOS>MOLECULE
ZINC29463846
   28    29     0     0     0
SMALL
USER_CHARGES
1-(3-bromo-2-pyridyl)-4-methyl-piperazine
@<TRIPOS>ATOM
      1 C1          0.8403    9.2222   -0.9655 C.3       1 <0>         0.0230
      2 N1          0.7971    7.7539   -0.9725 N.3       1 <0>        -0.5446
      3 C2          1.4534    7.2020    0.2209 C.3       1 <0>         0.0566
      4 C3          1.4574    5.6738    0.1369 C.3       1 <0>         0.0628
      5 N2          0.0747    5.1882    0.0278 N.pl3     1 <0>        -0.4840
      6 C4         -0.5816    5.7400   -1.1656 C.3       1 <0>         0.0629
      7 C5         -0.5856    7.2682   -1.0816 C.3       1 <0>         0.0569
      8 C6          0.0338    3.7983    0.0212 C.ar      1 <0>         0.3205
      9 C7         -0.6368    3.1229    1.0373 C.ar      1 <0>        -0.1185
     10 C8         -0.6742    1.7400    1.0148 C.ar      1 <0>        -0.0451
     11 C9         -0.0282    1.0764   -0.0202 C.ar      1 <0>        -0.1695
     12 C10         0.6181    1.8099   -0.9945 C.ar      1 <0>         0.1233
     13 N3          0.6331    3.1289   -0.9509 N.ar      1 <0>        -0.4993
     14 Br1        -1.4913    4.0826    2.4247 Br        1 <0>        -0.0169
     15 H1          1.8846    9.5579   -0.8832 H         1 <0>         0.0703
     16 H2          0.2645    9.6019   -0.1086 H         1 <0>         0.0278
     17 H3          0.4042    9.6063   -1.8995 H         1 <0>         0.0706
     18 H4          2.4887    7.5700    0.2732 H         1 <0>         0.0849
     19 H5          0.9056    7.5193    1.1205 H         1 <0>         0.0463
     20 H6          2.0293    5.3567   -0.7476 H         1 <0>         0.0613
     21 H7          1.9227    5.2580    1.0428 H         1 <0>         0.0796
     22 H8         -0.0337    5.4227   -2.0651 H         1 <0>         0.0613
     23 H9         -1.6169    5.3719   -1.2180 H         1 <0>         0.0796
     24 H10        -1.1568    7.5863   -0.1970 H         1 <0>         0.0464
     25 H11        -1.0503    7.6849   -1.9874 H         1 <0>         0.0850
     26 H12        -1.1905    1.1889    1.7869 H         1 <0>         0.1481
     27 H13        -0.0353   -0.0027   -0.0647 H         1 <0>         0.1468
     28 H14         1.1178    1.2977   -1.8034 H         1 <0>         0.1638
@<TRIPOS>BOND
     1    1    2 1
     2    1   15 1
     3    1   16 1
     4    1   17 1
     5    2    7 1
     6    2    3 1
     7    3    4 1
     8    3   18 1
     9    3   19 1
    10    4    5 1
    11    4   20 1
    12    4   21 1
    13    5    6 1
    14    5    8 1
    15    6    7 1
    16    6   22 1
    17    6   23 1
    18    7   24 1
    19    7   25 1
    20    8   13 ar
    21    8    9 ar
    22    9   10 ar
    23    9   14 1
    24   10   11 ar
    25   10   26 1
    26   11   12 ar
    27   11   27 1
    28   12   13 ar
    29   12   28 1
@<TRIPOS>MOLECULE
ZINC00000504
   41    44     0     0     0
SMALL
USER_CHARGES

@<TRIPOS>ATOM
      1 C1         -0.0178    1.4648    0.0101 C.3       1 <0>        -0.0457
      2 N1          0.0021   -0.0041    0.0020 N.4       1 <0>        -0.3851
      3 C2         -1.3782   -0.5248    0.0610 C.3       1 <0>        -0.0107
      4 C3         -1.3147   -2.0017   -0.3247 C.3       1 <0>         0.1097
      5 N2         -0.2536   -2.6823    0.4304 N.pl3     1 <0>        -0.6570
      6 C4         -0.1632   -4.0681    0.2474 C.ar      1 <0>         0.1515
      7 C5          0.1651   -4.5655   -1.0110 C.ar      1 <0>        -0.1283
      8 C6          0.3219   -5.9257   -1.1894 C.ar      1 <0>        -0.1053
      9 C7          0.1595   -6.7897   -0.1216 C.ar      1 <0>        -0.1122
     10 C8         -0.1903   -6.2968    1.1226 C.ar      1 <0>        -0.0978
     11 C9         -0.3794   -4.9379    1.2936 C.ar      1 <0>        -0.0863
     12 C10        -0.9055   -4.4020    2.5876 C.3       1 <0>        -0.0401
     13 C11         0.0255   -3.4607    3.2849 C.ar      1 <0>        -0.0434
     14 C12         0.2033   -3.7275    4.6483 C.ar      1 <0>        -0.1164
     15 C13         1.0009   -2.9352    5.4386 C.ar      1 <0>        -0.1037
     16 C14         1.6407   -1.8450    4.8776 C.ar      1 <0>        -0.1092
     17 C15         1.4792   -1.5873    3.5373 C.ar      1 <0>        -0.1345
     18 C16         0.6836   -2.4040    2.7249 C.ar      1 <0>        -0.1120
     19 C17         0.6957   -2.0166    1.2712 C.3       1 <0>         0.2145
     20 H1          1.6762   -2.3177    0.9022 H         1 <0>         0.0814
     21 C18         0.7079   -0.4980    1.1840 C.3       1 <0>        -0.0096
     22 H2          1.0047    1.8421    0.0024 H         1 <0>         0.1256
     23 H3         -0.5450    1.8259   -0.8730 H         1 <0>         0.1278
     24 H4         -0.5280    1.8163    0.9069 H         1 <0>         0.1233
     25 H5         -1.7720   -0.4210    1.0720 H         1 <0>         0.1359
     26 H6         -2.0104    0.0166   -0.6429 H         1 <0>         0.1459
     27 H7         -2.2727   -2.4732   -0.1054 H         1 <0>         0.1007
     28 H8         -1.1096   -2.0872   -1.3918 H         1 <0>         0.0828
     29 H9          0.2970   -3.8905   -1.8436 H         1 <0>         0.1222
     30 H10         0.5722   -6.3158   -2.1649 H         1 <0>         0.1292
     31 H11         0.3058   -7.8509   -0.2596 H         1 <0>         0.1304
     32 H12        -0.3156   -6.9709    1.9570 H         1 <0>         0.1304
     33 H13        -1.8427   -3.8810    2.3915 H         1 <0>         0.0851
     34 H14        -1.1118   -5.2412    3.2519 H         1 <0>         0.0847
     35 H15        -0.2988   -4.5760    5.0892 H         1 <0>         0.1275
     36 H16         1.1270   -3.1618    6.4870 H         1 <0>         0.1317
     37 H17         2.2602   -1.2030    5.4861 H         1 <0>         0.1308
     38 H18         1.9776   -0.7345    3.1006 H         1 <0>         0.1191
     39 H19         1.7417   -0.1544    1.1475 H         1 <0>         0.1407
     40 H20         0.2329   -0.0891    2.0758 H         1 <0>         0.1370
     41 H21         0.4593   -0.3360   -0.8339 H         1 <0>         0.4294
@<TRIPOS>BOND
     1    1    2 1
     2    1   22 1
     3    1   23 1
     4    1   24 1
     5    2   21 1
     6    2    3 1
     7    2   41 1
     8    3    4 1
     9    3   25 1
    10    3   26 1
    11    4    5 1
    12    4   27 1
    13    4   28 1
    14    5   19 1
    15    5    6 1
    16    6   11 ar
    17    6    7 ar
    18    7    8 ar
    19    7   29 1
    20    8    9 ar
    21    8   30 1
    22    9   10 ar
    23    9   31 1
    24   10   11 ar
    25   10   32 1
    26   11   12 1
    27   12   13 1
    28   12   33 1
    29   12   34 1
    30   13   18 ar
    31   13   14 ar
    32   14   15 ar
    33   14   35 1
    34   15   16 ar
    35   15   36 1
    36   16   17 ar
    37   16   37 1
    38   17   18 ar
    39   17   38 1
    40   18   19 1
    41   19   20 1
    42   19   21 1
    43   21   39 1
    44   21   40 1
@<TRIPOS>MOLECULE
ZINC03870312
   44    45     0     0     0
SMALL
USER_CHARGES

@<TRIPOS>ATOM
      1 C1          2.0344   -2.4614   -1.6117 C.3       1 <0>        -0.1564
      2 C2          1.0053   -1.9689   -0.5924 C.3       1 <0>        -0.1483
      3 C3         -0.3778   -2.5081   -0.9628 C.3       1 <0>        -0.0221
      4 N1         -1.3660   -2.0352    0.0160 N.4       1 <0>        -0.3808
      5 C4         -1.4822   -0.5735   -0.0727 C.3       1 <0>        -0.0216
      6 C5         -2.3990   -0.0662    1.0422 C.3       1 <0>        -0.1495
      7 C6         -2.5852    1.4458    0.9011 C.3       1 <0>        -0.1554
      8 C7         -2.6701   -2.6483   -0.2695 C.3       1 <0>         0.0206
      9 H1         -3.4102   -2.2854    0.4437 H         1 <0>         0.1433
     10 C8         -2.5573   -4.1738   -0.1653 C.3       1 <0>        -0.1378
     11 C9         -3.9635   -4.7663   -0.2291 C.3       1 <0>        -0.0773
     12 C10        -4.7118   -4.2271   -1.4202 C.ar      1 <0>        -0.0686
     13 C11        -5.8362   -4.9235   -1.8466 C.ar      1 <0>        -0.1219
     14 C12        -6.5697   -4.4809   -2.9279 C.ar      1 <0>        -0.0880
     15 C13        -6.1863   -3.3333   -3.5952 C.ar      1 <0>        -0.1382
     16 C14        -5.0658   -2.6373   -3.1752 C.ar      1 <0>         0.1143
     17 C15        -4.3230   -3.0871   -2.0847 C.ar      1 <0>        -0.1167
     18 C16        -3.1061   -2.2922   -1.6893 C.3       1 <0>        -0.0851
     19 O1         -4.6876   -1.5082   -3.8302 O.3       1 <0>        -0.4961
     20 H2          3.0198   -2.0773   -1.3478 H         1 <0>         0.0776
     21 H3          2.0564   -3.5512   -1.6083 H         1 <0>         0.0671
     22 H4          1.7603   -2.1066   -2.6052 H         1 <0>         0.0669
     23 H5          1.2794   -2.3236    0.4012 H         1 <0>         0.0858
     24 H6          0.9833   -0.8791   -0.5958 H         1 <0>         0.0856
     25 H7         -0.6520   -2.1533   -1.9563 H         1 <0>         0.1318
     26 H8         -0.3558   -3.5978   -0.9594 H         1 <0>         0.1333
     27 H9         -0.4954   -0.1233    0.0354 H         1 <0>         0.1342
     28 H10        -1.9020   -0.3004   -1.0408 H         1 <0>         0.1308
     29 H11        -3.3680   -0.5600    0.9687 H         1 <0>         0.0835
     30 H12        -1.9507   -0.2883    2.0106 H         1 <0>         0.0869
     31 H13        -3.0336    1.6679   -0.0673 H         1 <0>         0.0659
     32 H14        -3.2384    1.8072    1.6954 H         1 <0>         0.0773
     33 H15        -1.6163    1.9396    0.9746 H         1 <0>         0.0677
     34 H16        -1.9603   -4.5552   -0.9937 H         1 <0>         0.0927
     35 H17        -2.0879   -4.4434    0.7807 H         1 <0>         0.0935
     36 H18        -3.8932   -5.8510   -0.3098 H         1 <0>         0.0995
     37 H19        -4.5039   -4.5084    0.6817 H         1 <0>         0.0910
     38 H20        -6.1386   -5.8204   -1.3266 H         1 <0>         0.1319
     39 H21        -7.4413   -5.0301   -3.2522 H         1 <0>         0.1360
     40 H22        -6.7582   -2.9810   -4.4410 H         1 <0>         0.1369
     41 H23        -3.3398   -1.2287   -1.7374 H         1 <0>         0.0954
     42 H24        -2.2928   -2.5125   -2.3808 H         1 <0>         0.0981
     43 H25        -5.0813   -0.6984   -3.4777 H         1 <0>         0.3928
     44 H26        -1.0692   -2.2933    0.9451 H         1 <0>         0.4233
@<TRIPOS>BOND
     1    1    2 1
     2    1   20 1
     3    1   21 1
     4    1   22 1
     5    2    3 1
     6    2   23 1
     7    2   24 1
     8    3    4 1
     9    3   25 1
    10    3   26 1
    11    4    5 1
    12    4    8 1
    13    4   44 1
    14    5    6 1
    15    5   27 1
    16    5   28 1
    17    6    7 1
    18    6   29 1
    19    6   30 1
    20    7   31 1
    21    7   32 1
    22    7   33 1
    23    8    9 1
    24    8   18 1
    25    8   10 1
    26   10   11 1
    27   10   34 1
    28   10   35 1
    29   11   12 1
    30   11   36 1
    31   11   37 1
    32   12   17 ar
    33   12   13 ar
    34   13   14 ar
    35   13   38 1
    36   14   15 ar
    37   14   39 1
    38   15   16 ar
    39   15   40 1
    40   16   17 ar
    41   16   19 1
    42   17   18 1
    43   18   41 1
    44   18   42 1
    45   19   43 1
@<TRIPOS>MOLECULE
ZINC03870313
   44    45     0     0     0
SMALL
USER_CHARGES

@<TRIPOS>ATOM
      1 C1          1.4413   -2.5874   -2.4342 C.3       1 <0>        -0.1558
      2 C2          0.7544   -2.1400   -1.1423 C.3       1 <0>        -0.1491
      3 C3         -0.7443   -2.4339   -1.2335 C.3       1 <0>        -0.0201
      4 N1         -1.4039   -2.0044    0.0068 N.4       1 <0>        -0.3818
      5 C4         -1.3254   -0.5420    0.1221 C.3       1 <0>        -0.0189
      6 C5         -1.8949   -0.1056    1.4734 C.3       1 <0>        -0.1495
      7 C6         -1.6913    1.4004    1.6503 C.3       1 <0>        -0.1554
      8 C7         -2.8130   -2.4186   -0.0191 C.3       1 <0>         0.0212
      9 H1         -3.3345   -1.9999    0.8417 H         1 <0>         0.1439
     10 C8         -3.4725   -1.9253   -1.3124 C.3       1 <0>        -0.1372
     11 C9         -4.9780   -2.1583   -1.2047 C.3       1 <0>        -0.0775
     12 C10        -5.2664   -3.5813   -0.8033 C.ar      1 <0>        -0.0684
     13 C11        -6.5491   -4.0680   -1.0239 C.ar      1 <0>        -0.1225
     14 C12        -6.8811   -5.3604   -0.6738 C.ar      1 <0>        -0.0878
     15 C13        -5.9313   -6.1820   -0.0976 C.ar      1 <0>        -0.1384
     16 C14        -4.6513   -5.7025    0.1215 C.ar      1 <0>         0.1150
     17 C15        -4.3156   -4.3974   -0.2354 C.ar      1 <0>        -0.1164
     18 C16        -2.9018   -3.9428    0.0171 C.3       1 <0>        -0.0892
     19 O1         -3.7160   -6.5091    0.6885 O.3       1 <0>        -0.4966
     20 H2          2.5091   -2.3780   -2.3693 H         1 <0>         0.0777
     21 H3          1.2888   -3.6574   -2.5750 H         1 <0>         0.0667
     22 H4          1.0155   -2.0454   -3.2786 H         1 <0>         0.0666
     23 H5          1.1802   -2.6819   -0.2979 H         1 <0>         0.0859
     24 H6          0.9069   -1.0699   -1.0015 H         1 <0>         0.0859
     25 H7         -1.1702   -1.8919   -2.0779 H         1 <0>         0.1316
     26 H8         -0.8968   -3.5039   -1.3743 H         1 <0>         0.1312
     27 H9         -0.2845   -0.2270    0.0477 H         1 <0>         0.1340
     28 H10        -1.9022   -0.0828   -0.6807 H         1 <0>         0.1313
     29 H11        -2.9599   -0.3350    1.5100 H         1 <0>         0.0855
     30 H12        -1.3808   -0.6382    2.2735 H         1 <0>         0.0852
     31 H13        -2.2054    1.9330    0.8503 H         1 <0>         0.0669
     32 H14        -2.0971    1.7113    2.6130 H         1 <0>         0.0774
     33 H15        -0.6264    1.6298    1.6137 H         1 <0>         0.0669
     34 H16        -3.2741   -0.8615   -1.4430 H         1 <0>         0.0923
     35 H17        -3.0749   -2.4804   -2.1620 H         1 <0>         0.0927
     36 H18        -5.3938   -1.4827   -0.4571 H         1 <0>         0.0903
     37 H19        -5.4430   -1.9557   -2.1695 H         1 <0>         0.0990
     38 H20        -7.2937   -3.4279   -1.4736 H         1 <0>         0.1316
     39 H21        -7.8809   -5.7290   -0.8494 H         1 <0>         0.1360
     40 H22        -6.1865   -7.1938    0.1811 H         1 <0>         0.1370
     41 H23        -2.2487   -4.3592   -0.7498 H         1 <0>         0.0928
     42 H24        -2.5786   -4.2985    0.9954 H         1 <0>         0.1031
     43 H25        -3.2026   -7.0244    0.0514 H         1 <0>         0.3942
     44 H26        -0.9429   -2.4293    0.7974 H         1 <0>         0.4229
@<TRIPOS>BOND
     1    1    2 1
     2    1   20 1
     3    1   21 1
     4    1   22 1
     5    2    3 1
     6    2   23 1
     7    2   24 1
     8    3    4 1
     9    3   25 1
    10    3   26 1
    11    4    5 1
    12    4    8 1
    13    4   44 1
    14    5    6 1
    15    5   27 1
    16    5   28 1
    17    6    7 1
    18    6   29 1
    19    6   30 1
    20    7   31 1
    21    7   32 1
    22    7   33 1
    23    8    9 1
    24    8   18 1
    25    8   10 1
    26   10   11 1
    27   10   34 1
    28   10   35 1
    29   11   12 1
    30   11   36 1
    31   11   37 1
    32   12   17 ar
    33   12   13 ar
    34   13   14 ar
    35   13   38 1
    36   14   15 ar
    37   14   39 1
    38   15   16 ar
    39   15   40 1
    40   16   17 ar
    41   16   19 1
    42   17   18 1
    43   18   41 1
    44   18   42 1
    45   19   43 1
@<TRIPOS>MOLECULE
ZINC00020251
   41    43     0     0     0
SMALL
USER_CHARGES

@<TRIPOS>ATOM
      1 C1          0.3679    1.4948   -0.0201 C.3       1 <0>        -0.1272
      2 C2          0.2853   -0.0099   -0.0200 C.ar      1 <0>        -0.0600
      3 C3          1.4442   -0.7644   -0.0110 C.ar      1 <0>        -0.1078
      4 C4          1.3722   -2.1435   -0.0113 C.ar      1 <0>        -0.0987
      5 C5          0.1337   -2.7728   -0.0201 C.ar      1 <0>         0.1050
      6 C6         -1.0285   -2.0117   -0.0286 C.ar      1 <0>        -0.1145
      7 C7         -0.9492   -0.6330   -0.0230 C.ar      1 <0>        -0.1116
      8 N1          0.0572   -4.1678   -0.0209 N.pl3     1 <0>        -0.5735
      9 C8          0.0846   -4.9036    1.2456 C.3       1 <0>         0.1390
     10 C9         -1.3227   -5.0783    1.7557 C.cat     1 <0>         0.4891
     11 N2         -1.9005   -4.2016    2.5430 N.pl3     1 <0>        -0.6245
     12 C10        -3.2631   -4.6580    2.8611 C.3       1 <0>         0.0566
     13 C11        -3.3748   -5.9931    2.0960 C.3       1 <0>         0.0550
     14 N3         -2.0626   -6.1154    1.4407 N.pl3     1 <0>        -0.6236
     15 C12        -0.0455   -4.8611   -1.2295 C.ar      1 <0>         0.2053
     16 C13        -0.0552   -4.1650   -2.4324 C.ar      1 <0>        -0.1712
     17 C14        -0.1568   -4.8506   -3.6270 C.ar      1 <0>        -0.0509
     18 C15        -0.2489   -6.2298   -3.6298 C.ar      1 <0>        -0.1769
     19 C16        -0.2402   -6.9302   -2.4318 C.ar      1 <0>         0.1550
     20 C17        -0.1322   -6.2465   -1.2308 C.ar      1 <0>        -0.2288
     21 O1         -0.3318   -8.2861   -2.4363 O.3       1 <0>        -0.4993
     22 H1          0.3851    1.8579    1.0075 H         1 <0>         0.0791
     23 H2          1.2778    1.8087   -0.5317 H         1 <0>         0.0747
     24 H3         -0.4995    1.9063   -0.5363 H         1 <0>         0.0732
     25 H4          2.4067   -0.2745   -0.0042 H         1 <0>         0.1347
     26 H5          2.2777   -2.7321   -0.0051 H         1 <0>         0.1314
     27 H6         -1.9930   -2.4978   -0.0354 H         1 <0>         0.1179
     28 H7         -1.8524   -0.0408   -0.0255 H         1 <0>         0.1314
     29 H8          0.5378   -5.8823    1.0875 H         1 <0>         0.1364
     30 H9          0.6696   -4.3462    1.9771 H         1 <0>         0.1371
     31 H10        -3.3747   -4.8185    3.9334 H         1 <0>         0.1285
     32 H11        -4.0026   -3.9438    2.4987 H         1 <0>         0.1258
     33 H12        -3.5420   -6.8196    2.7867 H         1 <0>         0.1291
     34 H13        -4.1699   -5.9450    1.3520 H         1 <0>         0.1262
     35 H14        -1.7873   -6.8481    0.8678 H         1 <0>         0.4584
     36 H15         0.0163   -3.0874   -2.4330 H         1 <0>         0.1301
     37 H16        -0.1645   -4.3081   -4.5608 H         1 <0>         0.1363
     38 H17        -0.3282   -6.7630   -4.5656 H         1 <0>         0.1352
     39 H18        -0.1201   -6.7903   -0.2978 H         1 <0>         0.1181
     40 H19         0.5221   -8.7379   -2.4787 H         1 <0>         0.4007
     41 H20        -1.4934   -3.3821    2.8650 H         1 <0>         0.4591
@<TRIPOS>BOND
     1    1    2 1
     2    1   22 1
     3    1   23 1
     4    1   24 1
     5    2    7 ar
     6    2    3 ar
     7    3    4 ar
     8    3   25 1
     9    4    5 ar
    10    4   26 1
    11    5    6 ar
    12    5    8 1
    13    6    7 ar
    14    6   27 1
    15    7   28 1
    16    8    9 1
    17    8   15 1
    18    9   10 1
    19    9   29 1
    20    9   30 1
    21   10   14 1
    22   10   11 2
    23   11   12 1
    24   11   41 1
    25   12   13 1
    26   12   31 1
    27   12   32 1
    28   13   14 1
    29   13   33 1
    30   13   34 1
    31   14   35 1
    32   15   20 ar
    33   15   16 ar
    34   16   17 ar
    35   16   36 1
    36   17   18 ar
    37   17   37 1
    38   18   19 ar
    39   18   38 1
    40   19   20 ar
    41   19   21 1
    42   20   39 1
    43   21   40 1
@<TRIPOS>MOLECULE
ZINC00057435
   44    45     0     0     0
SMALL
USER_CHARGES

@<TRIPOS>ATOM
      1 C1         -0.0184    1.5028    0.0103 C.3       1 <0>        -0.1187
      2 C2          0.0021   -0.0041    0.0020 C.ar      1 <0>        -0.0706
      3 C3          0.0057   -0.6877   -1.2000 C.ar      1 <0>        -0.1068
      4 C4          0.0240   -2.0688   -1.2103 C.ar      1 <0>        -0.0587
      5 C5          0.0391   -2.7702   -0.0132 C.ar      1 <0>         0.1144
      6 C6          0.0359   -2.0821    1.1912 C.ar      1 <0>        -0.0903
      7 C7          0.0229   -0.7005    1.1961 C.ar      1 <0>        -0.1162
      8 C8          0.0251    0.0478    2.5041 C.3       1 <0>        -0.0673
      9 C9         -1.3948    0.2779    2.9536 C.cat     1 <0>         0.5209
     10 N1         -2.0787    1.3438    2.6094 N.pl3     1 <0>        -0.6326
     11 C10        -3.4229    1.2717    3.2045 C.3       1 <0>         0.0558
     12 C11        -3.3949   -0.0637    3.9766 C.3       1 <0>         0.0553
     13 N2         -2.0402   -0.5755    3.7135 N.pl3     1 <0>        -0.6321
     14 C12         0.0523   -2.8407    2.4932 C.3       1 <0>        -0.1164
     15 O1          0.0567   -4.1291   -0.0207 O.3       1 <0>        -0.4857
     16 C13         0.0269   -2.8132   -2.5206 C.3       1 <0>        -0.0279
     17 C14         0.0075   -1.8111   -3.6766 C.3       1 <0>        -0.1499
     18 C15         1.2872   -3.6756   -2.6144 C.3       1 <0>        -0.1449
     19 C16        -1.2110   -3.7088   -2.6012 C.3       1 <0>        -0.1436
     20 H1          1.0042    1.8801    0.0026 H         1 <0>         0.0894
     21 H2         -0.5455    1.8639   -0.8728 H         1 <0>         0.0828
     22 H3         -0.5286    1.8543    0.9071 H         1 <0>         0.0429
     23 H4         -0.0061   -0.1413   -2.1315 H         1 <0>         0.1413
     24 H5          0.5541   -0.5371    3.2565 H         1 <0>         0.1334
     25 H6          0.5247    1.0077    2.3728 H         1 <0>         0.1345
     26 H7         -3.5875    2.1066    3.8856 H         1 <0>         0.1281
     27 H8         -4.1871    1.2511    2.4276 H         1 <0>         0.1265
     28 H9         -3.5456    0.1050    5.0429 H         1 <0>         0.1284
     29 H10        -4.1452   -0.7506    3.5848 H         1 <0>         0.1263
     30 H11        -1.6805   -1.4110    4.0501 H         1 <0>         0.4565
     31 H12         1.0838   -3.0100    2.8021 H         1 <0>         0.0866
     32 H13        -0.4655   -2.2615    3.2577 H         1 <0>         0.0429
     33 H14        -0.4495   -3.7993    2.3615 H         1 <0>         0.0887
     34 H15         0.9450   -4.5109   -0.0273 H         1 <0>         0.3935
     35 H16         0.8894   -1.1731   -3.6192 H         1 <0>         0.0601
     36 H17         0.0096   -2.3495   -4.6243 H         1 <0>         0.0665
     37 H18        -0.8904   -1.1967   -3.6098 H         1 <0>         0.0588
     38 H19         1.3010   -4.3896   -1.7909 H         1 <0>         0.0592
     39 H20         1.2893   -4.2141   -3.5621 H         1 <0>         0.0679
     40 H21         2.1691   -3.0376   -2.5570 H         1 <0>         0.0569
     41 H22        -2.1089   -3.0944   -2.5344 H         1 <0>         0.0509
     42 H23        -1.2089   -4.2472   -3.5489 H         1 <0>         0.0620
     43 H24        -1.1972   -4.4227   -1.7776 H         1 <0>         0.0749
     44 H25        -1.7499    2.0657    2.0512 H         1 <0>         0.4564
@<TRIPOS>BOND
     1    1    2 1
     2    1   20 1
     3    1   21 1
     4    1   22 1
     5    2    7 ar
     6    2    3 ar
     7    3    4 ar
     8    3   23 1
     9    4    5 ar
    10    4   16 1
    11    5    6 ar
    12    5   15 1
    13    6    7 ar
    14    6   14 1
    15    7    8 1
    16    8    9 1
    17    8   24 1
    18    8   25 1
    19    9   13 1
    20    9   10 2
    21   10   11 1
    22   10   44 1
    23   11   12 1
    24   11   26 1
    25   11   27 1
    26   12   13 1
    27   12   28 1
    28   12   29 1
    29   13   30 1
    30   14   31 1
    31   14   32 1
    32   14   33 1
    33   15   34 1
    34   16   17 1
    35   16   18 1
    36   16   19 1
    37   17   35 1
    38   17   36 1
    39   17   37 1
    40   18   38 1
    41   18   39 1
    42   18   40 1
    43   19   41 1
    44   19   42 1
    45   19   43 1
@<TRIPOS>MOLECULE
ZINC01999529
   52    55     0     0     0
SMALL
USER_CHARGES

@<TRIPOS>ATOM
      1 C1         -0.0166    1.3718    0.0096 C.ar      1 <0>        -0.0777
      2 C2          1.1605    2.0994    0.0023 C.ar      1 <0>        -0.0864
      3 C3          2.3767    1.4321   -0.0129 C.ar      1 <0>         0.0073
      4 C4          2.3992    0.0662   -0.0204 C.ar      1 <0>        -0.6175
      5 C5          1.2246   -0.6975   -0.0133 C.ar      1 <0>        -0.1240
      6 C6          0.0021   -0.0041    0.0020 C.ar      1 <0>        -0.0321
      7 C7          1.4909   -2.1423   -0.0240 C.2       1 <0>         0.5408
      8 O1          0.5787   -2.9456   -0.0200 O.2       1 <0>        -0.4623
      9 N1          2.7689   -2.5506   -0.0387 N.am      1 <0>        -0.9253
     10 S1          3.6863   -1.1515   -0.0397 S.o2      1 <0>         2.6548
     11 O2          4.3669   -1.0804    1.2056 O.2       1 <0>        -0.9145
     12 O3          4.3426   -1.0663   -1.2972 O.2       1 <0>        -0.9196
     13 C8          3.2582   -3.9315   -0.0505 C.3       1 <0>         0.1395
     14 C9          3.2964   -4.4467   -1.4906 C.3       1 <0>        -0.1474
     15 C10         3.8074   -5.8888   -1.5029 C.3       1 <0>        -0.1473
     16 C11         3.8456   -6.4041   -2.9430 C.3       1 <0>        -0.0102
     17 N2          4.3362   -7.7887   -2.9548 N.4       1 <0>        -0.3846
     18 C12         5.7269   -7.8173   -2.4842 C.3       1 <0>        -0.0271
     19 C13         6.2023   -9.2707   -2.3871 C.3       1 <0>         0.1084
     20 N3          5.9887   -9.9193   -3.6901 N.pl3     1 <0>        -0.6062
     21 C14         4.6622   -9.8000   -4.3147 C.3       1 <0>         0.1079
     22 C15         4.2595   -8.3216   -4.3209 C.3       1 <0>        -0.0203
     23 C16         7.0071  -10.6215   -4.3109 C.ar      1 <0>         0.5561
     24 N4          8.1872  -10.7115   -3.7152 N.ar      1 <0>        -0.5663
     25 C17         9.1814  -11.3755   -4.2811 C.ar      1 <0>         0.1960
     26 C18         8.9767  -11.9805   -5.5112 C.ar      1 <0>        -0.2677
     27 C19         7.7301  -11.8667   -6.1064 C.ar      1 <0>         0.1958
     28 N5          6.7772  -11.1924   -5.4842 N.ar      1 <0>        -0.5665
     29 H1         -0.9633    1.8912    0.0260 H         1 <0>         0.1509
     30 H2          1.1326    3.1791    0.0079 H         1 <0>         0.1535
     31 H3          3.3014    1.9899   -0.0191 H         1 <0>         0.1494
     32 H4         -0.9274   -0.5540    0.0083 H         1 <0>         0.1485
     33 H5          4.2615   -3.9650    0.3742 H         1 <0>         0.1015
     34 H6          2.5917   -4.5582    0.5421 H         1 <0>         0.1059
     35 H7          2.2931   -4.4131   -1.9152 H         1 <0>         0.0892
     36 H8          3.9629   -3.8200   -2.0832 H         1 <0>         0.0898
     37 H9          4.8107   -5.9224   -1.0783 H         1 <0>         0.0933
     38 H10         3.1409   -6.5155   -0.9103 H         1 <0>         0.0955
     39 H11         2.8423   -6.3705   -3.3677 H         1 <0>         0.1353
     40 H12         4.5121   -5.7774   -3.5356 H         1 <0>         0.1327
     41 H13         6.3594   -7.2742   -3.1864 H         1 <0>         0.1335
     42 H14         5.7879   -7.3485   -1.5021 H         1 <0>         0.1458
     43 H15         7.2628   -9.2931   -2.1362 H         1 <0>         0.1405
     44 H16         5.6303   -9.7927   -1.6200 H         1 <0>         0.0917
     45 H17         4.7045  -10.1723   -5.3383 H         1 <0>         0.1405
     46 H18         3.9347  -10.3754   -3.7423 H         1 <0>         0.0917
     47 H19         3.2393   -8.2244   -4.6922 H         1 <0>         0.1446
     48 H20         4.9364   -7.7632   -4.9675 H         1 <0>         0.1326
     49 H21        10.1412  -11.4451   -3.7908 H         1 <0>         0.1760
     50 H22         9.7713  -12.5285   -5.9956 H         1 <0>         0.1542
     51 H23         7.5380  -12.3261   -7.0647 H         1 <0>         0.1759
     52 H24         3.7650   -8.3518   -2.3428 H         1 <0>         0.4236
@<TRIPOS>BOND
     1    1    6 ar
     2    1    2 ar
     3    1   29 1
     4    2    3 ar
     5    2   30 1
     6    3    4 ar
     7    3   31 1
     8    4   10 1
     9    4    5 ar
    10    5    6 ar
    11    5    7 1
    12    6   32 1
    13    7    8 2
    14    7    9 am
    15    9   10 1
    16    9   13 1
    17   10   11 2
    18   10   12 2
    19   13   14 1
    20   13   33 1
    21   13   34 1
    22   14   15 1
    23   14   35 1
    24   14   36 1
    25   15   16 1
    26   15   37 1
    27   15   38 1
    28   16   17 1
    29   16   39 1
    30   16   40 1
    31   17   22 1
    32   17   18 1
    33   17   52 1
    34   18   19 1
    35   18   41 1
    36   18   42 1
    37   19   20 1
    38   19   43 1
    39   19   44 1
    40   20   21 1
    41   20   23 1
    42   21   22 1
    43   21   45 1
    44   21   46 1
    45   22   47 1
    46   22   48 1
    47   23   28 ar
    48   23   24 ar
    49   24   25 ar
    50   25   26 ar
    51   25   49 1
    52   26   27 ar
    53   26   50 1
    54   27   28 ar
    55   27   51 1
@<TRIPOS>MOLECULE
ZINC01999529
   51    54     0     0     0
SMALL
USER_CHARGES

@<TRIPOS>ATOM
      1 C1         -0.0166    1.3718    0.0096 C.ar      1 <0>        -0.0797
      2 C2          1.1605    2.0994    0.0023 C.ar      1 <0>        -0.0925
      3 C3          2.3767    1.4321   -0.0129 C.ar      1 <0>         0.0055
      4 C4          2.3992    0.0662   -0.0204 C.ar      1 <0>        -0.6181
      5 C5          1.2246   -0.6975   -0.0133 C.ar      1 <0>        -0.1153
      6 C6          0.0021   -0.0041    0.0020 C.ar      1 <0>        -0.0365
      7 C7          1.4909   -2.1423   -0.0240 C.2       1 <0>         0.5361
      8 O1          0.5787   -2.9456   -0.0200 O.2       1 <0>        -0.4603
      9 N1          2.7689   -2.5506   -0.0387 N.am      1 <0>        -0.9199
     10 S1          3.6863   -1.1515   -0.0397 S.o2      1 <0>         2.6544
     11 O2          4.3669   -1.0804    1.2056 O.2       1 <0>        -0.9194
     12 O3          4.3426   -1.0663   -1.2972 O.2       1 <0>        -0.9182
     13 C8          3.2582   -3.9315   -0.0505 C.3       1 <0>         0.1391
     14 C9          3.2964   -4.4467   -1.4906 C.3       1 <0>        -0.1462
     15 C10         3.8074   -5.8888   -1.5029 C.3       1 <0>        -0.1140
     16 C11         3.8456   -6.4041   -2.9430 C.3       1 <0>         0.0557
     17 N2          4.3362   -7.7887   -2.9548 N.3       1 <0>        -0.5381
     18 C12         5.7363   -7.8548   -2.5151 C.3       1 <0>         0.0366
     19 C13         6.1531   -9.3220   -2.3677 C.3       1 <0>         0.1319
     20 N3          5.8642  -10.0190   -3.6302 N.pl3     1 <0>        -0.5851
     21 C14         4.5174   -9.8860   -4.2060 C.3       1 <0>         0.1323
     22 C15         4.1649   -8.3966   -4.2811 C.3       1 <0>         0.0413
     23 C16         6.8339  -10.7801   -4.2595 C.ar      1 <0>         0.5658
     24 N4          8.0345  -10.8821   -3.7086 N.ar      1 <0>        -0.5729
     25 C17         8.9835  -11.6019   -4.2839 C.ar      1 <0>         0.1940
     26 C18         8.7091  -12.2531   -5.4763 C.ar      1 <0>        -0.2967
     27 C19         7.4428  -12.1251   -6.0250 C.ar      1 <0>         0.1939
     28 N5          6.5378  -11.3939   -5.3958 N.ar      1 <0>        -0.5731
     29 H1         -0.9633    1.8912    0.0260 H         1 <0>         0.1479
     30 H2          1.1326    3.1791    0.0079 H         1 <0>         0.1502
     31 H3          3.3014    1.9899   -0.0191 H         1 <0>         0.1474
     32 H4         -0.9274   -0.5540    0.0083 H         1 <0>         0.1478
     33 H5          4.2615   -3.9650    0.3742 H         1 <0>         0.0985
     34 H6          2.5917   -4.5582    0.5421 H         1 <0>         0.1041
     35 H7          2.2931   -4.4131   -1.9152 H         1 <0>         0.0780
     36 H8          3.9629   -3.8200   -2.0832 H         1 <0>         0.0764
     37 H9          4.8107   -5.9224   -1.0783 H         1 <0>         0.0686
     38 H10         3.1409   -6.5155   -0.9103 H         1 <0>         0.0799
     39 H11         2.8423   -6.3705   -3.3677 H         1 <0>         0.0786
     40 H12         4.5121   -5.7774   -3.5356 H         1 <0>         0.0367
     41 H13         6.3730   -7.3683   -3.2541 H         1 <0>         0.0381
     42 H14         5.8404   -7.3489   -1.5553 H         1 <0>         0.0926
     43 H15         7.2203   -9.3798   -2.1535 H         1 <0>         0.1013
     44 H16         5.5887   -9.7834   -1.5573 H         1 <0>         0.0736
     45 H17         4.5031  -10.3166   -5.2073 H         1 <0>         0.1015
     46 H18         3.7957  -10.4015   -3.5724 H         1 <0>         0.0737
     47 H19         3.1294   -8.2836   -4.6020 H         1 <0>         0.0896
     48 H20         4.8235   -7.9025   -4.9955 H         1 <0>         0.0380
     49 H21         9.9604  -11.6810   -3.8302 H         1 <0>         0.1667
     50 H22         9.4658  -12.8471   -5.9673 H         1 <0>         0.1437
     51 H23         7.1969  -12.6195   -6.9532 H         1 <0>         0.1666
@<TRIPOS>BOND
     1    1    6 ar
     2    1    2 ar
     3    1   29 1
     4    2    3 ar
     5    2   30 1
     6    3    4 ar
     7    3   31 1
     8    4   10 1
     9    4    5 ar
    10    5    6 ar
    11    5    7 1
    12    6   32 1
    13    7    8 2
    14    7    9 am
    15    9   10 1
    16    9   13 1
    17   10   11 2
    18   10   12 2
    19   13   14 1
    20   13   33 1
    21   13   34 1
    22   14   15 1
    23   14   35 1
    24   14   36 1
    25   15   16 1
    26   15   37 1
    27   15   38 1
    28   16   17 1
    29   16   39 1
    30   16   40 1
    31   17   22 1
    32   17   18 1
    33   18   19 1
    34   18   41 1
    35   18   42 1
    36   19   20 1
    37   19   43 1
    38   19   44 1
    39   20   21 1
    40   20   23 1
    41   21   22 1
    42   21   45 1
    43   21   46 1
    44   22   47 1
    45   22   48 1
    46   23   28 ar
    47   23   24 ar
    48   24   25 ar
    49   25   26 ar
    50   25   49 1
    51   26   27 ar
    52   26   50 1
    53   27   28 ar
    54   27   51 1
@<TRIPOS>MOLECULE
ZINC00015872
   27    28     0     0     0
SMALL
USER_CHARGES
1-(2-chlorophenyl)piperazine
@<TRIPOS>ATOM
      1 C1         -0.4707   -2.0938    1.0792 C.ar      1 <0>        -0.0882
      2 C2          0.0398   -2.7715   -0.0128 C.ar      1 <0>        -0.1085
      3 C3          0.5315   -2.0697   -1.0981 C.ar      1 <0>        -0.0865
      4 C4          0.5146   -0.6877   -1.0942 C.ar      1 <0>        -0.0407
      5 C5          0.0021   -0.0041    0.0020 C.ar      1 <0>         0.0906
      6 C6         -0.4859   -0.7128    1.0921 C.ar      1 <0>        -0.1515
      7 N1         -0.0169    1.3933    0.0097 N.pl3     1 <0>        -0.4851
      8 C7         -0.8149    1.9030    1.1335 C.3       1 <0>         0.0204
      9 C8         -0.8765    3.4305    1.0606 C.3       1 <0>         0.0019
     10 C9          1.2858    3.4658   -0.0265 C.3       1 <0>         0.0024
     11 C10         1.3474    1.9383    0.0464 C.3       1 <0>         0.0137
     12 Cl1         1.1330    0.1929   -2.4564 Cl        1 <0>        -0.0504
     13 H1         -0.8535   -2.6452    1.9253 H         1 <0>         0.1374
     14 H2          0.0548   -3.8514   -0.0179 H         1 <0>         0.1410
     15 H3          0.9295   -2.6020   -1.9493 H         1 <0>         0.1437
     16 H4         -0.8804   -0.1846    1.9476 H         1 <0>         0.1354
     17 H5         -1.8242    1.4952    1.0773 H         1 <0>         0.1296
     18 H6         -0.3527    1.6022    2.0737 H         1 <0>         0.0722
     19 H7         -1.4437    3.8125    1.9094 H         1 <0>         0.1422
     20 H8         -1.3633    3.7309    0.1327 H         1 <0>         0.1410
     21 H9          2.2951    3.8736    0.0297 H         1 <0>         0.1422
     22 H10         0.8239    3.7666   -0.9669 H         1 <0>         0.1413
     23 H11         1.8342    1.6379    0.9742 H         1 <0>         0.0698
     24 H12         1.9147    1.5560   -0.8022 H         1 <0>         0.1330
     25 N2          0.4911    3.9818    1.1042 N.4       1 <0>        -0.5187
     26 H13         0.9391    3.7076    1.9864 H         1 <0>         0.4312
     27 H14         0.4457    5.0059    1.0472 H         1 <0>         0.4404
@<TRIPOS>BOND
     1    1    6 ar
     2    1    2 ar
     3    1   13 1
     4    2    3 ar
     5    2   14 1
     6    3    4 ar
     7    3   15 1
     8    4    5 ar
     9    4   12 1
    10    5    6 ar
    11    5    7 1
    12    6   16 1
    13    7   11 1
    14    7    8 1
    15    8    9 1
    16    8   17 1
    17    8   18 1
    18    9   19 1
    19    9   20 1
    20    9   25 1
    21   10   11 1
    22   10   21 1
    23   10   22 1
    24   10   25 1
    25   11   23 1
    26   11   24 1
    27   25   26 1
    28   25   27 1
