@<TRIPOS>MOLECULE
ZINC06119090
   28    29     0     0     0
SMALL
USER_CHARGES

@<TRIPOS>ATOM
      1 C1         -0.0164    1.3560    0.0095 C.2       1 <0>        -0.2898
      2 C2          1.1961    2.0521    0.0017 C.2       1 <0>         0.2518
      3 N1          2.3335    1.3872   -0.0128 N.2       1 <0>        -0.5454
      4 C3          2.3453    0.0521   -0.0201 C.2       1 <0>         0.6283
      5 O1          3.4117   -0.5394   -0.0334 O.2       1 <0>        -0.5143
      6 N2          1.1970   -0.6505   -0.0124 N.am      1 <0>        -0.5122
      7 C4          0.0021   -0.0041    0.0020 C.2       1 <0>         0.1909
      8 C5          1.2359   -2.1150   -0.0207 C.3       1 <0>         0.2930
      9 H1          0.2304   -2.5212    0.0887 H         1 <0>         0.1228
     10 C6          1.8844   -2.6283   -1.3254 C.3       1 <0>         0.0812
     11 H2          2.5391   -1.8681   -1.7514 H         1 <0>         0.0934
     12 C7          2.7038   -3.8595   -0.8782 C.3       1 <0>         0.0521
     13 H3          3.7636   -3.7079   -1.0831 H         1 <0>         0.0885
     14 C8          2.4535   -3.9444    0.6438 C.3       1 <0>         0.0533
     15 H4          1.6355   -4.6327    0.8561 H         1 <0>         0.0955
     16 O2          2.0922   -2.6011    1.0359 O.3       1 <0>        -0.3347
     17 C9          3.7250   -4.3902    1.3687 C.3       1 <0>         0.0812
     18 O3          3.4420   -4.5746    2.7572 O.3       1 <0>        -0.5651
     19 O4          2.2324   -5.0393   -1.5324 O.3       1 <0>        -0.5433
     20 O5          0.8798   -3.0076   -2.2683 O.3       1 <0>        -0.5422
     21 H5         -0.9546    1.8908    0.0258 H         1 <0>         0.1641
     22 H6          1.2003    3.1321    0.0071 H         1 <0>         0.1783
     23 H7         -0.9219   -0.5633    0.0082 H         1 <0>         0.1771
     24 H8          4.0763   -5.3296    0.9416 H         1 <0>         0.0645
     25 H9          4.4955   -3.6279    1.2530 H         1 <0>         0.0640
     26 H10         4.2046   -4.8581    3.2798 H         1 <0>         0.3855
     27 H11         2.7119   -5.8427   -1.2882 H         1 <0>         0.3870
     28 H12         1.2316   -3.3378   -3.1063 H         1 <0>         0.3944
@<TRIPOS>BOND
     1    1    7 2
     2    1    2 1
     3    1   21 1
     4    2    3 2
     5    2   22 1
     6    3    4 1
     7    4    5 2
     8    4    6 am
     9    6    7 1
    10    6    8 1
    11    7   23 1
    12    8    9 1
    13    8   16 1
    14    8   10 1
    15   10   11 1
    16   10   12 1
    17   10   20 1
    18   12   13 1
    19   12   14 1
    20   12   19 1
    21   14   15 1
    22   14   16 1
    23   14   17 1
    24   17   18 1
    25   17   24 1
    26   17   25 1
    27   18   26 1
    28   19   27 1
    29   20   28 1
