@<TRIPOS>MOLECULE
ZINC03814316
   34    36     0     0     0
SMALL
USER_CHARGES

@<TRIPOS>ATOM
      1 C1         -0.0158    1.3119    0.0093 C.ar      1 <0>         0.3777
      2 N1          1.0888    2.0360    0.0026 N.ar      1 <0>        -0.5867
      3 C2          2.2875    1.4625   -0.0119 C.ar      1 <0>         0.5142
      4 C3          2.3582    0.0588   -0.0202 C.ar      1 <0>        -0.1132
      5 C4          1.1547   -0.6659   -0.0126 C.ar      1 <0>         0.3191
      6 N2          0.0021   -0.0041    0.0020 N.ar      1 <0>        -0.5569
      7 N3          1.5110   -1.9908   -0.0227 N.pl3     1 <0>        -0.4803
      8 C5          2.8729   -2.0476   -0.0358 C.2       1 <0>         0.2476
      9 N4          3.3680   -0.8441   -0.0343 N.2       1 <0>        -0.4470
     10 C6          0.5956   -3.1347   -0.0195 C.3       1 <0>         0.3301
     11 H1         -0.2832   -2.9148    0.5866 H         1 <0>         0.1307
     12 C7          0.1775   -3.4928   -1.4629 C.3       1 <0>         0.0349
     13 H2          0.9267   -3.1463   -2.1747 H         1 <0>         0.0914
     14 C8          0.1056   -5.0362   -1.4608 C.3       1 <0>         0.0523
     15 H3          0.8193   -5.4528   -2.1716 H         1 <0>         0.0963
     16 C9          0.4888   -5.4280   -0.0165 C.3       1 <0>         0.0543
     17 H4         -0.4066   -5.5617    0.5906 H         1 <0>         0.1209
     18 O1          1.2661   -4.3138    0.4763 O.3       1 <0>        -0.3669
     19 C10         1.3272   -6.7078   -0.0164 C.3       1 <0>         0.0055
     20 N5          1.5791   -7.1280    1.3685 N.4       1 <0>        -0.6361
     21 O2         -1.2191   -5.4762   -1.7672 O.3       1 <0>        -0.5394
     22 O3         -1.0998   -2.9297   -1.7685 O.3       1 <0>        -0.5224
     23 N6          3.4393    2.2295   -0.0193 N.pl3     1 <0>        -0.8114
     24 H5         -0.9693    1.8187    0.0257 H         1 <0>         0.2103
     25 H6          3.4551   -2.9572   -0.0459 H         1 <0>         0.2208
     26 H7          0.7880   -7.4954   -0.5427 H         1 <0>         0.1574
     27 H8          2.2767   -6.5201   -0.5176 H         1 <0>         0.1475
     28 H9          2.0783   -6.3989    1.8557 H         1 <0>         0.4420
     29 H10         0.7001   -7.3017    1.8325 H         1 <0>         0.4384
     30 H11        -1.5313   -5.2049   -2.6412 H         1 <0>         0.3990
     31 H12        -1.4113   -3.1237   -2.6632 H         1 <0>         0.3908
     32 H13         3.3774    3.1975   -0.0138 H         1 <0>         0.4153
     33 H14         4.3085    1.7992   -0.0299 H         1 <0>         0.4206
     34 H15         2.1320   -7.9720    1.3686 H         1 <0>         0.4433
@<TRIPOS>BOND
     1    1    6 ar
     2    1    2 ar
     3    1   24 1
     4    2    3 ar
     5    3    4 ar
     6    3   23 1
     7    4    9 1
     8    4    5 ar
     9    5    6 ar
    10    5    7 1
    11    7    8 1
    12    7   10 1
    13    8    9 2
    14    8   25 1
    15   10   11 1
    16   10   18 1
    17   10   12 1
    18   12   13 1
    19   12   14 1
    20   12   22 1
    21   14   15 1
    22   14   16 1
    23   14   21 1
    24   16   17 1
    25   16   18 1
    26   16   19 1
    27   19   20 1
    28   19   26 1
    29   19   27 1
    30   20   28 1
    31   20   29 1
    32   20   34 1
    33   21   30 1
    34   22   31 1
    35   23   32 1
    36   23   33 1
@<TRIPOS>MOLECULE
ZINC03814318
   33    34     0     0     0
SMALL
USER_CHARGES
2-(6-amino-5-nitro-pyrimidin-4-yl)amino-5-(hydroxymethyl)tetrahydrofuran-3,4-diol
@<TRIPOS>ATOM
      1 C1         -1.0356    5.8344   -3.8862 C.ar      1 <0>         0.4156
      2 N1         -2.0135    6.1248   -4.7200 N.ar      1 <0>        -0.5882
      3 C2         -3.2160    5.5691   -4.5833 C.ar      1 <0>         0.5222
      4 C3         -3.4290    4.6673   -3.5449 C.ar      1 <0>        -0.2744
      5 C4         -2.3716    4.3925   -2.6835 C.ar      1 <0>         0.5247
      6 N2         -1.1991    4.9903   -2.8881 N.ar      1 <0>        -0.5831
      7 N3         -2.5344    3.5052   -1.6308 N.pl3     1 <0>        -0.6889
      8 C5         -1.4121    3.2191   -0.7338 C.3       1 <0>         0.2758
      9 H1         -0.7179    4.0590   -0.7058 H         1 <0>         0.1284
     10 C6         -1.9233    2.8859    0.6910 C.3       1 <0>         0.0348
     11 H2         -2.8465    2.3080    0.6477 H         1 <0>         0.0861
     12 C7         -0.7603    2.0329    1.2624 C.3       1 <0>         0.0922
     13 H3         -1.1494    1.1950    1.8409 H         1 <0>         0.0897
     14 C8         -0.0187    1.5258    0.0104 C.3       1 <0>         0.0879
     15 H4          1.0013    1.9102    0.0028 H         1 <0>         0.1012
     16 O1         -0.7326    2.0112   -1.1388 O.3       1 <0>        -0.3611
     17 C9          0.0021   -0.0041    0.0020 C.3       1 <0>         0.0802
     18 O2          0.7842   -0.4638   -1.1021 O.3       1 <0>        -0.5621
     19 O3          0.1058    2.8373    2.0653 O.3       1 <0>        -0.5404
     20 O4         -2.1058    4.0771    1.4588 O.3       1 <0>        -0.5400
     21 N4         -4.7477    4.0212   -3.3588 N.pl3     1 <0>         0.0291
     22 O5         -5.5919    4.5507   -2.6584 O.2       1 <0>        -0.1384
     23 O6         -4.9887    2.9600   -3.9060 O.3       1 <0>        -0.1351
     24 N5         -4.2391    5.8805   -5.4654 N.pl3     1 <0>        -0.8182
     25 H5         -0.0721    6.3023   -4.0247 H         1 <0>         0.2198
     26 H6         -3.3914    3.0738   -1.4883 H         1 <0>         0.4127
     27 H7          0.4388   -0.3666    0.9326 H         1 <0>         0.0677
     28 H8         -1.0164   -0.3807   -0.0924 H         1 <0>         0.0557
     29 H9          0.8412   -1.4267   -1.1698 H         1 <0>         0.3849
     30 H10        -0.3097    3.1832    2.8670 H         1 <0>         0.3937
     31 H11        -2.7601    4.6863    1.0902 H         1 <0>         0.3896
     32 H12        -4.0818    6.5073   -6.1888 H         1 <0>         0.4234
     33 H13        -5.1123    5.4717   -5.3592 H         1 <0>         0.4146
@<TRIPOS>BOND
     1    1    6 ar
     2    1    2 ar
     3    1   25 1
     4    2    3 ar
     5    3    4 ar
     6    3   24 1
     7    4    5 ar
     8    4   21 1
     9    5    6 ar
    10    5    7 1
    11    7    8 1
    12    7   26 1
    13    8    9 1
    14    8   16 1
    15    8   10 1
    16   10   11 1
    17   10   12 1
    18   10   20 1
    19   12   13 1
    20   12   14 1
    21   12   19 1
    22   14   15 1
    23   14   16 1
    24   14   17 1
    25   17   18 1
    26   17   27 1
    27   17   28 1
    28   18   29 1
    29   19   30 1
    30   20   31 1
    31   21   22 2
    32   21   23 1
    33   24   32 1
    34   24   33 1
@<TRIPOS>MOLECULE
ZINC04243470
   26    28     0     0     0
SMALL
USER_CHARGES
7-phenylpteridin-4-amine
@<TRIPOS>ATOM
      1 C1          2.3964    0.0331   -0.0206 C.ar      1 <0>        -0.0935
      2 C2          1.2079   -0.6749   -0.0131 C.ar      1 <0>        -0.1264
      3 C3          0.0021   -0.0041    0.0020 C.ar      1 <0>        -0.0648
      4 C4         -0.0168    1.3901    0.0097 C.ar      1 <0>        -0.0701
      5 C5          1.1842    2.0982    0.0020 C.ar      1 <0>        -0.0869
      6 C6          2.3839    1.4164   -0.0126 C.ar      1 <0>        -0.1247
      7 C7         -1.3088    2.1166    0.0198 C.ar      1 <0>         0.2071
      8 C8         -1.3187    3.5227    0.0333 C.ar      1 <0>         0.0558
      9 N1         -2.4547    4.1814    0.0373 N.ar      1 <0>        -0.3858
     10 C9         -3.6066    3.5116    0.0392 C.ar      1 <0>        -0.0785
     11 C10        -4.8590    4.1779    0.0487 C.ar      1 <0>         0.5116
     12 N2         -5.9617    3.4416    0.0495 N.ar      1 <0>        -0.5962
     13 C11        -5.9093    2.1197    0.0416 C.ar      1 <0>         0.3843
     14 N3         -4.7809    1.4503    0.0327 N.ar      1 <0>        -0.5427
     15 C12        -3.6051    2.0950    0.0310 C.ar      1 <0>         0.3408
     16 N4         -2.4449    1.4368    0.0215 N.ar      1 <0>        -0.4294
     17 N5         -4.9277    5.5543    0.0574 N.pl3     1 <0>        -0.7958
     18 H1          3.3377   -0.4963   -0.0325 H         1 <0>         0.1284
     19 H2          1.2238   -1.7548   -0.0194 H         1 <0>         0.1306
     20 H3         -0.9251   -0.5578    0.0083 H         1 <0>         0.1390
     21 H4          1.1757    3.1781    0.0075 H         1 <0>         0.1312
     22 H5          3.3149    1.9638   -0.0182 H         1 <0>         0.1315
     23 H6         -0.3848    4.0651    0.0359 H         1 <0>         0.1838
     24 H7         -6.8370    1.5667    0.0427 H         1 <0>         0.2101
     25 H8         -4.1129    6.0806    0.0570 H         1 <0>         0.4241
     26 H9         -5.7908    5.9968    0.0639 H         1 <0>         0.4166
@<TRIPOS>BOND
     1    1    6 ar
     2    1    2 ar
     3    1   18 1
     4    2    3 ar
     5    2   19 1
     6    3    4 ar
     7    3   20 1
     8    4    5 ar
     9    4    7 1
    10    5    6 ar
    11    5   21 1
    12    6   22 1
    13    7   16 ar
    14    7    8 ar
    15    8    9 ar
    16    8   23 1
    17    9   10 ar
    18   10   15 ar
    19   10   11 ar
    20   11   12 ar
    21   11   17 1
    22   12   13 ar
    23   13   14 ar
    24   13   24 1
    25   14   15 ar
    26   15   16 ar
    27   17   25 1
    28   17   26 1
@<TRIPOS>MOLECULE
ZINC21288919
   49    53     0     0     0
SMALL
USER_CHARGES

@<TRIPOS>ATOM
      1 C1          0.6565    0.2141    0.3667 C.ar      1 <0>        -0.1248
      2 C2          1.8216    0.9537    0.3793 C.ar      1 <0>        -0.0530
      3 C3          2.8888    0.5830   -0.4382 C.ar      1 <0>        -0.0775
      4 C4          2.7718   -0.5345   -1.2645 C.ar      1 <0>        -0.0663
      5 C5          1.6014   -1.2666   -1.2686 C.ar      1 <0>        -0.0979
      6 C6          0.5455   -0.8931   -0.4546 C.ar      1 <0>        -0.0710
      7 Br1         1.4400   -2.7822   -2.3879 Br        1 <0>        -0.0375
      8 C7          4.1418    1.3733   -0.4294 C.ar      1 <0>         0.0652
      9 C8          4.6201    1.9726   -1.5875 C.ar      1 <0>        -0.1782
     10 C9          5.8068    2.7118   -1.5401 C.ar      1 <0>         0.2750
     11 N1          6.4903    2.8567   -0.4163 N.ar      1 <0>        -0.4778
     12 C10         6.0816    2.3056    0.7252 C.ar      1 <0>         0.3808
     13 C11         4.8866    1.5471    0.7588 C.ar      1 <0>        -0.2421
     14 C12         4.4810    0.9826    1.9870 C.ar      1 <0>         0.4897
     15 N2          5.2397    1.1950    3.0564 N.ar      1 <0>        -0.5815
     16 C13         6.3467    1.9144    2.9820 C.ar      1 <0>         0.3637
     17 N3          6.7758    2.4527    1.8646 N.ar      1 <0>        -0.5320
     18 N4          3.3281    0.2314    2.0747 N.pl3     1 <0>        -0.8453
     19 C14         6.3113    3.3479   -2.7793 C.ar      1 <0>        -0.1848
     20 C15         7.5509    4.0005   -2.7887 C.ar      1 <0>         0.0225
     21 C16         7.9796    4.5779   -3.9663 C.ar      1 <0>        -0.2473
     22 C17         7.1723    4.4937   -5.0985 C.ar      1 <0>         0.4248
     23 N5          6.0047    3.8690   -5.0559 N.ar      1 <0>        -0.5432
     24 C18         5.5623    3.3005   -3.9527 C.ar      1 <0>         0.1898
     25 N6          7.5963    5.0722   -6.2862 N.pl3     1 <0>        -0.6061
     26 C19         6.6842    5.2017   -7.4337 C.3       1 <0>         0.0891
     27 C20         6.7306    6.6524   -7.9269 C.3       1 <0>         0.0453
     28 O1          8.0911    7.0299   -8.1515 O.3       1 <0>        -0.3783
     29 C21         8.9062    7.0074   -6.9773 C.3       1 <0>         0.0462
     30 C22         8.9696    5.5799   -6.4336 C.3       1 <0>         0.0838
     31 H1         -0.1688    0.4980    1.0029 H         1 <0>         0.1412
     32 H2          1.9066    1.8183    1.0208 H         1 <0>         0.1342
     33 H3          3.5948   -0.8262   -1.9000 H         1 <0>         0.1394
     34 H4         -0.3683   -1.4687   -0.4609 H         1 <0>         0.1391
     35 H5          4.0803    1.8686   -2.5171 H         1 <0>         0.1491
     36 H6          6.9292    2.0582    3.8800 H         1 <0>         0.2041
     37 H7          3.1086   -0.4036    1.3750 H         1 <0>         0.4151
     38 H8          2.7366    0.3379    2.8360 H         1 <0>         0.4102
     39 H9          8.1562    4.0508   -1.8957 H         1 <0>         0.1497
     40 H10         8.9298    5.0894   -4.0097 H         1 <0>         0.1389
     41 H11         4.6073    2.7963   -3.9572 H         1 <0>         0.1615
     42 H12         7.0021    4.5320   -8.2327 H         1 <0>         0.0729
     43 H13         5.6691    4.9509   -7.1259 H         1 <0>         0.1052
     44 H14         6.1704    6.7385   -8.8579 H         1 <0>         0.1081
     45 H15         6.2906    7.3070   -7.1745 H         1 <0>         0.0557
     46 H16         9.9113    7.3488   -7.2252 H         1 <0>         0.1096
     47 H17         8.4742    7.6632   -6.2215 H         1 <0>         0.0574
     48 H18         9.4672    5.5795   -5.4638 H         1 <0>         0.0976
     49 H19         9.5215    4.9489   -7.1302 H         1 <0>         0.0796
@<TRIPOS>BOND
     1    1    6 ar
     2    1    2 ar
     3    1   31 1
     4    2    3 ar
     5    2   32 1
     6    3    4 ar
     7    3    8 1
     8    4    5 ar
     9    4   33 1
    10    5    6 ar
    11    5    7 1
    12    6   34 1
    13    8   13 ar
    14    8    9 ar
    15    9   10 ar
    16    9   35 1
    17   10   11 ar
    18   10   19 1
    19   11   12 ar
    20   12   17 ar
    21   12   13 ar
    22   13   14 ar
    23   14   15 ar
    24   14   18 1
    25   15   16 ar
    26   16   17 ar
    27   16   36 1
    28   18   37 1
    29   18   38 1
    30   19   24 ar
    31   19   20 ar
    32   20   21 ar
    33   20   39 1
    34   21   22 ar
    35   21   40 1
    36   22   23 ar
    37   22   25 1
    38   23   24 ar
    39   24   41 1
    40   25   30 1
    41   25   26 1
    42   26   27 1
    43   26   42 1
    44   26   43 1
    45   27   28 1
    46   27   44 1
    47   27   45 1
    48   28   29 1
    49   29   30 1
    50   29   46 1
    51   29   47 1
    52   30   48 1
    53   30   49 1
