@<TRIPOS>MOLECULE
ZINC04217438
   37    39     0     0     0
SMALL
USER_CHARGES
2-amino-7-[3,4-dihydroxy-5-(hydroxymethyl)tetrahydrofuran-2-yl]-3,5,7-triazabicyclo[4.3.0]nona-2,4,8,10-tetraene-9-carboxamide
@<TRIPOS>ATOM
      1 C1          0.1393    0.8553   -0.5043 C.2       1 <0>         0.1115
      2 C2         -1.0223    1.5542   -0.3553 C.2       1 <0>        -0.1965
      3 C3         -0.6343    2.9498   -0.0976 C.ar      1 <0>        -0.2140
      4 C4         -1.3255    4.1444    0.1393 C.ar      1 <0>         0.4935
      5 N1         -0.6192    5.2555    0.3308 N.ar      1 <0>        -0.5877
      6 C5          0.7007    5.2350    0.2988 C.ar      1 <0>         0.3569
      7 N2          1.3888    4.1354    0.0797 N.ar      1 <0>        -0.5484
      8 C6          0.7690    2.9736   -0.1231 C.ar      1 <0>         0.3505
      9 N3          1.1976    1.6952   -0.3704 N.pl3     1 <0>        -0.4452
     10 C7          2.6020    1.2913   -0.4749 C.3       1 <0>         0.3083
     11 H1          3.1847    2.0607   -0.9813 H         1 <0>         0.1254
     12 C8          3.1907    0.9956    0.9281 C.3       1 <0>         0.0780
     13 H2          2.4511    0.5121    1.5663 H         1 <0>         0.0894
     14 C9          4.3517    0.0273    0.5951 C.3       1 <0>         0.0448
     15 H3          4.4035   -0.7740    1.3322 H         1 <0>         0.0871
     16 C10         3.9864   -0.5379   -0.7912 C.3       1 <0>         0.0525
     17 H4          4.7458   -0.2532   -1.5194 H         1 <0>         0.0993
     18 O1          2.7175    0.0267   -1.1620 O.3       1 <0>        -0.3500
     19 C11         3.8799   -2.0625   -0.7198 C.3       1 <0>         0.0773
     20 O2          3.6562   -2.5863   -2.0305 O.3       1 <0>        -0.5629
     21 O3          5.5922    0.7344    0.5388 O.3       1 <0>        -0.5348
     22 O4          3.6825    2.1912    1.5370 O.3       1 <0>        -0.5178
     23 N4         -2.7087    4.1688    0.1729 N.pl3     1 <0>        -0.8280
     24 C12        -2.3891    1.0194   -0.4338 C.2       1 <0>         0.5992
     25 O5         -3.3415    1.7753   -0.3921 O.2       1 <0>        -0.5416
     26 N5         -2.5874   -0.3085   -0.5521 N.am      1 <0>        -0.8492
     27 H5          0.2069   -0.2041   -0.7031 H         1 <0>         0.1861
     28 H6          1.2372    6.1586    0.4587 H         1 <0>         0.2018
     29 H7          4.8062   -2.4730   -0.3178 H         1 <0>         0.0666
     30 H8          3.0485   -2.3388   -0.0714 H         1 <0>         0.0582
     31 H9          3.5784   -3.5496   -2.0611 H         1 <0>         0.3860
     32 H10         6.3544    0.1758    0.3334 H         1 <0>         0.3860
     33 H11         4.0609    2.0575    2.4168 H         1 <0>         0.3867
     34 H12        -3.1988    3.4083    0.5226 H         1 <0>         0.4205
     35 H13        -3.1882    4.9464   -0.1531 H         1 <0>         0.4027
     36 H14        -1.8281   -0.9112   -0.5854 H         1 <0>         0.4000
     37 H15        -3.4894   -0.6614   -0.6039 H         1 <0>         0.4078
@<TRIPOS>BOND
     1    1    9 1
     2    1    2 2
     3    1   27 1
     4    2    3 1
     5    2   24 1
     6    3    8 ar
     7    3    4 ar
     8    4    5 ar
     9    4   23 1
    10    5    6 ar
    11    6    7 ar
    12    6   28 1
    13    7    8 ar
    14    8    9 1
    15    9   10 1
    16   10   11 1
    17   10   18 1
    18   10   12 1
    19   12   13 1
    20   12   14 1
    21   12   22 1
    22   14   15 1
    23   14   16 1
    24   14   21 1
    25   16   17 1
    26   16   18 1
    27   16   19 1
    28   19   20 1
    29   19   29 1
    30   19   30 1
    31   20   31 1
    32   21   32 1
    33   22   33 1
    34   23   34 1
    35   23   35 1
    36   24   25 2
    37   24   26 am
    38   26   36 1
    39   26   37 1
@<TRIPOS>MOLECULE
ZINC03830179
   32    34     0     0     0
SMALL
USER_CHARGES

@<TRIPOS>ATOM
      1 C1         -0.0158    1.3119    0.0093 C.ar      1 <0>         0.3636
      2 N1          1.0888    2.0360    0.0026 N.ar      1 <0>        -0.5921
      3 C2          2.2875    1.4625   -0.0119 C.ar      1 <0>         0.5081
      4 C3          2.3582    0.0588   -0.0202 C.ar      1 <0>        -0.1108
      5 C4          1.1547   -0.6659   -0.0126 C.ar      1 <0>         0.3154
      6 N2          0.0021   -0.0041    0.0020 N.ar      1 <0>        -0.5467
      7 N3          1.5110   -1.9908   -0.0227 N.pl3     1 <0>        -0.4736
      8 C5          2.8729   -2.0476   -0.0358 C.2       1 <0>         0.2610
      9 N4          3.3680   -0.8441   -0.0343 N.2       1 <0>        -0.4617
     10 C6          0.5956   -3.1347   -0.0195 C.3       1 <0>         0.3184
     11 H1         -0.2828   -2.9138    0.5869 H         1 <0>         0.1255
     12 C7          0.1740   -3.4901   -1.4675 C.3       1 <0>         0.0777
     13 H2          1.0049   -3.3620   -2.1613 H         1 <0>         0.0940
     14 C8         -0.1950   -4.9902   -1.3073 C.3       1 <0>         0.0454
     15 H3         -0.0494   -5.5277   -2.2442 H         1 <0>         0.0952
     16 C9          0.8144   -5.4637   -0.2395 C.3       1 <0>         0.0545
     17 H4          1.6612   -5.9520   -0.7219 H         1 <0>         0.1075
     18 O1          1.2628   -4.3057    0.4773 O.3       1 <0>        -0.3488
     19 C10         0.1329   -6.4383    0.7231 C.3       1 <0>         0.0648
     20 O2          1.1002   -6.9608    1.6360 O.3       1 <0>        -0.5629
     21 O3         -1.5386   -5.1365   -0.8431 O.3       1 <0>        -0.5353
     22 O4         -0.9585   -2.7212   -1.8777 O.3       1 <0>        -0.5197
     23 N5          3.4393    2.2295   -0.0193 N.pl3     1 <0>        -0.8180
     24 H5         -0.9693    1.8187    0.0257 H         1 <0>         0.2053
     25 H6          3.4551   -2.9572   -0.0459 H         1 <0>         0.2227
     26 H7         -0.6457   -5.9155    1.2786 H         1 <0>         0.0649
     27 H8         -0.3118   -7.2567    0.1570 H         1 <0>         0.0604
     28 H9          0.7376   -7.5872    2.2772 H         1 <0>         0.3853
     29 H10        -1.8167   -6.0554   -0.7271 H         1 <0>         0.3834
     30 H11        -1.2574   -2.9105   -2.7776 H         1 <0>         0.3871
     31 H12         3.3774    3.1975   -0.0138 H         1 <0>         0.4107
     32 H13         4.3085    1.7992   -0.0299 H         1 <0>         0.4187
@<TRIPOS>BOND
     1    1    6 ar
     2    1    2 ar
     3    1   24 1
     4    2    3 ar
     5    3    4 ar
     6    3   23 1
     7    4    9 1
     8    4    5 ar
     9    5    6 ar
    10    5    7 1
    11    7    8 1
    12    7   10 1
    13    8    9 2
    14    8   25 1
    15   10   11 1
    16   10   18 1
    17   10   12 1
    18   12   13 1
    19   12   14 1
    20   12   22 1
    21   14   15 1
    22   14   16 1
    23   14   21 1
    24   16   17 1
    25   16   18 1
    26   16   19 1
    27   19   20 1
    28   19   26 1
    29   19   27 1
    30   20   28 1
    31   21   29 1
    32   22   30 1
    33   23   31 1
    34   23   32 1
@<TRIPOS>MOLECULE
ZINC03832269
   33    35     0     0     0
SMALL
USER_CHARGES

@<TRIPOS>ATOM
      1 C1         -0.0177    1.4575    0.0101 C.2       1 <0>        -0.1648
      2 C2          1.2625    1.8633    0.0000 C.2       1 <0>         0.0504
      3 N1          2.0950    0.7741   -0.0138 N.pl3     1 <0>        -0.4581
      4 C3          1.3585   -0.3784   -0.0129 C.ar      1 <0>         0.3542
      5 C4          0.0021   -0.0041    0.0020 C.ar      1 <0>        -0.2641
      6 C5         -0.9742   -1.0117    0.0059 C.ar      1 <0>         0.4906
      7 N2         -0.5726   -2.2795   -0.0047 N.ar      1 <0>        -0.6019
      8 C6          0.7120   -2.5867   -0.0186 C.ar      1 <0>         0.3613
      9 N3          1.6609   -1.6756   -0.0232 N.ar      1 <0>        -0.5592
     10 N4         -2.3205   -0.6946    0.0209 N.pl3     1 <0>        -0.8285
     11 C7          3.5587    0.8357   -0.0279 C.3       1 <0>         0.3105
     12 H1          3.9778    0.0190    0.5599 H         1 <0>         0.1191
     13 C8          4.0854    0.7793   -1.4790 C.3       1 <0>         0.0791
     14 H2          3.3231    1.1279   -2.1758 H         1 <0>         0.0845
     15 C9          5.2961    1.7391   -1.4765 C.3       1 <0>         0.0467
     16 H3          5.1325    2.5622   -2.1721 H         1 <0>         0.0850
     17 C10         5.3578    2.2619   -0.0242 C.3       1 <0>         0.0498
     18 H4          6.0543    1.6651    0.5647 H         1 <0>         0.0986
     19 O1          4.0133    2.1078    0.4830 O.3       1 <0>        -0.3472
     20 C11         5.7718    3.7347   -0.0054 C.3       1 <0>         0.0825
     21 O2          5.9358    4.1661    1.3470 O.3       1 <0>        -0.5634
     22 O3          6.4941    1.0348   -1.8093 O.3       1 <0>        -0.5390
     23 O4          4.4961   -0.5484   -1.8113 O.3       1 <0>        -0.5251
     24 H5         -0.8934    2.0894    0.0258 H         1 <0>         0.1524
     25 H6          1.5874    2.8933    0.0024 H         1 <0>         0.1782
     26 H7          0.9949   -3.6289   -0.0269 H         1 <0>         0.1998
     27 H8         -2.5999    0.2343    0.0289 H         1 <0>         0.4120
     28 H9         -2.9852   -1.4010    0.0235 H         1 <0>         0.4092
     29 H10         6.7132    3.8543   -0.5416 H         1 <0>         0.0662
     30 H11         5.0003    4.3352   -0.4873 H         1 <0>         0.0598
     31 H12         6.1987    5.0925    1.4352 H         1 <0>         0.3860
     32 H13         7.2859    1.5897   -1.8224 H         1 <0>         0.3863
     33 H14         4.8358   -0.6412   -2.7120 H         1 <0>         0.3889
@<TRIPOS>BOND
     1    1    5 1
     2    1    2 2
     3    1   24 1
     4    2    3 1
     5    2   25 1
     6    3    4 1
     7    3   11 1
     8    4    9 ar
     9    4    5 ar
    10    5    6 ar
    11    6    7 ar
    12    6   10 1
    13    7    8 ar
    14    8    9 ar
    15    8   26 1
    16   10   27 1
    17   10   28 1
    18   11   12 1
    19   11   19 1
    20   11   13 1
    21   13   14 1
    22   13   15 1
    23   13   23 1
    24   15   16 1
    25   15   17 1
    26   15   22 1
    27   17   18 1
    28   17   19 1
    29   17   20 1
    30   20   21 1
    31   20   29 1
    32   20   30 1
    33   21   31 1
    34   22   32 1
    35   23   33 1
@<TRIPOS>MOLECULE
ZINC03814316
   34    36     0     0     0
SMALL
USER_CHARGES

@<TRIPOS>ATOM
      1 C1         -0.0158    1.3119    0.0093 C.ar      1 <0>         0.3777
      2 N1          1.0888    2.0360    0.0026 N.ar      1 <0>        -0.5867
      3 C2          2.2875    1.4625   -0.0119 C.ar      1 <0>         0.5142
      4 C3          2.3582    0.0588   -0.0202 C.ar      1 <0>        -0.1132
      5 C4          1.1547   -0.6659   -0.0126 C.ar      1 <0>         0.3191
      6 N2          0.0021   -0.0041    0.0020 N.ar      1 <0>        -0.5569
      7 N3          1.5110   -1.9908   -0.0227 N.pl3     1 <0>        -0.4803
      8 C5          2.8729   -2.0476   -0.0358 C.2       1 <0>         0.2476
      9 N4          3.3680   -0.8441   -0.0343 N.2       1 <0>        -0.4470
     10 C6          0.5956   -3.1347   -0.0195 C.3       1 <0>         0.3301
     11 H1         -0.2832   -2.9148    0.5866 H         1 <0>         0.1307
     12 C7          0.1775   -3.4928   -1.4629 C.3       1 <0>         0.0349
     13 H2          0.9267   -3.1463   -2.1747 H         1 <0>         0.0914
     14 C8          0.1056   -5.0362   -1.4608 C.3       1 <0>         0.0523
     15 H3          0.8193   -5.4528   -2.1716 H         1 <0>         0.0963
     16 C9          0.4888   -5.4280   -0.0165 C.3       1 <0>         0.0543
     17 H4         -0.4066   -5.5617    0.5906 H         1 <0>         0.1209
     18 O1          1.2661   -4.3138    0.4763 O.3       1 <0>        -0.3669
     19 C10         1.3272   -6.7078   -0.0164 C.3       1 <0>         0.0055
     20 N5          1.5791   -7.1280    1.3685 N.4       1 <0>        -0.6361
     21 O2         -1.2191   -5.4762   -1.7672 O.3       1 <0>        -0.5394
     22 O3         -1.0998   -2.9297   -1.7685 O.3       1 <0>        -0.5224
     23 N6          3.4393    2.2295   -0.0193 N.pl3     1 <0>        -0.8114
     24 H5         -0.9693    1.8187    0.0257 H         1 <0>         0.2103
     25 H6          3.4551   -2.9572   -0.0459 H         1 <0>         0.2208
     26 H7          0.7880   -7.4954   -0.5427 H         1 <0>         0.1574
     27 H8          2.2767   -6.5201   -0.5176 H         1 <0>         0.1475
     28 H9          2.0783   -6.3989    1.8557 H         1 <0>         0.4420
     29 H10         0.7001   -7.3017    1.8325 H         1 <0>         0.4384
     30 H11        -1.5313   -5.2049   -2.6412 H         1 <0>         0.3990
     31 H12        -1.4113   -3.1237   -2.6632 H         1 <0>         0.3908
     32 H13         3.3774    3.1975   -0.0138 H         1 <0>         0.4153
     33 H14         4.3085    1.7992   -0.0299 H         1 <0>         0.4206
     34 H15         2.1320   -7.9720    1.3686 H         1 <0>         0.4433
@<TRIPOS>BOND
     1    1    6 ar
     2    1    2 ar
     3    1   24 1
     4    2    3 ar
     5    3    4 ar
     6    3   23 1
     7    4    9 1
     8    4    5 ar
     9    5    6 ar
    10    5    7 1
    11    7    8 1
    12    7   10 1
    13    8    9 2
    14    8   25 1
    15   10   11 1
    16   10   18 1
    17   10   12 1
    18   12   13 1
    19   12   14 1
    20   12   22 1
    21   14   15 1
    22   14   16 1
    23   14   21 1
    24   16   17 1
    25   16   18 1
    26   16   19 1
    27   19   20 1
    28   19   26 1
    29   19   27 1
    30   20   28 1
    31   20   29 1
    32   20   34 1
    33   21   30 1
    34   22   31 1
    35   23   32 1
    36   23   33 1
@<TRIPOS>MOLECULE
ZINC13809446
   31    33     0     0     0
SMALL
USER_CHARGES
(2R,3R,4S,5R)-2-(4-chloro-5-iodo-pyrrolo[2,3-d]pyrimidin-7-yl)-5-(hydroxymethyl)tetrahydrofuran-3,4-diol
@<TRIPOS>ATOM
      1 C1          3.2024    1.3761    2.8596 C.2       1 <0>         0.1305
      2 C2          4.5010    1.5050    3.1772 C.2       1 <0>        -0.1651
      3 C3          5.0315    2.5931    2.3562 C.ar      1 <0>        -0.1736
      4 C4          3.9545    3.0497    1.5671 C.ar      1 <0>         0.3535
      5 N1          2.8630    2.2959    1.9011 N.pl3     1 <0>        -0.4545
      6 C5          1.5284    2.4454    1.3158 C.3       1 <0>         0.3085
      7 H1          1.3059    3.4979    1.1400 H         1 <0>         0.1259
      8 C6          1.4269    1.6468   -0.0027 C.3       1 <0>         0.0778
      9 H2          2.1533    0.8343   -0.0165 H         1 <0>         0.0865
     10 C7         -0.0127    1.0858    0.0080 C.3       1 <0>         0.0468
     11 H3          0.0021   -0.0041    0.0020 H         1 <0>         0.0879
     12 C8         -0.6107    1.6118    1.3317 C.3       1 <0>         0.0502
     13 H4         -1.1613    2.5364    1.1584 H         1 <0>         0.1012
     14 O1          0.5316    1.8583    2.1804 O.3       1 <0>        -0.3461
     15 C9         -1.5234    0.5568    1.9602 C.3       1 <0>         0.0819
     16 O2         -2.1559    1.1036    3.1190 O.3       1 <0>        -0.5632
     17 O3         -0.7516    1.5814   -1.1102 O.3       1 <0>        -0.5397
     18 O4          1.6201    2.5086   -1.1262 O.3       1 <0>        -0.5262
     19 N2          4.1675    4.0551    0.7237 N.ar      1 <0>        -0.5074
     20 C10         5.3600    4.6018    0.6221 C.ar      1 <0>         0.3385
     21 N3          6.3928    4.1976    1.3400 N.ar      1 <0>        -0.5228
     22 C11         6.2760    3.2067    2.2106 C.ar      1 <0>         0.2746
     23 Cl1         7.6398    2.6831    3.1486 Cl        1 <0>         0.0071
     24 I1          5.5628    0.3661    4.5787 I         1 <0>         0.0209
     25 H5          2.5261    0.6552    3.2946 H         1 <0>         0.1937
     26 H6         -2.2834    0.2575    1.2385 H         1 <0>         0.0678
     27 H7         -0.9310   -0.3125    2.2456 H         1 <0>         0.0611
     28 H8         -2.7507    0.4885    3.5696 H         1 <0>         0.3875
     29 H9         -1.6713    1.2840   -1.1370 H         1 <0>         0.3889
     30 H10         1.5077    2.0712   -1.9813 H         1 <0>         0.3922
     31 H11         5.5001    5.4138   -0.0760 H         1 <0>         0.2153
@<TRIPOS>BOND
     1    1    5 1
     2    1    2 2
     3    1   25 1
     4    2    3 1
     5    2   24 1
     6    3   22 ar
     7    3    4 ar
     8    4    5 1
     9    4   19 ar
    10    5    6 1
    11    6    7 1
    12    6   14 1
    13    6    8 1
    14    8    9 1
    15    8   10 1
    16    8   18 1
    17   10   11 1
    18   10   12 1
    19   10   17 1
    20   12   13 1
    21   12   14 1
    22   12   15 1
    23   15   16 1
    24   15   26 1
    25   15   27 1
    26   16   28 1
    27   17   29 1
    28   18   30 1
    29   19   20 ar
    30   20   21 ar
    31   20   31 1
    32   21   22 ar
    33   22   23 1
@<TRIPOS>MOLECULE
ZINC04773849
   34    36     0     0     0
SMALL
USER_CHARGES
(2S,3S,4R,5R)-2-(aminomethyl)-5-(6-aminopurin-9-yl)tetrahydrofuran-3,4-diol
@<TRIPOS>ATOM
      1 C1          3.1969    3.0661   -0.0128 C.ar      1 <0>         0.3572
      2 N1          3.9808    2.0032   -0.0260 N.ar      1 <0>        -0.5700
      3 C2          3.4744    0.7747   -0.0274 C.ar      1 <0>         0.4543
      4 C3          2.0768    0.6264   -0.0144 C.ar      1 <0>        -0.0718
      5 C4          1.2867    1.7880   -0.0006 C.ar      1 <0>         0.3077
      6 N2          1.8839    2.9755   -0.0003 N.ar      1 <0>        -0.5328
      7 N3         -0.0164    1.3589    0.0095 N.pl3     1 <0>        -0.4831
      8 C5          0.0021   -0.0041    0.0020 C.2       1 <0>         0.2568
      9 N4          1.2311   -0.4319   -0.0120 N.2       1 <0>        -0.4418
     10 C6         -1.2091    2.2096    0.0200 C.3       1 <0>         0.3320
     11 H1         -1.0234    3.1132    0.6008 H         1 <0>         0.1330
     12 C7         -1.6225    2.5740   -1.4281 C.3       1 <0>         0.0363
     13 H2         -1.4651    1.7341   -2.1047 H         1 <0>         0.0965
     14 C8         -3.1365    2.8638   -1.2383 C.3       1 <0>         0.0495
     15 H3         -3.6903    2.6672   -2.1563 H         1 <0>         0.1070
     16 C9         -3.5269    1.8573   -0.1348 C.3       1 <0>         0.0644
     17 H4         -3.9789    0.9730   -0.5840 H         1 <0>         0.1308
     18 O1         -2.3293    1.4910    0.5604 O.3       1 <0>        -0.3734
     19 C10        -4.5134    2.5070    0.8376 C.3       1 <0>        -0.0030
     20 O2         -3.3459    4.2073   -0.7985 O.3       1 <0>        -0.5493
     21 O3         -0.9288    3.7370   -1.8846 O.3       1 <0>        -0.5235
     22 N5          4.3039   -0.3330   -0.0408 N.pl3     1 <0>        -0.7420
     23 H5          3.6502    4.0463   -0.0125 H         1 <0>         0.2104
     24 H6         -0.8739   -0.6357    0.0070 H         1 <0>         0.2233
     25 H7         -4.0523    3.3845    1.2908 H         1 <0>         0.1508
     26 H8         -5.4117    2.8066    0.2977 H         1 <0>         0.1499
     27 H9         -4.0485    1.2023    2.3607 H         1 <0>         0.4424
     28 H10        -5.5228    1.9500    2.5433 H         1 <0>         0.4435
     29 H11        -3.1151    4.8771   -1.4567 H         1 <0>         0.4066
     30 H12        -1.1563    4.0020   -2.7863 H         1 <0>         0.3944
     31 H13         4.1344   -0.8862    0.7748 H         1 <0>         0.3725
     32 H14         5.2669   -0.2176   -0.0497 H         1 <0>         0.3785
     33 N6         -4.8825    1.5265    1.8738 N.4       1 <0>        -0.6454
     34 H15        -5.3444    0.7241    1.4299 H         1 <0>         0.4384
@<TRIPOS>BOND
     1    1    6 ar
     2    1    2 ar
     3    1   23 1
     4    2    3 ar
     5    3    4 ar
     6    3   22 1
     7    4    9 1
     8    4    5 ar
     9    5    6 ar
    10    5    7 1
    11    7    8 1
    12    7   10 1
    13    8    9 2
    14    8   24 1
    15   10   11 1
    16   10   18 1
    17   10   12 1
    18   12   13 1
    19   12   14 1
    20   12   21 1
    21   14   15 1
    22   14   16 1
    23   14   20 1
    24   16   17 1
    25   16   18 1
    26   16   19 1
    27   19   25 1
    28   19   26 1
    29   19   33 1
    30   20   29 1
    31   21   30 1
    32   22   31 1
    33   22   32 1
    34   27   33 1
    35   28   33 1
    36   33   34 1
@<TRIPOS>MOLECULE
ZINC03871140
   33    35     0     0     0
SMALL
USER_CHARGES

@<TRIPOS>ATOM
      1 C1         -0.0165    1.3674    0.0096 C.2       1 <0>         0.1069
      2 C2          1.2412    1.8393    0.0001 C.2       1 <0>        -0.1565
      3 C3          2.1284    0.6775   -0.0146 C.ar      1 <0>        -0.2440
      4 C4          3.5189    0.4885   -0.0293 C.ar      1 <0>         0.4937
      5 N1          3.9863   -0.7562   -0.0408 N.ar      1 <0>        -0.5955
      6 C5          3.1659   -1.7917   -0.0386 C.ar      1 <0>         0.3656
      7 N2          1.8572   -1.6618   -0.0250 N.ar      1 <0>        -0.5522
      8 C6          1.2933   -0.4548   -0.0127 C.ar      1 <0>         0.3683
      9 N3          0.0021   -0.0041    0.0020 N.pl3     1 <0>        -0.4549
     10 C7         -1.1866   -0.8604    0.0095 C.3       1 <0>         0.3143
     11 H1         -1.0137   -1.7519   -0.5934 H         1 <0>         0.1266
     12 C8         -1.5551   -1.2562    1.4615 C.3       1 <0>         0.0770
     13 H2         -1.3813   -0.4295    2.1502 H         1 <0>         0.0936
     14 C9         -3.0727   -1.5498    1.3109 C.3       1 <0>         0.0452
     15 H3         -3.5971   -1.3724    2.2499 H         1 <0>         0.0945
     16 C10        -3.5003   -0.5229    0.2404 C.3       1 <0>         0.0542
     17 H4         -3.9426    0.3498    0.7209 H         1 <0>         0.1061
     18 O1         -2.3251   -0.1373   -0.4848 O.3       1 <0>        -0.3491
     19 C11        -4.5133   -1.1591   -0.7136 C.3       1 <0>         0.0650
     20 O2         -4.9912   -0.1712   -1.6289 O.3       1 <0>        -0.5628
     21 O3         -3.2893   -2.8865    0.8546 O.3       1 <0>        -0.5349
     22 O4         -0.8422   -2.4241    1.8736 O.3       1 <0>        -0.5186
     23 N4          4.3814    1.5699   -0.0322 N.pl3     1 <0>        -0.8277
     24 I1          1.8198    3.8528    0.0048 I         1 <0>        -0.0028
     25 H5         -0.9083    1.9764    0.0255 H         1 <0>         0.1854
     26 H6          3.5874   -2.7861   -0.0486 H         1 <0>         0.2031
     27 H7         -4.0336   -1.9659   -1.2677 H         1 <0>         0.0649
     28 H8         -5.3502   -1.5590   -0.1410 H         1 <0>         0.0601
     29 H9         -5.6386   -0.5048   -2.2650 H         1 <0>         0.3851
     30 H10        -4.2217   -3.1184    0.7448 H         1 <0>         0.3831
     31 H11        -1.0415   -2.7086    2.7761 H         1 <0>         0.3864
     32 H12         4.0271    2.4728   -0.0240 H         1 <0>         0.4092
     33 H13         5.3405    1.4252   -0.0424 H         1 <0>         0.4105
@<TRIPOS>BOND
     1    1    9 1
     2    1    2 2
     3    1   25 1
     4    2    3 1
     5    2   24 1
     6    3    8 ar
     7    3    4 ar
     8    4    5 ar
     9    4   23 1
    10    5    6 ar
    11    6    7 ar
    12    6   26 1
    13    7    8 ar
    14    8    9 1
    15    9   10 1
    16   10   11 1
    17   10   18 1
    18   10   12 1
    19   12   13 1
    20   12   14 1
    21   12   22 1
    22   14   15 1
    23   14   16 1
    24   14   21 1
    25   16   17 1
    26   16   18 1
    27   16   19 1
    28   19   20 1
    29   19   27 1
    30   19   28 1
    31   20   29 1
    32   21   30 1
    33   22   31 1
    34   23   32 1
    35   23   33 1
@<TRIPOS>MOLECULE
ZINC03814318
   33    34     0     0     0
SMALL
USER_CHARGES
2-(6-amino-5-nitro-pyrimidin-4-yl)amino-5-(hydroxymethyl)tetrahydrofuran-3,4-diol
@<TRIPOS>ATOM
      1 C1         -1.0356    5.8344   -3.8862 C.ar      1 <0>         0.4156
      2 N1         -2.0135    6.1248   -4.7200 N.ar      1 <0>        -0.5882
      3 C2         -3.2160    5.5691   -4.5833 C.ar      1 <0>         0.5222
      4 C3         -3.4290    4.6673   -3.5449 C.ar      1 <0>        -0.2744
      5 C4         -2.3716    4.3925   -2.6835 C.ar      1 <0>         0.5247
      6 N2         -1.1991    4.9903   -2.8881 N.ar      1 <0>        -0.5831
      7 N3         -2.5344    3.5052   -1.6308 N.pl3     1 <0>        -0.6889
      8 C5         -1.4121    3.2191   -0.7338 C.3       1 <0>         0.2758
      9 H1         -0.7179    4.0590   -0.7058 H         1 <0>         0.1284
     10 C6         -1.9233    2.8859    0.6910 C.3       1 <0>         0.0348
     11 H2         -2.8465    2.3080    0.6477 H         1 <0>         0.0861
     12 C7         -0.7603    2.0329    1.2624 C.3       1 <0>         0.0922
     13 H3         -1.1494    1.1950    1.8409 H         1 <0>         0.0897
     14 C8         -0.0187    1.5258    0.0104 C.3       1 <0>         0.0879
     15 H4          1.0013    1.9102    0.0028 H         1 <0>         0.1012
     16 O1         -0.7326    2.0112   -1.1388 O.3       1 <0>        -0.3611
     17 C9          0.0021   -0.0041    0.0020 C.3       1 <0>         0.0802
     18 O2          0.7842   -0.4638   -1.1021 O.3       1 <0>        -0.5621
     19 O3          0.1058    2.8373    2.0653 O.3       1 <0>        -0.5404
     20 O4         -2.1058    4.0771    1.4588 O.3       1 <0>        -0.5400
     21 N4         -4.7477    4.0212   -3.3588 N.pl3     1 <0>         0.0291
     22 O5         -5.5919    4.5507   -2.6584 O.2       1 <0>        -0.1384
     23 O6         -4.9887    2.9600   -3.9060 O.3       1 <0>        -0.1351
     24 N5         -4.2391    5.8805   -5.4654 N.pl3     1 <0>        -0.8182
     25 H5         -0.0721    6.3023   -4.0247 H         1 <0>         0.2198
     26 H6         -3.3914    3.0738   -1.4883 H         1 <0>         0.4127
     27 H7          0.4388   -0.3666    0.9326 H         1 <0>         0.0677
     28 H8         -1.0164   -0.3807   -0.0924 H         1 <0>         0.0557
     29 H9          0.8412   -1.4267   -1.1698 H         1 <0>         0.3849
     30 H10        -0.3097    3.1832    2.8670 H         1 <0>         0.3937
     31 H11        -2.7601    4.6863    1.0902 H         1 <0>         0.3896
     32 H12        -4.0818    6.5073   -6.1888 H         1 <0>         0.4234
     33 H13        -5.1123    5.4717   -5.3592 H         1 <0>         0.4146
@<TRIPOS>BOND
     1    1    6 ar
     2    1    2 ar
     3    1   25 1
     4    2    3 ar
     5    3    4 ar
     6    3   24 1
     7    4    5 ar
     8    4   21 1
     9    5    6 ar
    10    5    7 1
    11    7    8 1
    12    7   26 1
    13    8    9 1
    14    8   16 1
    15    8   10 1
    16   10   11 1
    17   10   12 1
    18   10   20 1
    19   12   13 1
    20   12   14 1
    21   12   19 1
    22   14   15 1
    23   14   16 1
    24   14   17 1
    25   17   18 1
    26   17   27 1
    27   17   28 1
    28   18   29 1
    29   19   30 1
    30   20   31 1
    31   21   22 2
    32   21   23 1
    33   24   32 1
    34   24   33 1
@<TRIPOS>MOLECULE
ZINC05161616
   33    35     0     0     0
SMALL
USER_CHARGES
(2R,3R,4S,5R)-2-(4-amino-5-iodo-pyrrolo[3,2-e]pyrimidin-7-yl)-5-(hydroxymethyl)tetrahydrofuran-3,4-diol
@<TRIPOS>ATOM
      1 C1          3.2013    1.3802    2.8645 C.2       1 <0>         0.1087
      2 C2          4.5016    1.5081    3.1770 C.2       1 <0>        -0.1561
      3 C3          5.0290    2.5953    2.3541 C.ar      1 <0>        -0.2429
      4 C4          6.2802    3.2134    2.2063 C.ar      1 <0>         0.4946
      5 N1          6.3933    4.2071    1.3300 N.ar      1 <0>        -0.5947
      6 C5          5.3566    4.6057    0.6147 C.ar      1 <0>         0.3674
      7 N2          4.1666    4.0556    0.7201 N.ar      1 <0>        -0.5543
      8 C6          3.9533    3.0530    1.5713 C.ar      1 <0>         0.3663
      9 N3          2.8630    2.2959    1.9011 N.pl3     1 <0>        -0.4528
     10 C7          1.5284    2.4454    1.3158 C.3       1 <0>         0.3099
     11 H1          1.3059    3.4979    1.1400 H         1 <0>         0.1239
     12 C8          1.4269    1.6468   -0.0027 C.3       1 <0>         0.0792
     13 H2          2.1533    0.8343   -0.0165 H         1 <0>         0.0853
     14 C9         -0.0127    1.0858    0.0080 C.3       1 <0>         0.0462
     15 H3          0.0021   -0.0041    0.0020 H         1 <0>         0.0864
     16 C10        -0.6107    1.6118    1.3317 C.3       1 <0>         0.0503
     17 H4         -1.1613    2.5364    1.1584 H         1 <0>         0.1003
     18 O1          0.5316    1.8583    2.1804 O.3       1 <0>        -0.3474
     19 C11        -1.5234    0.5568    1.9602 C.3       1 <0>         0.0820
     20 O2         -2.1559    1.1036    3.1190 O.3       1 <0>        -0.5632
     21 O3         -0.7516    1.5814   -1.1102 O.3       1 <0>        -0.5398
     22 O4          1.6201    2.5086   -1.1262 O.3       1 <0>        -0.5247
     23 N4          7.3681    2.7997    2.9535 N.pl3     1 <0>        -0.8269
     24 I1          5.5667    0.3733    4.5793 I         1 <0>        -0.0010
     25 H5          2.5245    0.6626    3.3043 H         1 <0>         0.1863
     26 H6          5.4919    5.4165   -0.0858 H         1 <0>         0.2041
     27 H7         -2.2834    0.2575    1.2385 H         1 <0>         0.0670
     28 H8         -0.9310   -0.3125    2.2456 H         1 <0>         0.0604
     29 H9         -2.7507    0.4885    3.5696 H         1 <0>         0.3867
     30 H10        -1.6713    1.2840   -1.1370 H         1 <0>         0.3879
     31 H11         1.5077    2.0712   -1.9813 H         1 <0>         0.3904
     32 H12         7.2718    2.0736    3.5895 H         1 <0>         0.4094
     33 H13         8.2274    3.2355    2.8414 H         1 <0>         0.4110
@<TRIPOS>BOND
     1    1    9 1
     2    1    2 2
     3    1   25 1
     4    2    3 1
     5    2   24 1
     6    3    8 ar
     7    3    4 ar
     8    4    5 ar
     9    4   23 1
    10    5    6 ar
    11    6    7 ar
    12    6   26 1
    13    7    8 ar
    14    8    9 1
    15    9   10 1
    16   10   11 1
    17   10   18 1
    18   10   12 1
    19   12   13 1
    20   12   14 1
    21   12   22 1
    22   14   15 1
    23   14   16 1
    24   14   21 1
    25   16   17 1
    26   16   18 1
    27   16   19 1
    28   19   20 1
    29   19   27 1
    30   19   28 1
    31   20   29 1
    32   21   30 1
    33   22   31 1
    34   23   32 1
    35   23   33 1
@<TRIPOS>MOLECULE
ZINC27646915
   33    35     0     0     0
SMALL
USER_CHARGES
(2S,3R,4S,5R)-2-(4-amino-5-iodo-pyrrolo[3,2-e]pyrimidin-7-yl)-5-(hydroxymethyl)tetrahydrofuran-3,4-diol
@<TRIPOS>ATOM
      1 C1          2.4625    0.3845   -2.2195 C.2       1 <0>         0.0964
      2 C2          2.7856   -0.1567   -3.4058 C.2       1 <0>        -0.1517
      3 C3          2.4650   -1.5805   -3.3221 C.ar      1 <0>        -0.2504
      4 C4          2.5613   -2.6744   -4.1959 C.ar      1 <0>         0.4990
      5 N1          2.1748   -3.8685   -3.7569 N.ar      1 <0>        -0.6046
      6 C5          1.6991   -4.0233   -2.5341 C.ar      1 <0>         0.3641
      7 N2          1.5863   -3.0262   -1.6838 N.ar      1 <0>        -0.5618
      8 C6          1.9554   -1.7932   -2.0280 C.ar      1 <0>         0.3850
      9 N3          1.9614   -0.5845   -1.3881 N.pl3     1 <0>        -0.4544
     10 C7          1.5055   -0.3590   -0.0142 C.3       1 <0>         0.3041
     11 H1          1.9440   -1.1721    0.5830 H         1 <0>         0.1471
     12 C8         -0.0356   -0.2623    0.0319 C.3       1 <0>         0.0956
     13 H2         -0.5030   -0.7763    0.8848 H         1 <0>         0.0995
     14 C9         -0.3190    1.2548   -0.0421 C.3       1 <0>         0.0676
     15 H3         -0.9551    1.6437    0.7667 H         1 <0>         0.0829
     16 C10         1.0844    1.8952   -0.1242 C.3       1 <0>         0.0269
     17 H4          1.4197    2.1106   -1.1495 H         1 <0>         0.0991
     18 O1          1.9701    0.9204    0.4685 O.3       1 <0>        -0.3336
     19 C11         1.1212    3.2015    0.6714 C.3       1 <0>         0.0890
     20 O2          2.3886    3.8355    0.4880 O.3       1 <0>        -0.5952
     21 O3         -1.0803    1.5656   -1.2108 O.3       1 <0>        -0.5793
     22 O4         -0.6133   -0.9348   -1.0889 O.3       1 <0>        -0.5608
     23 N4          3.0605   -2.5172   -5.4763 N.pl3     1 <0>        -0.8531
     24 I1          3.5930    0.8467   -5.0582 I         1 <0>        -0.0082
     25 H5          2.5797    1.4262   -1.9595 H         1 <0>         0.1793
     26 H6          1.3898   -5.0092   -2.2199 H         1 <0>         0.1977
     27 H7          0.3224    3.8694    0.3167 H         1 <0>         0.0602
     28 H8          0.9708    2.9848    1.7393 H         1 <0>         0.0561
     29 H9          2.6019    4.7928    0.9861 H         1 <0>         0.4174
     30 H10        -1.3700    2.6064   -1.4178 H         1 <0>         0.4144
     31 H11        -1.7062   -0.9622   -1.2104 H         1 <0>         0.4174
     32 H12         3.1299   -3.3841   -6.1498 H         1 <0>         0.4294
     33 H13         3.3881   -1.5253   -5.8210 H         1 <0>         0.4250
@<TRIPOS>BOND
     1    1    9 1
     2    1    2 2
     3    1   25 1
     4    2    3 1
     5    2   24 1
     6    3    8 ar
     7    3    4 ar
     8    4    5 ar
     9    4   23 1
    10    5    6 ar
    11    6    7 ar
    12    6   26 1
    13    7    8 ar
    14    8    9 1
    15    9   10 1
    16   10   11 1
    17   10   18 1
    18   10   12 1
    19   12   13 1
    20   12   14 1
    21   12   22 1
    22   14   15 1
    23   14   16 1
    24   14   21 1
    25   16   17 1
    26   16   18 1
    27   16   19 1
    28   19   20 1
    29   19   27 1
    30   19   28 1
    31   20   29 1
    32   21   30 1
    33   22   31 1
    34   23   32 1
    35   23   33 1
@<TRIPOS>MOLECULE
ZINC05161614
   33    35     0     0     0
SMALL
USER_CHARGES
(2R,3R,4S,5R)-2-(4-amino-5-bromo-pyrrolo[3,2-e]pyrimidin-7-yl)-5-(hydroxymethyl)tetrahydrofuran-3,4-diol
@<TRIPOS>ATOM
      1 C1          3.2014    1.3799    2.8648 C.2       1 <0>         0.1030
      2 C2          4.5020    1.5076    3.1768 C.2       1 <0>        -0.1466
      3 C3          5.0291    2.5950    2.3539 C.ar      1 <0>        -0.2463
      4 C4          6.2804    3.2129    2.2056 C.ar      1 <0>         0.4970
      5 N1          6.3934    4.2066    1.3293 N.ar      1 <0>        -0.5960
      6 C5          5.3566    4.6053    0.6142 C.ar      1 <0>         0.3685
      7 N2          4.1663    4.0559    0.7205 N.ar      1 <0>        -0.5552
      8 C6          3.9533    3.0529    1.5713 C.ar      1 <0>         0.3670
      9 N3          2.8630    2.2959    1.9011 N.pl3     1 <0>        -0.4524
     10 C7          1.5284    2.4454    1.3158 C.3       1 <0>         0.3104
     11 H1          1.3059    3.4979    1.1400 H         1 <0>         0.1240
     12 C8          1.4269    1.6468   -0.0027 C.3       1 <0>         0.0790
     13 H2          2.1533    0.8343   -0.0165 H         1 <0>         0.0856
     14 C9         -0.0127    1.0858    0.0080 C.3       1 <0>         0.0462
     15 H3          0.0021   -0.0041    0.0020 H         1 <0>         0.0865
     16 C10        -0.6107    1.6118    1.3317 C.3       1 <0>         0.0502
     17 H4         -1.1613    2.5364    1.1584 H         1 <0>         0.1002
     18 O1          0.5316    1.8583    2.1804 O.3       1 <0>        -0.3471
     19 C11        -1.5234    0.5568    1.9602 C.3       1 <0>         0.0820
     20 O2         -2.1559    1.1036    3.1190 O.3       1 <0>        -0.5633
     21 O3         -0.7516    1.5814   -1.1102 O.3       1 <0>        -0.5398
     22 O4          1.6201    2.5086   -1.1262 O.3       1 <0>        -0.5249
     23 N4          7.3685    2.7990    2.9525 N.pl3     1 <0>        -0.8252
     24 Br1         5.4637    0.4835    4.4425 Br        1 <0>        -0.0108
     25 H5          2.5248    0.6621    3.3045 H         1 <0>         0.1891
     26 H6          5.4920    5.4158   -0.0866 H         1 <0>         0.2042
     27 H7         -2.2834    0.2575    1.2385 H         1 <0>         0.0670
     28 H8         -0.9310   -0.3125    2.2456 H         1 <0>         0.0605
     29 H9         -2.7507    0.4885    3.5696 H         1 <0>         0.3867
     30 H10        -1.6713    1.2840   -1.1370 H         1 <0>         0.3879
     31 H11         1.5077    2.0712   -1.9813 H         1 <0>         0.3904
     32 H12         7.2722    2.0731    3.5886 H         1 <0>         0.4114
     33 H13         8.2278    3.2347    2.8402 H         1 <0>         0.4105
@<TRIPOS>BOND
     1    1    9 1
     2    1    2 2
     3    1   25 1
     4    2    3 1
     5    2   24 1
     6    3    8 ar
     7    3    4 ar
     8    4    5 ar
     9    4   23 1
    10    5    6 ar
    11    6    7 ar
    12    6   26 1
    13    7    8 ar
    14    8    9 1
    15    9   10 1
    16   10   11 1
    17   10   18 1
    18   10   12 1
    19   12   13 1
    20   12   14 1
    21   12   22 1
    22   14   15 1
    23   14   16 1
    24   14   21 1
    25   16   17 1
    26   16   18 1
    27   16   19 1
    28   19   20 1
    29   19   27 1
    30   19   28 1
    31   20   29 1
    32   21   30 1
    33   22   31 1
    34   23   32 1
    35   23   33 1
@<TRIPOS>MOLECULE
ZINC21288919
   49    53     0     0     0
SMALL
USER_CHARGES

@<TRIPOS>ATOM
      1 C1          0.6565    0.2141    0.3667 C.ar      1 <0>        -0.1248
      2 C2          1.8216    0.9537    0.3793 C.ar      1 <0>        -0.0530
      3 C3          2.8888    0.5830   -0.4382 C.ar      1 <0>        -0.0775
      4 C4          2.7718   -0.5345   -1.2645 C.ar      1 <0>        -0.0663
      5 C5          1.6014   -1.2666   -1.2686 C.ar      1 <0>        -0.0979
      6 C6          0.5455   -0.8931   -0.4546 C.ar      1 <0>        -0.0710
      7 Br1         1.4400   -2.7822   -2.3879 Br        1 <0>        -0.0375
      8 C7          4.1418    1.3733   -0.4294 C.ar      1 <0>         0.0652
      9 C8          4.6201    1.9726   -1.5875 C.ar      1 <0>        -0.1782
     10 C9          5.8068    2.7118   -1.5401 C.ar      1 <0>         0.2750
     11 N1          6.4903    2.8567   -0.4163 N.ar      1 <0>        -0.4778
     12 C10         6.0816    2.3056    0.7252 C.ar      1 <0>         0.3808
     13 C11         4.8866    1.5471    0.7588 C.ar      1 <0>        -0.2421
     14 C12         4.4810    0.9826    1.9870 C.ar      1 <0>         0.4897
     15 N2          5.2397    1.1950    3.0564 N.ar      1 <0>        -0.5815
     16 C13         6.3467    1.9144    2.9820 C.ar      1 <0>         0.3637
     17 N3          6.7758    2.4527    1.8646 N.ar      1 <0>        -0.5320
     18 N4          3.3281    0.2314    2.0747 N.pl3     1 <0>        -0.8453
     19 C14         6.3113    3.3479   -2.7793 C.ar      1 <0>        -0.1848
     20 C15         7.5509    4.0005   -2.7887 C.ar      1 <0>         0.0225
     21 C16         7.9796    4.5779   -3.9663 C.ar      1 <0>        -0.2473
     22 C17         7.1723    4.4937   -5.0985 C.ar      1 <0>         0.4248
     23 N5          6.0047    3.8690   -5.0559 N.ar      1 <0>        -0.5432
     24 C18         5.5623    3.3005   -3.9527 C.ar      1 <0>         0.1898
     25 N6          7.5963    5.0722   -6.2862 N.pl3     1 <0>        -0.6061
     26 C19         6.6842    5.2017   -7.4337 C.3       1 <0>         0.0891
     27 C20         6.7306    6.6524   -7.9269 C.3       1 <0>         0.0453
     28 O1          8.0911    7.0299   -8.1515 O.3       1 <0>        -0.3783
     29 C21         8.9062    7.0074   -6.9773 C.3       1 <0>         0.0462
     30 C22         8.9696    5.5799   -6.4336 C.3       1 <0>         0.0838
     31 H1         -0.1688    0.4980    1.0029 H         1 <0>         0.1412
     32 H2          1.9066    1.8183    1.0208 H         1 <0>         0.1342
     33 H3          3.5948   -0.8262   -1.9000 H         1 <0>         0.1394
     34 H4         -0.3683   -1.4687   -0.4609 H         1 <0>         0.1391
     35 H5          4.0803    1.8686   -2.5171 H         1 <0>         0.1491
     36 H6          6.9292    2.0582    3.8800 H         1 <0>         0.2041
     37 H7          3.1086   -0.4036    1.3750 H         1 <0>         0.4151
     38 H8          2.7366    0.3379    2.8360 H         1 <0>         0.4102
     39 H9          8.1562    4.0508   -1.8957 H         1 <0>         0.1497
     40 H10         8.9298    5.0894   -4.0097 H         1 <0>         0.1389
     41 H11         4.6073    2.7963   -3.9572 H         1 <0>         0.1615
     42 H12         7.0021    4.5320   -8.2327 H         1 <0>         0.0729
     43 H13         5.6691    4.9509   -7.1259 H         1 <0>         0.1052
     44 H14         6.1704    6.7385   -8.8579 H         1 <0>         0.1081
     45 H15         6.2906    7.3070   -7.1745 H         1 <0>         0.0557
     46 H16         9.9113    7.3488   -7.2252 H         1 <0>         0.1096
     47 H17         8.4742    7.6632   -6.2215 H         1 <0>         0.0574
     48 H18         9.4672    5.5795   -5.4638 H         1 <0>         0.0976
     49 H19         9.5215    4.9489   -7.1302 H         1 <0>         0.0796
@<TRIPOS>BOND
     1    1    6 ar
     2    1    2 ar
     3    1   31 1
     4    2    3 ar
     5    2   32 1
     6    3    4 ar
     7    3    8 1
     8    4    5 ar
     9    4   33 1
    10    5    6 ar
    11    5    7 1
    12    6   34 1
    13    8   13 ar
    14    8    9 ar
    15    9   10 ar
    16    9   35 1
    17   10   11 ar
    18   10   19 1
    19   11   12 ar
    20   12   17 ar
    21   12   13 ar
    22   13   14 ar
    23   14   15 ar
    24   14   18 1
    25   15   16 ar
    26   16   17 ar
    27   16   36 1
    28   18   37 1
    29   18   38 1
    30   19   24 ar
    31   19   20 ar
    32   20   21 ar
    33   20   39 1
    34   21   22 ar
    35   21   40 1
    36   22   23 ar
    37   22   25 1
    38   23   24 ar
    39   24   41 1
    40   25   30 1
    41   25   26 1
    42   26   27 1
    43   26   42 1
    44   26   43 1
    45   27   28 1
    46   27   44 1
    47   27   45 1
    48   28   29 1
    49   29   30 1
    50   29   46 1
    51   29   47 1
    52   30   48 1
    53   30   49 1
@<TRIPOS>MOLECULE
ZINC04217594
   34    36     0     0     0
SMALL
USER_CHARGES
2-amino-7-[3,4-dihydroxy-5-(hydroxymethyl)tetrahydrofuran-2-yl]-3,5,7-triazabicyclo[4.3.0]nona-2,4,8,10-tetraene-9-carbonitrile
@<TRIPOS>ATOM
      1 C1          1.9923    4.2499   -1.9184 C.2       1 <0>         0.1377
      2 C2          1.4678    4.7701   -3.0641 C.2       1 <0>        -0.0952
      3 C3          0.0142    4.5583   -2.9868 C.ar      1 <0>        -0.2325
      4 C4         -1.0763    4.8499   -3.8158 C.ar      1 <0>         0.4934
      5 N1         -2.2907    4.4844   -3.4139 N.ar      1 <0>        -0.5912
      6 C5         -2.4679    3.8731   -2.2568 C.ar      1 <0>         0.3676
      7 N2         -1.4727    3.5845   -1.4464 N.ar      1 <0>        -0.5479
      8 C6         -0.2194    3.9037   -1.7667 C.ar      1 <0>         0.3662
      9 N3          0.9930    3.7403   -1.1489 N.pl3     1 <0>        -0.4457
     10 C7          1.1863    3.1005    0.1547 C.3       1 <0>         0.3096
     11 H1          0.3784    3.3652    0.8369 H         1 <0>         0.1281
     12 C8          1.2864    1.5618   -0.0018 C.3       1 <0>         0.0775
     13 H2          1.8286    1.2970   -0.9096 H         1 <0>         0.0913
     14 C9          2.0897    1.1591    1.2588 C.3       1 <0>         0.0437
     15 H3          2.8180    0.3852    1.0160 H         1 <0>         0.0884
     16 C10         2.8033    2.4574    1.6827 C.3       1 <0>         0.0530
     17 H4          2.4628    2.7612    2.6726 H         1 <0>         0.1001
     18 O1          2.4656    3.4659    0.7156 O.3       1 <0>        -0.3490
     19 C11         4.3173    2.2377    1.6981 C.3       1 <0>         0.0764
     20 O2          4.9633    3.4081    2.2030 O.3       1 <0>        -0.5630
     21 O3          1.2089    0.7123    2.2916 O.3       1 <0>        -0.5363
     22 O4         -0.0110    0.9628    0.0073 O.3       1 <0>        -0.5190
     23 N4         -0.8934    5.4890   -5.0294 N.pl3     1 <0>        -0.8263
     24 C12         2.1886    5.3970   -4.1309 C.1       1 <0>         0.2804
     25 N5          2.7604    5.8944   -4.9771 N.1       1 <0>        -0.4158
     26 H5          3.0411    4.2437   -1.6607 H         1 <0>         0.1948
     27 H6         -3.4706    3.5987   -1.9641 H         1 <0>         0.2052
     28 H7          4.5545    1.3874    2.3375 H         1 <0>         0.0664
     29 H8          4.6660    2.0388    0.6847 H         1 <0>         0.0589
     30 H9          5.9272    3.3399    2.2411 H         1 <0>         0.3863
     31 H10         1.6593    0.4472    3.1052 H         1 <0>         0.3871
     32 H11         0.0021   -0.0041    0.0020 H         1 <0>         0.3877
     33 H12        -0.0014    5.7408   -5.3153 H         1 <0>         0.4095
     34 H13        -1.6572    5.6851   -5.5942 H         1 <0>         0.4127
@<TRIPOS>BOND
     1    1    9 1
     2    1    2 2
     3    1   26 1
     4    2    3 1
     5    2   24 1
     6    3    8 ar
     7    3    4 ar
     8    4    5 ar
     9    4   23 1
    10    5    6 ar
    11    6    7 ar
    12    6   27 1
    13    7    8 ar
    14    8    9 1
    15    9   10 1
    16   10   11 1
    17   10   18 1
    18   10   12 1
    19   12   13 1
    20   12   14 1
    21   12   22 1
    22   14   15 1
    23   14   16 1
    24   14   21 1
    25   16   17 1
    26   16   18 1
    27   16   19 1
    28   19   20 1
    29   19   28 1
    30   19   29 1
    31   20   30 1
    32   21   31 1
    33   22   32 1
    34   23   33 1
    35   23   34 1
    36   24   25 3
