@<TRIPOS>MOLECULE
ZINC01567835
   45    47     0     0     0
SMALL
USER_CHARGES
1-(9H-carbazol-4-yloxy)-3-isopropylamino-propan-2-ol
@<TRIPOS>ATOM
      1 C1         -3.0466   12.3795    1.8135 C.3       1 <0>        -0.1849
      2 C2         -2.8015   12.0824    0.3328 C.3       1 <0>         0.0273
      3 C3         -1.9473   13.1960   -0.2763 C.3       1 <0>        -0.1861
      4 C4         -3.0481    9.6771    0.2037 C.3       1 <0>        -0.0384
      5 C5         -2.2814    8.3604    0.0645 C.3       1 <0>         0.0854
      6 H1         -1.5891    8.2531    0.8995 H         1 <0>         0.1352
      7 C6         -3.2694    7.1922    0.0678 C.3       1 <0>         0.0283
      8 O1         -2.5484    5.9585    0.0552 O.3       1 <0>        -0.2957
      9 C7         -3.2822    4.8152    0.0563 C.ar      1 <0>         0.1788
     10 C8         -4.6648    4.8764    0.0688 C.ar      1 <0>        -0.2456
     11 C9         -5.4134    3.7110    0.0699 C.ar      1 <0>        -0.0444
     12 C10        -4.7947    2.4789    0.0578 C.ar      1 <0>        -0.1709
     13 C11        -3.4054    2.3942    0.0452 C.ar      1 <0>         0.1820
     14 C12        -2.6448    3.5722    0.0444 C.ar      1 <0>        -0.1299
     15 C13        -1.2304    3.1574    0.0299 C.ar      1 <0>        -0.0926
     16 C14        -0.0259    3.8573    0.0221 C.ar      1 <0>        -0.0606
     17 C15         1.1670    3.1672    0.0075 C.ar      1 <0>        -0.1467
     18 C16         1.1718    1.7807    0.0004 C.ar      1 <0>        -0.0825
     19 C17        -0.0126    1.0758    0.0080 C.ar      1 <0>        -0.1380
     20 C18        -1.2272    1.7547    0.0174 C.ar      1 <0>         0.1337
     21 N1         -2.5393    1.3156    0.0321 N.pl3     1 <0>        -0.6120
     22 H2         -2.8127    0.3849    0.0293 H         1 <0>         0.4227
     23 O2         -1.5503    8.3624   -1.1633 O.3       1 <0>        -0.5432
     24 H3         -3.5675   13.3319    1.9116 H         1 <0>         0.1074
     25 H4         -3.6552   11.5861    2.2474 H         1 <0>         0.0796
     26 H5         -2.0916   12.4321    2.3364 H         1 <0>         0.0835
     27 H6         -3.7565   12.0297   -0.1901 H         1 <0>         0.1381
     28 H7         -1.7727   12.9843   -1.3312 H         1 <0>         0.0826
     29 H8         -2.4682   14.1484   -0.1782 H         1 <0>         0.1076
     30 H9         -0.9923   13.2486    0.2466 H         1 <0>         0.0831
     31 H10        -3.7404    9.7844   -0.6313 H         1 <0>         0.1385
     32 H11        -3.6058    9.6756    1.1402 H         1 <0>         0.1448
     33 H12        -3.9045    7.2509   -0.8161 H         1 <0>         0.0780
     34 H13        -3.8882    7.2422    0.9638 H         1 <0>         0.0827
     35 H14        -5.1613    5.8355    0.0780 H         1 <0>         0.1277
     36 H15        -6.4919    3.7680    0.0801 H         1 <0>         0.1353
     37 H16        -5.3894    1.5774    0.0585 H         1 <0>         0.1306
     38 H17        -0.0269    4.9373    0.0279 H         1 <0>         0.1252
     39 H18         2.1016    3.7084    0.0011 H         1 <0>         0.1276
     40 H19         2.1115    1.2485   -0.0114 H         1 <0>         0.1321
     41 H20         0.0021   -0.0041    0.0020 H         1 <0>         0.1272
     42 H21        -2.1040    8.4548   -1.9506 H         1 <0>         0.3900
     43 N2         -2.0888   10.7978    0.1996 N.4       1 <0>        -0.5132
     44 H22        -1.4374   10.6888    0.9857 H         1 <0>         0.4331
     45 H23        -1.5643   10.7914   -0.6830 H         1 <0>         0.4366
@<TRIPOS>BOND
     1    1    2 1
     2    1   24 1
     3    1   25 1
     4    1   26 1
     5    2    3 1
     6    2   27 1
     7    2   43 1
     8    3   28 1
     9    3   29 1
    10    3   30 1
    11    4    5 1
    12    4   31 1
    13    4   32 1
    14    4   43 1
    15    5    6 1
    16    5    7 1
    17    5   23 1
    18    7    8 1
    19    7   33 1
    20    7   34 1
    21    8    9 1
    22    9   14 ar
    23    9   10 ar
    24   10   11 ar
    25   10   35 1
    26   11   12 ar
    27   11   36 1
    28   12   13 ar
    29   12   37 1
    30   13   21 1
    31   13   14 ar
    32   14   15 1
    33   15   20 ar
    34   15   16 ar
    35   16   17 ar
    36   16   38 1
    37   17   18 ar
    38   17   39 1
    39   18   19 ar
    40   18   40 1
    41   19   20 ar
    42   19   41 1
    43   20   21 1
    44   21   22 1
    45   23   42 1
    46   43   44 1
    47   43   45 1
@<TRIPOS>MOLECULE
ZINC01999243
   45    47     0     0     0
SMALL
USER_CHARGES
1-(9H-carbazol-4-yloxy)-3-isopropylamino-propan-2-ol
@<TRIPOS>ATOM
      1 C1         -2.7444    0.9900   -3.4788 C.3       1 <0>        -0.1844
      2 C2         -2.9101    1.9938   -2.3360 C.3       1 <0>         0.0271
      3 C3         -4.3931    2.1248   -1.9833 C.3       1 <0>        -0.1862
      4 C4         -0.7573    1.9316   -1.2297 C.3       1 <0>        -0.0383
      5 C5         -0.0173    1.4248    0.0099 C.3       1 <0>         0.0856
      6 H1         -0.5275    1.7763    0.9067 H         1 <0>         0.1344
      7 C6          1.4181    1.9544   -0.0010 C.3       1 <0>         0.0283
      8 O1          2.0737    1.5785    1.2119 O.3       1 <0>        -0.2957
      9 C7          3.3648    1.9732    1.3630 C.ar      1 <0>         0.1788
     10 C8          3.9889    2.7057    0.3682 C.ar      1 <0>        -0.2456
     11 C9          5.3053    3.1083    0.5219 C.ar      1 <0>        -0.0444
     12 C10         6.0093    2.7870    1.6630 C.ar      1 <0>        -0.1709
     13 C11         5.4012    2.0508    2.6757 C.ar      1 <0>         0.1820
     14 C12         4.0670    1.6467    2.5257 C.ar      1 <0>        -0.1299
     15 C13         3.7180    0.8935    3.7437 C.ar      1 <0>        -0.0926
     16 C14         2.5595    0.2510    4.1748 C.ar      1 <0>        -0.0606
     17 C15         2.5413   -0.3782    5.4009 C.ar      1 <0>        -0.1467
     18 C16         3.6709   -0.3740    6.2049 C.ar      1 <0>        -0.0825
     19 C17         4.8236    0.2578    5.7907 C.ar      1 <0>        -0.1380
     20 C18         4.8614    0.8990    4.5563 C.ar      1 <0>         0.1337
     21 N1          5.8595    1.5971    3.8996 N.pl3     1 <0>        -0.6121
     22 H2          6.7524    1.7472    4.2477 H         1 <0>         0.4227
     23 O2          0.0021   -0.0041    0.0020 O.3       1 <0>        -0.5426
     24 H3         -3.2961    1.3390   -4.3517 H         1 <0>         0.1073
     25 H4         -1.6879    0.8967   -3.7301 H         1 <0>         0.0788
     26 H5         -3.1313    0.0193   -3.1687 H         1 <0>         0.0836
     27 H6         -2.5233    2.9645   -2.6461 H         1 <0>         0.1384
     28 H7         -4.5112    2.8399   -1.1692 H         1 <0>         0.0828
     29 H8         -4.9448    2.4738   -2.8563 H         1 <0>         0.1077
     30 H9         -4.7800    1.1541   -1.6732 H         1 <0>         0.0831
     31 H10        -0.6956    3.0191   -1.2703 H         1 <0>         0.1450
     32 H11        -0.3004    1.5081   -2.1241 H         1 <0>         0.1383
     33 H12         1.9549    1.5316   -0.8502 H         1 <0>         0.0781
     34 H13         1.4038    3.0411   -0.0846 H         1 <0>         0.0825
     35 H14         3.4482    2.9637   -0.5303 H         1 <0>         0.1277
     36 H15         5.7846    3.6796   -0.2594 H         1 <0>         0.1353
     37 H16         7.0351    3.1071    1.7711 H         1 <0>         0.1306
     38 H17         1.6785    0.2460    3.5502 H         1 <0>         0.1252
     39 H18         1.6437   -0.8762    5.7368 H         1 <0>         0.1276
     40 H19         3.6471   -0.8697    7.1641 H         1 <0>         0.1321
     41 H20         5.6979    0.2556    6.4247 H         1 <0>         0.1272
     42 H21         0.4417   -0.3872   -0.7693 H         1 <0>         0.3902
     43 N2         -2.1710    1.5178   -1.1515 N.4       1 <0>        -0.5138
     44 H22        -2.2221    0.4931   -1.1096 H         1 <0>         0.4364
     45 H23        -2.5943    1.9165   -0.3053 H         1 <0>         0.4336
@<TRIPOS>BOND
     1    1    2 1
     2    1   24 1
     3    1   25 1
     4    1   26 1
     5    2    3 1
     6    2   27 1
     7    2   43 1
     8    3   28 1
     9    3   29 1
    10    3   30 1
    11    4    5 1
    12    4   31 1
    13    4   32 1
    14    4   43 1
    15    5    6 1
    16    5    7 1
    17    5   23 1
    18    7    8 1
    19    7   33 1
    20    7   34 1
    21    8    9 1
    22    9   14 ar
    23    9   10 ar
    24   10   11 ar
    25   10   35 1
    26   11   12 ar
    27   11   36 1
    28   12   13 ar
    29   12   37 1
    30   13   21 1
    31   13   14 ar
    32   14   15 1
    33   15   20 ar
    34   15   16 ar
    35   16   17 ar
    36   16   38 1
    37   17   18 ar
    38   17   39 1
    39   18   19 ar
    40   18   40 1
    41   19   20 ar
    42   19   41 1
    43   20   21 1
    44   21   22 1
    45   23   42 1
    46   43   44 1
    47   43   45 1
