@<TRIPOS>MOLECULE
ZINC00007601
   39    39     0     0     0
SMALL
USER_CHARGES

@<TRIPOS>ATOM
      1 C1         -0.0187    1.5258    0.0104 C.3       1 <0>        -0.1795
      2 C2          0.0021   -0.0041    0.0020 C.3       1 <0>         0.0547
      3 C3          0.7421   -0.5109    1.2415 C.3       1 <0>        -0.1790
      4 C4         -1.4333   -0.5336    0.0129 C.3       1 <0>        -0.1771
      5 N1          0.6897   -0.4778   -1.2066 N.4       1 <0>        -0.4997
      6 C5          2.0678    0.0307   -1.2170 C.3       1 <0>        -0.0516
      7 C6          2.7840   -0.4628   -2.4758 C.3       1 <0>         0.1393
      8 H1          2.2568   -0.1017   -3.3589 H         1 <0>         0.1317
      9 C7          4.1978    0.0589   -2.4865 C.ar      1 <0>        -0.1541
     10 C8          5.1927   -0.6298   -1.8171 C.ar      1 <0>        -0.0900
     11 C9          6.4892   -0.1536   -1.8250 C.ar      1 <0>        -0.1372
     12 C10         6.7930    1.0166   -2.5058 C.ar      1 <0>         0.1330
     13 C11         5.7933    1.7053   -3.1769 C.ar      1 <0>        -0.1101
     14 C12         4.4990    1.2220   -3.1703 C.ar      1 <0>        -0.0625
     15 C13         6.1198    2.9767   -3.9173 C.3       1 <0>         0.1175
     16 O1          4.9328    3.4942   -4.5216 O.3       1 <0>        -0.5755
     17 O2          8.0678    1.4875   -2.5147 O.3       1 <0>        -0.4942
     18 O3          2.8033   -1.8916   -2.4837 O.3       1 <0>        -0.5478
     19 H2          1.0039    1.9031    0.0027 H         1 <0>         0.0817
     20 H3         -0.5459    1.8868   -0.8726 H         1 <0>         0.0833
     21 H4         -0.5289    1.8773    0.9072 H         1 <0>         0.1062
     22 H5          0.2319   -0.1594    2.1383 H         1 <0>         0.1064
     23 H6          0.7568   -1.6008    1.2356 H         1 <0>         0.0827
     24 H7          1.7647   -0.1336    1.2338 H         1 <0>         0.0810
     25 H8         -1.9605   -0.1726   -0.8702 H         1 <0>         0.0829
     26 H9         -1.4185   -1.6235    0.0069 H         1 <0>         0.0826
     27 H10        -1.9435   -0.1821    0.9097 H         1 <0>         0.1067
     28 H11         0.7033   -1.4867   -1.2121 H         1 <0>         0.4297
     29 H12         2.0530    1.1205   -1.2110 H         1 <0>         0.1464
     30 H13         2.5950   -0.3304   -0.3340 H         1 <0>         0.1385
     31 H14         4.9557   -1.5406   -1.2873 H         1 <0>         0.1274
     32 H15         7.2657   -0.6914   -1.3014 H         1 <0>         0.1402
     33 H16         3.7211    1.7557   -3.6960 H         1 <0>         0.1418
     34 H17         6.5218    3.7108   -3.2190 H         1 <0>         0.0705
     35 H18         6.8594    2.7673   -4.6901 H         1 <0>         0.0653
     36 H19         5.0686    4.3140   -5.0162 H         1 <0>         0.3931
     37 H20         8.6046    1.1555   -3.2473 H         1 <0>         0.4010
     38 H21         3.2576   -2.2830   -1.7250 H         1 <0>         0.3872
     39 H22         0.2017   -0.1436   -2.0240 H         1 <0>         0.4274
@<TRIPOS>BOND
     1    1    2 1
     2    1   19 1
     3    1   20 1
     4    1   21 1
     5    2    3 1
     6    2    4 1
     7    2    5 1
     8    3   22 1
     9    3   23 1
    10    3   24 1
    11    4   25 1
    12    4   26 1
    13    4   27 1
    14    5    6 1
    15    5   28 1
    16    5   39 1
    17    6    7 1
    18    6   29 1
    19    6   30 1
    20    7    8 1
    21    7    9 1
    22    7   18 1
    23    9   14 ar
    24    9   10 ar
    25   10   11 ar
    26   10   31 1
    27   11   12 ar
    28   11   32 1
    29   12   13 ar
    30   12   17 1
    31   13   14 ar
    32   13   15 1
    33   14   33 1
    34   15   16 1
    35   15   34 1
    36   15   35 1
    37   16   36 1
    38   17   37 1
    39   18   38 1
@<TRIPOS>MOLECULE
ZINC00020230
   39    39     0     0     0
SMALL
USER_CHARGES

@<TRIPOS>ATOM
      1 C1         -0.0187    1.5258    0.0104 C.3       1 <0>        -0.1787
      2 C2          0.0021   -0.0041    0.0020 C.3       1 <0>         0.0546
      3 C3          0.7421   -0.5109    1.2415 C.3       1 <0>        -0.1792
      4 C4         -1.4333   -0.5336    0.0129 C.3       1 <0>        -0.1773
      5 N1          0.6897   -0.4778   -1.2066 N.4       1 <0>        -0.5004
      6 C5          2.0678    0.0307   -1.2170 C.3       1 <0>        -0.0513
      7 C6          2.7840   -0.4628   -2.4758 C.3       1 <0>         0.1392
      8 H1          2.7213   -1.5498   -2.5270 H         1 <0>         0.1306
      9 C7          4.2310   -0.0447   -2.4270 C.ar      1 <0>        -0.1535
     10 C8          4.5878    1.2478   -2.7654 C.ar      1 <0>        -0.0912
     11 C9          5.9135    1.6333   -2.7219 C.ar      1 <0>        -0.1372
     12 C10         6.8874    0.7227   -2.3379 C.ar      1 <0>         0.1331
     13 C11         6.5268   -0.5731   -1.9985 C.ar      1 <0>        -0.1099
     14 C12         5.1988   -0.9523   -2.0387 C.ar      1 <0>        -0.0618
     15 C13         7.5820   -1.5647   -1.5811 C.3       1 <0>         0.1175
     16 O1          6.9657   -2.8193   -1.2841 O.3       1 <0>        -0.5755
     17 O2          8.1924    1.0994   -2.2948 O.3       1 <0>        -0.4926
     18 O3          2.1628    0.1050   -3.6307 O.3       1 <0>        -0.5467
     19 H2          1.0039    1.9031    0.0027 H         1 <0>         0.0806
     20 H3         -0.5459    1.8868   -0.8726 H         1 <0>         0.0829
     21 H4         -0.5289    1.8773    0.9072 H         1 <0>         0.1062
     22 H5          0.2319   -0.1594    2.1383 H         1 <0>         0.1061
     23 H6          0.7568   -1.6008    1.2356 H         1 <0>         0.0834
     24 H7          1.7647   -0.1336    1.2338 H         1 <0>         0.0814
     25 H8         -1.9605   -0.1726   -0.8702 H         1 <0>         0.0828
     26 H9         -1.4185   -1.6235    0.0069 H         1 <0>         0.0829
     27 H10        -1.9435   -0.1821    0.9097 H         1 <0>         0.1067
     28 H11         0.7033   -1.4867   -1.2121 H         1 <0>         0.4274
     29 H12         2.0530    1.1205   -1.2110 H         1 <0>         0.1383
     30 H13         2.5950   -0.3304   -0.3340 H         1 <0>         0.1459
     31 H14         3.8294    1.9562   -3.0643 H         1 <0>         0.1271
     32 H15         6.1917    2.6426   -2.9870 H         1 <0>         0.1403
     33 H16         4.9170   -1.9598   -1.7706 H         1 <0>         0.1419
     34 H17         8.2991   -1.6949   -2.3915 H         1 <0>         0.0714
     35 H18         8.0981   -1.1947   -0.6951 H         1 <0>         0.0645
     36 H19         7.5868   -3.5070   -1.0077 H         1 <0>         0.3931
     37 H20         8.4705    1.4570   -1.4404 H         1 <0>         0.3993
     38 H21         2.1814    1.0716   -3.6522 H         1 <0>         0.3876
     39 H22         0.2017   -0.1436   -2.0240 H         1 <0>         0.4304
@<TRIPOS>BOND
     1    1    2 1
     2    1   19 1
     3    1   20 1
     4    1   21 1
     5    2    3 1
     6    2    4 1
     7    2    5 1
     8    3   22 1
     9    3   23 1
    10    3   24 1
    11    4   25 1
    12    4   26 1
    13    4   27 1
    14    5    6 1
    15    5   28 1
    16    5   39 1
    17    6    7 1
    18    6   29 1
    19    6   30 1
    20    7    8 1
    21    7    9 1
    22    7   18 1
    23    9   14 ar
    24    9   10 ar
    25   10   11 ar
    26   10   31 1
    27   11   12 ar
    28   11   32 1
    29   12   13 ar
    30   12   17 1
    31   13   14 ar
    32   13   15 1
    33   14   33 1
    34   15   16 1
    35   15   34 1
    36   15   35 1
    37   16   36 1
    38   17   37 1
    39   18   38 1
