@<TRIPOS>MOLECULE
ZINC00057624
   24    24     0     0     0
SMALL
USER_CHARGES

@<TRIPOS>ATOM
      1 C1         -0.0167    1.3779    0.0096 C.ar      1 <0>        -0.0981
      2 C2          1.1696    2.0886    0.0021 C.ar      1 <0>        -0.1236
      3 C3          2.3802    1.4154   -0.0130 C.ar      1 <0>         0.1055
      4 C4          2.3990    0.0236   -0.0206 C.ar      1 <0>         0.0900
      5 C5          1.2071   -0.6822   -0.0130 C.ar      1 <0>        -0.1137
      6 C6          0.0021   -0.0041    0.0020 C.ar      1 <0>        -0.1399
      7 C7         -1.2936   -0.7736    0.0102 C.3       1 <0>         0.1354
      8 H1         -1.1263   -1.7622    0.4376 H         1 <0>         0.1339
      9 C8         -1.8100   -0.9182   -1.4228 C.3       1 <0>        -0.0430
     10 N1         -3.0730   -1.6683   -1.4148 N.4       1 <0>        -0.6330
     11 O1         -2.2593   -0.0721    0.7960 O.3       1 <0>        -0.5475
     12 O2          3.5850   -0.6417   -0.0359 O.3       1 <0>        -0.4846
     13 O3          3.5476    2.1129   -0.0209 O.3       1 <0>        -0.4848
     14 H2         -0.9598    1.9038    0.0259 H         1 <0>         0.1309
     15 H3          1.1522    3.1684    0.0077 H         1 <0>         0.1437
     16 H4          1.2190   -1.7621   -0.0189 H         1 <0>         0.1389
     17 H5         -1.9772    0.0704   -1.8502 H         1 <0>         0.1398
     18 H6         -1.0734   -1.4533   -2.0221 H         1 <0>         0.1477
     19 H7         -2.9181   -2.5835   -1.0191 H         1 <0>         0.4371
     20 H8         -3.7548   -1.1730   -0.8600 H         1 <0>         0.4387
     21 H9         -2.4578    0.8175    0.4731 H         1 <0>         0.3897
     22 H10         3.9367   -0.8389    0.8430 H         1 <0>         0.3974
     23 H11         3.8938    2.3101    0.8602 H         1 <0>         0.3992
     24 H12        -3.4135   -1.7637   -2.3598 H         1 <0>         0.4402
@<TRIPOS>BOND
     1    1    6 ar
     2    1    2 ar
     3    1   14 1
     4    2    3 ar
     5    2   15 1
     6    3    4 ar
     7    3   13 1
     8    4    5 ar
     9    4   12 1
    10    5    6 ar
    11    5   16 1
    12    6    7 1
    13    7    8 1
    14    7    9 1
    15    7   11 1
    16    9   10 1
    17    9   17 1
    18    9   18 1
    19   10   19 1
    20   10   20 1
    21   10   24 1
    22   11   21 1
    23   12   22 1
    24   13   23 1
@<TRIPOS>MOLECULE
ZINC03331413
   49    51     0     0     0
SMALL
USER_CHARGES
1-fluoren-9-ylideneaminooxy-3-tert-butylamino-propan-2-ol
@<TRIPOS>ATOM
      1 C1          0.0021   -0.0041    0.0020 C.3       1 <0>        -0.1782
      2 C2         -0.0187    1.5258    0.0104 C.3       1 <0>         0.0586
      3 C3          1.4167    2.0553   -0.0004 C.3       1 <0>        -0.1787
      4 C4         -0.7587    2.0326   -1.2291 C.3       1 <0>        -0.1778
      5 C5         -0.0222    1.5311    2.4317 C.3       1 <0>        -0.0437
      6 C6         -0.7658    2.0433    3.6669 C.3       1 <0>         0.0879
      7 H1         -0.8581    3.1280    3.6115 H         1 <0>         0.1318
      8 C7          0.0143    1.6615    4.9265 C.3       1 <0>         0.0440
      9 O1         -0.6173    2.2388    6.0711 O.3       1 <0>        -0.2214
     10 N1          0.0298    1.9443    7.2957 N.2       1 <0>        -0.3114
     11 C8         -0.4473    2.4117    8.4126 C.2       1 <0>         0.2391
     12 C9         -1.6478    3.2668    8.5695 C.ar      1 <0>        -0.1175
     13 C10        -2.5534    3.7870    7.6511 C.ar      1 <0>        -0.0616
     14 C11        -3.6036    4.5718    8.0880 C.ar      1 <0>        -0.1207
     15 C12        -3.7590    4.8430    9.4361 C.ar      1 <0>        -0.0917
     16 C13        -2.8730    4.3256   10.3614 C.ar      1 <0>        -0.0944
     17 C14        -1.8059    3.5375    9.9383 C.ar      1 <0>        -0.0321
     18 C15        -0.7107    2.8746   10.6836 C.ar      1 <0>        -0.0326
     19 C16         0.1101    2.1954    9.7689 C.ar      1 <0>        -0.0691
     20 C17         1.2179    1.4885   10.2241 C.ar      1 <0>        -0.0631
     21 C18         1.5069    1.4560   11.5750 C.ar      1 <0>        -0.1151
     22 C19         0.6993    2.1247   12.4781 C.ar      1 <0>        -0.0906
     23 C20        -0.4043    2.8316   12.0412 C.ar      1 <0>        -0.0922
     24 O2         -2.0677    1.4563    3.7166 O.3       1 <0>        -0.5451
     25 H2          0.5293   -0.3651    0.8851 H         1 <0>         0.0803
     26 H3         -1.0205   -0.3814    0.0098 H         1 <0>         0.0829
     27 H4          0.5123   -0.3556   -0.8948 H         1 <0>         0.1066
     28 H5          1.9269    1.7038   -0.8972 H         1 <0>         0.1067
     29 H6          1.4019    3.1452    0.0056 H         1 <0>         0.0830
     30 H7          1.9439    1.6943    0.8826 H         1 <0>         0.0808
     31 H8         -1.7813    1.6553   -1.2214 H         1 <0>         0.0830
     32 H9         -0.7734    3.1225   -1.2231 H         1 <0>         0.0829
     33 H10        -0.2485    1.6811   -2.1259 H         1 <0>         0.1072
     34 H11        -0.0074    0.4412    2.4425 H         1 <0>         0.1407
     35 H12         1.0004    1.9084    2.4408 H         1 <0>         0.1464
     36 H13         0.0304    0.5765    5.0290 H         1 <0>         0.0731
     37 H14         1.0356    2.0343    4.8484 H         1 <0>         0.0774
     38 H15        -2.4358    3.5782    6.5980 H         1 <0>         0.1303
     39 H16        -4.3066    4.9750    7.3741 H         1 <0>         0.1328
     40 H17        -4.5829    5.4573    9.7679 H         1 <0>         0.1356
     41 H18        -3.0004    4.5436   11.4115 H         1 <0>         0.1337
     42 H19         1.8509    0.9650    9.5229 H         1 <0>         0.1325
     43 H20         2.3670    0.9062   11.9277 H         1 <0>         0.1373
     44 H21         0.9332    2.0935   13.5320 H         1 <0>         0.1374
     45 H22        -1.0293    3.3510   12.7526 H         1 <0>         0.1348
     46 H23        -2.0621    0.4906    3.7670 H         1 <0>         0.3906
     47 N2         -0.7151    2.0056    1.2190 N.4       1 <0>        -0.5085
     48 H24        -1.6784    1.6501    1.2184 H         1 <0>         0.4359
     49 H25        -0.7292    3.0322    1.2167 H         1 <0>         0.4321
@<TRIPOS>BOND
     1    1    2 1
     2    1   25 1
     3    1   26 1
     4    1   27 1
     5    2    3 1
     6    2    4 1
     7    2   47 1
     8    3   28 1
     9    3   29 1
    10    3   30 1
    11    4   31 1
    12    4   32 1
    13    4   33 1
    14    5    6 1
    15    5   34 1
    16    5   35 1
    17    5   47 1
    18    6    7 1
    19    6    8 1
    20    6   24 1
    21    8    9 1
    22    8   36 1
    23    8   37 1
    24    9   10 1
    25   10   11 2
    26   11   19 1
    27   11   12 1
    28   12   17 ar
    29   12   13 ar
    30   13   14 ar
    31   13   38 1
    32   14   15 ar
    33   14   39 1
    34   15   16 ar
    35   15   40 1
    36   16   17 ar
    37   16   41 1
    38   17   18 1
    39   18   23 ar
    40   18   19 ar
    41   19   20 ar
    42   20   21 ar
    43   20   42 1
    44   21   22 ar
    45   21   43 1
    46   22   23 ar
    47   22   44 1
    48   23   45 1
    49   24   46 1
    50   47   48 1
    51   47   49 1
@<TRIPOS>MOLECULE
ZINC00000023
   42    42     0     0     0
SMALL
USER_CHARGES

@<TRIPOS>ATOM
      1 C1         -0.0187    1.5258    0.0104 C.3       1 <0>        -0.1863
      2 C2          0.0021   -0.0041    0.0020 C.3       1 <0>         0.0237
      3 C3         -1.4333   -0.5336    0.0129 C.3       1 <0>        -0.1853
      4 N1          0.6897   -0.4778   -1.2066 N.4       1 <0>        -0.5024
      5 C4          2.1002   -0.0703   -1.1590 C.3       1 <0>        -0.0456
      6 C5          2.8163   -0.5637   -2.4178 C.3       1 <0>         0.0870
      7 H1          2.6781   -1.6404   -2.5160 H         1 <0>         0.1342
      8 C6          4.3098   -0.2489   -2.3115 C.3       1 <0>         0.0292
      9 O1          4.9962   -0.8116   -3.4314 O.3       1 <0>        -0.2974
     10 C7          6.3406   -0.6217   -3.4901 C.ar      1 <0>         0.1193
     11 C8          6.9868    0.0868   -2.4873 C.ar      1 <0>        -0.2066
     12 C9          8.3533    0.2781   -2.5491 C.ar      1 <0>        -0.0839
     13 C10         9.0774   -0.2360   -3.6092 C.ar      1 <0>        -0.1431
     14 C11         8.4358   -0.9419   -4.6098 C.ar      1 <0>        -0.0755
     15 C12         7.0699   -1.1408   -4.5497 C.ar      1 <0>        -0.0997
     16 C13         6.3721   -1.9158   -5.6376 C.3       1 <0>        -0.0468
     17 C14         5.8306   -0.9586   -6.6680 C.2       1 <0>        -0.1491
     18 C15         6.1568   -1.1001   -7.9288 C.2       1 <0>        -0.1878
     19 O2          2.2715    0.0930   -3.5641 O.3       1 <0>        -0.5421
     20 H2          1.0039    1.9031    0.0027 H         1 <0>         0.0795
     21 H3         -0.5459    1.8868   -0.8726 H         1 <0>         0.0834
     22 H4         -0.5289    1.8773    0.9072 H         1 <0>         0.1079
     23 H5          0.5293   -0.3651    0.8851 H         1 <0>         0.1397
     24 H6         -1.9605   -0.1726   -0.8702 H         1 <0>         0.0829
     25 H7         -1.4185   -1.6235    0.0069 H         1 <0>         0.0831
     26 H8         -1.9435   -0.1821    0.9097 H         1 <0>         0.1083
     27 H9          0.6317   -1.4840   -1.2540 H         1 <0>         0.4304
     28 H10         2.1628    1.0167   -1.1079 H         1 <0>         0.1406
     29 H11         2.5740   -0.5034   -0.2781 H         1 <0>         0.1458
     30 H12         4.4536    0.8316   -2.3027 H         1 <0>         0.0758
     31 H13         4.7064   -0.6757   -1.3903 H         1 <0>         0.0803
     32 H14         6.4217    0.4888   -1.6594 H         1 <0>         0.1233
     33 H15         8.8567    0.8298   -1.7690 H         1 <0>         0.1280
     34 H16        10.1458   -0.0853   -3.6557 H         1 <0>         0.1296
     35 H17         9.0035   -1.3420   -5.4369 H         1 <0>         0.1335
     36 H18         7.0803   -2.5962   -6.1105 H         1 <0>         0.0781
     37 H19         5.5508   -2.4882   -5.2064 H         1 <0>         0.0827
     38 H20         5.1735   -0.1561   -6.3669 H         1 <0>         0.1060
     39 H21         6.8138   -1.9026   -8.2298 H         1 <0>         0.0984
     40 H22         5.7687   -0.4141   -8.6672 H         1 <0>         0.0994
     41 H23         2.3595    1.0558   -3.5447 H         1 <0>         0.3897
     42 H24         0.2511   -0.0769   -2.0221 H         1 <0>         0.4317
@<TRIPOS>BOND
     1    1    2 1
     2    1   20 1
     3    1   21 1
     4    1   22 1
     5    2    3 1
     6    2    4 1
     7    2   23 1
     8    3   24 1
     9    3   25 1
    10    3   26 1
    11    4    5 1
    12    4   27 1
    13    4   42 1
    14    5    6 1
    15    5   28 1
    16    5   29 1
    17    6    7 1
    18    6    8 1
    19    6   19 1
    20    8    9 1
    21    8   30 1
    22    8   31 1
    23    9   10 1
    24   10   15 ar
    25   10   11 ar
    26   11   12 ar
    27   11   32 1
    28   12   13 ar
    29   12   33 1
    30   13   14 ar
    31   13   34 1
    32   14   15 ar
    33   14   35 1
    34   15   16 1
    35   16   17 1
    36   16   36 1
    37   16   37 1
    38   17   18 2
    39   17   38 1
    40   18   39 1
    41   18   40 1
    42   19   41 1
@<TRIPOS>MOLECULE
ZINC00086599
   42    42     0     0     0
SMALL
USER_CHARGES

@<TRIPOS>ATOM
      1 C1         -0.0187    1.5258    0.0104 C.3       1 <0>        -0.1867
      2 C2          0.0021   -0.0041    0.0020 C.3       1 <0>         0.0240
      3 C3         -1.4333   -0.5336    0.0129 C.3       1 <0>        -0.1852
      4 N1          0.6897   -0.4778   -1.2066 N.4       1 <0>        -0.5018
      5 C4          2.1002   -0.0703   -1.1590 C.3       1 <0>        -0.0456
      6 C5          2.8163   -0.5637   -2.4178 C.3       1 <0>         0.0868
      7 H1          2.3425   -0.1306   -3.2988 H         1 <0>         0.1350
      8 C6          4.2854   -0.1392   -2.3683 C.3       1 <0>         0.0293
      9 O1          4.9264   -0.4976   -3.5942 O.3       1 <0>        -0.2974
     10 C7          6.2443   -0.1886   -3.7147 C.ar      1 <0>         0.1193
     11 C8          6.9085    0.4413   -2.6719 C.ar      1 <0>        -0.2066
     12 C9          8.2481    0.7538   -2.7966 C.ar      1 <0>        -0.0839
     13 C10         8.9274    0.4394   -3.9595 C.ar      1 <0>        -0.1431
     14 C11         8.2677   -0.1877   -5.0000 C.ar      1 <0>        -0.0756
     15 C12         6.9292   -0.5076   -4.8780 C.ar      1 <0>        -0.0995
     16 C13         6.2123   -1.1969   -6.0102 C.3       1 <0>        -0.0478
     17 C14         5.5240   -0.1679   -6.8695 C.2       1 <0>        -0.1501
     18 C15         5.7643   -0.1225   -8.1565 C.2       1 <0>        -0.1869
     19 O2          2.7343   -1.9888   -2.4849 O.3       1 <0>        -0.5431
     20 H2          1.0039    1.9031    0.0027 H         1 <0>         0.0802
     21 H3         -0.5459    1.8868   -0.8726 H         1 <0>         0.0835
     22 H4         -0.5289    1.8773    0.9072 H         1 <0>         0.1080
     23 H5          0.5293   -0.3651    0.8851 H         1 <0>         0.1392
     24 H6         -1.9605   -0.1726   -0.8702 H         1 <0>         0.0829
     25 H7         -1.4185   -1.6235    0.0069 H         1 <0>         0.0831
     26 H8         -1.9435   -0.1821    0.9097 H         1 <0>         0.1083
     27 H9          0.6317   -1.4840   -1.2540 H         1 <0>         0.4333
     28 H10         2.1628    1.0167   -1.1079 H         1 <0>         0.1470
     29 H11         2.5740   -0.5034   -0.2781 H         1 <0>         0.1393
     30 H12         4.3473    0.9399   -2.2279 H         1 <0>         0.0804
     31 H13         4.7813   -0.6427   -1.5384 H         1 <0>         0.0758
     32 H14         6.3784    0.6873   -1.7637 H         1 <0>         0.1233
     33 H15         8.7655    1.2444   -1.9854 H         1 <0>         0.1280
     34 H16         9.9748    0.6846   -4.0550 H         1 <0>         0.1296
     35 H17         8.8003   -0.4319   -5.9073 H         1 <0>         0.1334
     36 H18         6.9324   -1.7505   -6.6128 H         1 <0>         0.0784
     37 H19         5.4714   -1.8862   -5.6051 H         1 <0>         0.0845
     38 H20         4.8325    0.5322   -6.4243 H         1 <0>         0.1043
     39 H21         6.4557   -0.8226   -8.6017 H         1 <0>         0.0990
     40 H22         5.2710    0.6149   -8.7723 H         1 <0>         0.0994
     41 H23         3.1369   -2.4418   -1.7314 H         1 <0>         0.3897
     42 H24         0.2511   -0.0769   -2.0221 H         1 <0>         0.4286
@<TRIPOS>BOND
     1    1    2 1
     2    1   20 1
     3    1   21 1
     4    1   22 1
     5    2    3 1
     6    2    4 1
     7    2   23 1
     8    3   24 1
     9    3   25 1
    10    3   26 1
    11    4    5 1
    12    4   27 1
    13    4   42 1
    14    5    6 1
    15    5   28 1
    16    5   29 1
    17    6    7 1
    18    6    8 1
    19    6   19 1
    20    8    9 1
    21    8   30 1
    22    8   31 1
    23    9   10 1
    24   10   15 ar
    25   10   11 ar
    26   11   12 ar
    27   11   32 1
    28   12   13 ar
    29   12   33 1
    30   13   14 ar
    31   13   34 1
    32   14   15 ar
    33   14   35 1
    34   15   16 1
    35   16   17 1
    36   16   36 1
    37   16   37 1
    38   17   18 2
    39   17   38 1
    40   18   39 1
    41   18   40 1
    42   19   41 1
@<TRIPOS>MOLECULE
ZINC03331412
   49    51     0     0     0
SMALL
USER_CHARGES

@<TRIPOS>ATOM
      1 C1         -0.0187    1.5258    0.0104 C.3       1 <0>        -0.1798
      2 C2          0.0021   -0.0041    0.0020 C.3       1 <0>         0.0549
      3 C3          0.7421   -0.5109    1.2415 C.3       1 <0>        -0.1794
      4 C4         -1.4333   -0.5336    0.0129 C.3       1 <0>        -0.1774
      5 N1          0.6897   -0.4778   -1.2066 N.4       1 <0>        -0.4977
      6 C5          2.0678    0.0307   -1.2170 C.3       1 <0>        -0.0493
      7 C6          2.7840   -0.4628   -2.4758 C.3       1 <0>         0.0880
      8 H1          2.2568   -0.1017   -3.3589 H         1 <0>         0.1329
      9 C7          4.2193    0.0668   -2.4867 C.3       1 <0>         0.0442
     10 O1          4.8516   -0.2959   -3.7158 O.3       1 <0>        -0.2214
     11 N2          6.1913    0.1489   -3.8275 N.2       1 <0>        -0.3114
     12 C8          6.8780   -0.1175   -4.9004 C.2       1 <0>         0.2392
     13 C9          6.4028   -0.8654   -6.0886 C.ar      1 <0>        -0.1175
     14 C10         5.1838   -1.4606   -6.3946 C.ar      1 <0>        -0.0616
     15 C11         5.0168   -2.1061   -7.6051 C.ar      1 <0>        -0.1207
     16 C12         6.0577   -2.1636   -8.5152 C.ar      1 <0>        -0.0917
     17 C13         7.2745   -1.5772   -8.2257 C.ar      1 <0>        -0.0944
     18 C14         7.4602   -0.9223   -7.0110 C.ar      1 <0>        -0.0321
     19 C15         8.6295   -0.2164   -6.4378 C.ar      1 <0>        -0.0326
     20 C16         8.2819    0.2749   -5.1690 C.ar      1 <0>        -0.0691
     21 C17         9.2150    0.9855   -4.4218 C.ar      1 <0>        -0.0631
     22 C18        10.4799    1.2089   -4.9315 C.ar      1 <0>        -0.1151
     23 C19        10.8232    0.7290   -6.1832 C.ar      1 <0>        -0.0906
     24 C20         9.9101    0.0139   -6.9338 C.ar      1 <0>        -0.0922
     25 O2          2.8033   -1.8916   -2.4837 O.3       1 <0>        -0.5455
     26 H2          1.0039    1.9031    0.0027 H         1 <0>         0.0816
     27 H3         -0.5459    1.8868   -0.8726 H         1 <0>         0.0836
     28 H4         -0.5289    1.8773    0.9072 H         1 <0>         0.1073
     29 H5          0.2319   -0.1594    2.1383 H         1 <0>         0.1073
     30 H6          0.7568   -1.6008    1.2356 H         1 <0>         0.0833
     31 H7          1.7647   -0.1336    1.2338 H         1 <0>         0.0811
     32 H8         -1.9605   -0.1726   -0.8702 H         1 <0>         0.0832
     33 H9         -1.4185   -1.6235    0.0069 H         1 <0>         0.0832
     34 H10        -1.9435   -0.1821    0.9097 H         1 <0>         0.1076
     35 H11         0.7033   -1.4867   -1.2121 H         1 <0>         0.4313
     36 H12         2.0530    1.1205   -1.2110 H         1 <0>         0.1484
     37 H13         2.5950   -0.3304   -0.3340 H         1 <0>         0.1418
     38 H14         4.2068    1.1525   -2.3912 H         1 <0>         0.0778
     39 H15         4.7722   -0.3649   -1.6524 H         1 <0>         0.0730
     40 H16         4.3688   -1.4189   -5.6871 H         1 <0>         0.1303
     41 H17         4.0697   -2.5680   -7.8418 H         1 <0>         0.1328
     42 H18         5.9179   -2.6709   -9.4583 H         1 <0>         0.1356
     43 H19         8.0817   -1.6263   -8.9416 H         1 <0>         0.1337
     44 H20         8.9513    1.3626   -3.4447 H         1 <0>         0.1325
     45 H21        11.2038    1.7609   -4.3504 H         1 <0>         0.1373
     46 H22        11.8140    0.9092   -6.5733 H         1 <0>         0.1374
     47 H23        10.1857   -0.3565   -7.9101 H         1 <0>         0.1348
     48 H24         3.2576   -2.2830   -1.7250 H         1 <0>         0.3902
     49 H25         0.2017   -0.1436   -2.0240 H         1 <0>         0.4284
@<TRIPOS>BOND
     1    1    2 1
     2    1   26 1
     3    1   27 1
     4    1   28 1
     5    2    3 1
     6    2    4 1
     7    2    5 1
     8    3   29 1
     9    3   30 1
    10    3   31 1
    11    4   32 1
    12    4   33 1
    13    4   34 1
    14    5    6 1
    15    5   35 1
    16    5   49 1
    17    6    7 1
    18    6   36 1
    19    6   37 1
    20    7    8 1
    21    7    9 1
    22    7   25 1
    23    9   10 1
    24    9   38 1
    25    9   39 1
    26   10   11 1
    27   11   12 2
    28   12   20 1
    29   12   13 1
    30   13   18 ar
    31   13   14 ar
    32   14   15 ar
    33   14   40 1
    34   15   16 ar
    35   15   41 1
    36   16   17 ar
    37   16   42 1
    38   17   18 ar
    39   17   43 1
    40   18   19 1
    41   19   24 ar
    42   19   20 ar
    43   20   21 ar
    44   21   22 ar
    45   21   44 1
    46   22   23 ar
    47   22   45 1
    48   23   24 ar
    49   23   46 1
    50   24   47 1
    51   25   48 1
@<TRIPOS>MOLECULE
ZINC00405262
   31    31     0     0     0
SMALL
USER_CHARGES
1-(3,4-dichlorophenyl)-2-isopropylamino-ethanol
@<TRIPOS>ATOM
      1 C1         -0.0589    6.1653   -3.4138 C.3       1 <0>        -0.1848
      2 C2          1.3339    6.1160   -2.7826 C.3       1 <0>         0.0270
      3 C3          1.9227    7.5274   -2.7354 C.3       1 <0>        -0.1858
      4 C4          1.2549    4.1122   -1.4256 C.3       1 <0>        -0.0402
      5 C5          1.1497    3.5933    0.0099 C.3       1 <0>         0.1365
      6 H1          0.2175    3.9414    0.4546 H         1 <0>         0.1361
      7 C6          1.1707    2.0865    0.0021 C.ar      1 <0>        -0.1286
      8 C7          2.3777    1.4123   -0.0130 C.ar      1 <0>        -0.0907
      9 C8          2.3983    0.0305   -0.0206 C.ar      1 <0>        -0.0898
     10 C9          1.2107   -0.6791   -0.0131 C.ar      1 <0>        -0.0180
     11 C10         0.0021   -0.0041    0.0020 C.ar      1 <0>        -0.0301
     12 C11        -0.0167    1.3792    0.0096 C.ar      1 <0>        -0.0820
     13 Cl1        -1.4891   -0.8929    0.0109 Cl        1 <0>        -0.0258
     14 Cl2         1.2360   -2.4149   -0.0233 Cl        1 <0>        -0.0237
     15 O1          2.2538    4.0811    0.7748 O.3       1 <0>        -0.5442
     16 H2          0.0149    6.5622   -4.4263 H         1 <0>         0.1072
     17 H3         -0.4784    5.1598   -3.4474 H         1 <0>         0.0796
     18 H4         -0.7055    6.8090   -2.8174 H         1 <0>         0.0834
     19 H5          1.9805    5.4723   -3.3789 H         1 <0>         0.1376
     20 H6          2.9150    7.4922   -2.2857 H         1 <0>         0.0824
     21 H7          1.9965    7.9243   -3.7479 H         1 <0>         0.1074
     22 H8          1.2762    8.1711   -2.1391 H         1 <0>         0.0830
     23 H9          2.1872    3.7641   -1.8704 H         1 <0>         0.1373
     24 H10         0.4128    3.7402   -2.0091 H         1 <0>         0.1443
     25 H11         3.3050    1.9659   -0.0189 H         1 <0>         0.1392
     26 H12         3.3415   -0.4955   -0.0328 H         1 <0>         0.1527
     27 H13        -0.9592    1.9065    0.0169 H         1 <0>         0.1478
     28 H14         3.1177    3.8095    0.4358 H         1 <0>         0.3894
     29 N1          1.2337    5.5871   -1.4092 N.4       1 <0>        -0.5149
     30 H15         0.3553    5.9085   -0.9857 H         1 <0>         0.4322
     31 H16         2.0268    5.9311   -0.8551 H         1 <0>         0.4356
@<TRIPOS>BOND
     1    1    2 1
     2    1   16 1
     3    1   17 1
     4    1   18 1
     5    2    3 1
     6    2   19 1
     7    2   29 1
     8    3   20 1
     9    3   21 1
    10    3   22 1
    11    4    5 1
    12    4   23 1
    13    4   24 1
    14    4   29 1
    15    5    6 1
    16    5    7 1
    17    5   15 1
    18    7   12 ar
    19    7    8 ar
    20    8    9 ar
    21    8   25 1
    22    9   10 ar
    23    9   26 1
    24   10   11 ar
    25   10   14 1
    26   11   12 ar
    27   11   13 1
    28   12   27 1
    29   15   28 1
    30   29   30 1
    31   29   31 1
@<TRIPOS>MOLECULE
ZINC00405263
   31    31     0     0     0
SMALL
USER_CHARGES
1-(3,4-dichlorophenyl)-2-isopropylamino-ethanol
@<TRIPOS>ATOM
      1 C1         -6.3278   -0.3294    2.7310 C.3       1 <0>        -0.1859
      2 C2         -4.8357   -0.0028    2.8195 C.3       1 <0>         0.0268
      3 C3         -4.1198   -1.0989    3.6113 C.3       1 <0>        -0.1844
      4 C4         -3.0733    0.9245    1.4422 C.3       1 <0>        -0.0408
      5 C5         -2.5137    0.9784    0.0192 C.3       1 <0>         0.1368
      6 H1         -2.3327   -0.0352   -0.3386 H         1 <0>         0.1362
      7 C6         -1.2195    1.7504    0.0173 C.ar      1 <0>        -0.1287
      8 C7         -0.0126    1.0758    0.0080 C.ar      1 <0>        -0.0838
      9 C8          1.1750    1.7827    0.0004 C.ar      1 <0>        -0.0910
     10 C9          1.1567    3.1660    0.0076 C.ar      1 <0>        -0.0179
     11 C10        -0.0517    3.8414    0.0223 C.ar      1 <0>        -0.0292
     12 C11        -1.2396    3.1322    0.0298 C.ar      1 <0>        -0.0885
     13 Cl1        -0.0764    5.5772    0.0307 Cl        1 <0>        -0.0264
     14 Cl2         2.6482    4.0544   -0.0013 Cl        1 <0>        -0.0237
     15 O1         -3.4556    1.6254   -0.8388 O.3       1 <0>        -0.5443
     16 H2         -6.4609   -1.2870    2.2277 H         1 <0>         0.0829
     17 H3         -6.7477   -0.3853    3.7353 H         1 <0>         0.1074
     18 H4         -6.8378    0.4515    2.1669 H         1 <0>         0.0825
     19 H5         -4.7025    0.9549    3.3227 H         1 <0>         0.1376
     20 H6         -4.2529   -2.0566    3.1080 H         1 <0>         0.0833
     21 H7         -3.0567   -0.8662    3.6743 H         1 <0>         0.0795
     22 H8         -4.5396   -1.1548    4.6156 H         1 <0>         0.1072
     23 H9         -2.3201    0.5119    2.1135 H         1 <0>         0.1445
     24 H10        -3.3374    1.9309    1.7671 H         1 <0>         0.1369
     25 H11         0.0021   -0.0041    0.0020 H         1 <0>         0.1450
     26 H12         2.1174    1.2551   -0.0107 H         1 <0>         0.1533
     27 H13        -2.1826    3.6585    0.0413 H         1 <0>         0.1418
     28 H14        -3.6645    2.5333   -0.5798 H         1 <0>         0.3901
     29 N1         -4.2739    0.0675    1.4573 N.4       1 <0>        -0.5153
     30 H15        -4.9776    0.4592    0.8205 H         1 <0>         0.4362
     31 H16        -4.0194   -0.8775    1.1468 H         1 <0>         0.4318
@<TRIPOS>BOND
     1    1    2 1
     2    1   16 1
     3    1   17 1
     4    1   18 1
     5    2    3 1
     6    2   19 1
     7    2   29 1
     8    3   20 1
     9    3   21 1
    10    3   22 1
    11    4    5 1
    12    4   23 1
    13    4   24 1
    14    4   29 1
    15    5    6 1
    16    5    7 1
    17    5   15 1
    18    7   12 ar
    19    7    8 ar
    20    8    9 ar
    21    8   25 1
    22    9   10 ar
    23    9   26 1
    24   10   11 ar
    25   10   14 1
    26   11   12 ar
    27   11   13 1
    28   12   27 1
    29   15   28 1
    30   29   30 1
    31   29   31 1
@<TRIPOS>MOLECULE
ZINC01567835
   45    47     0     0     0
SMALL
USER_CHARGES
1-(9H-carbazol-4-yloxy)-3-isopropylamino-propan-2-ol
@<TRIPOS>ATOM
      1 C1         -3.0466   12.3795    1.8135 C.3       1 <0>        -0.1849
      2 C2         -2.8015   12.0824    0.3328 C.3       1 <0>         0.0273
      3 C3         -1.9473   13.1960   -0.2763 C.3       1 <0>        -0.1861
      4 C4         -3.0481    9.6771    0.2037 C.3       1 <0>        -0.0384
      5 C5         -2.2814    8.3604    0.0645 C.3       1 <0>         0.0854
      6 H1         -1.5891    8.2531    0.8995 H         1 <0>         0.1352
      7 C6         -3.2694    7.1922    0.0678 C.3       1 <0>         0.0283
      8 O1         -2.5484    5.9585    0.0552 O.3       1 <0>        -0.2957
      9 C7         -3.2822    4.8152    0.0563 C.ar      1 <0>         0.1788
     10 C8         -4.6648    4.8764    0.0688 C.ar      1 <0>        -0.2456
     11 C9         -5.4134    3.7110    0.0699 C.ar      1 <0>        -0.0444
     12 C10        -4.7947    2.4789    0.0578 C.ar      1 <0>        -0.1709
     13 C11        -3.4054    2.3942    0.0452 C.ar      1 <0>         0.1820
     14 C12        -2.6448    3.5722    0.0444 C.ar      1 <0>        -0.1299
     15 C13        -1.2304    3.1574    0.0299 C.ar      1 <0>        -0.0926
     16 C14        -0.0259    3.8573    0.0221 C.ar      1 <0>        -0.0606
     17 C15         1.1670    3.1672    0.0075 C.ar      1 <0>        -0.1467
     18 C16         1.1718    1.7807    0.0004 C.ar      1 <0>        -0.0825
     19 C17        -0.0126    1.0758    0.0080 C.ar      1 <0>        -0.1380
     20 C18        -1.2272    1.7547    0.0174 C.ar      1 <0>         0.1337
     21 N1         -2.5393    1.3156    0.0321 N.pl3     1 <0>        -0.6120
     22 H2         -2.8127    0.3849    0.0293 H         1 <0>         0.4227
     23 O2         -1.5503    8.3624   -1.1633 O.3       1 <0>        -0.5432
     24 H3         -3.5675   13.3319    1.9116 H         1 <0>         0.1074
     25 H4         -3.6552   11.5861    2.2474 H         1 <0>         0.0796
     26 H5         -2.0916   12.4321    2.3364 H         1 <0>         0.0835
     27 H6         -3.7565   12.0297   -0.1901 H         1 <0>         0.1381
     28 H7         -1.7727   12.9843   -1.3312 H         1 <0>         0.0826
     29 H8         -2.4682   14.1484   -0.1782 H         1 <0>         0.1076
     30 H9         -0.9923   13.2486    0.2466 H         1 <0>         0.0831
     31 H10        -3.7404    9.7844   -0.6313 H         1 <0>         0.1385
     32 H11        -3.6058    9.6756    1.1402 H         1 <0>         0.1448
     33 H12        -3.9045    7.2509   -0.8161 H         1 <0>         0.0780
     34 H13        -3.8882    7.2422    0.9638 H         1 <0>         0.0827
     35 H14        -5.1613    5.8355    0.0780 H         1 <0>         0.1277
     36 H15        -6.4919    3.7680    0.0801 H         1 <0>         0.1353
     37 H16        -5.3894    1.5774    0.0585 H         1 <0>         0.1306
     38 H17        -0.0269    4.9373    0.0279 H         1 <0>         0.1252
     39 H18         2.1016    3.7084    0.0011 H         1 <0>         0.1276
     40 H19         2.1115    1.2485   -0.0114 H         1 <0>         0.1321
     41 H20         0.0021   -0.0041    0.0020 H         1 <0>         0.1272
     42 H21        -2.1040    8.4548   -1.9506 H         1 <0>         0.3900
     43 N2         -2.0888   10.7978    0.1996 N.4       1 <0>        -0.5132
     44 H22        -1.4374   10.6888    0.9857 H         1 <0>         0.4331
     45 H23        -1.5643   10.7914   -0.6830 H         1 <0>         0.4366
@<TRIPOS>BOND
     1    1    2 1
     2    1   24 1
     3    1   25 1
     4    1   26 1
     5    2    3 1
     6    2   27 1
     7    2   43 1
     8    3   28 1
     9    3   29 1
    10    3   30 1
    11    4    5 1
    12    4   31 1
    13    4   32 1
    14    4   43 1
    15    5    6 1
    16    5    7 1
    17    5   23 1
    18    7    8 1
    19    7   33 1
    20    7   34 1
    21    8    9 1
    22    9   14 ar
    23    9   10 ar
    24   10   11 ar
    25   10   35 1
    26   11   12 ar
    27   11   36 1
    28   12   13 ar
    29   12   37 1
    30   13   21 1
    31   13   14 ar
    32   14   15 1
    33   15   20 ar
    34   15   16 ar
    35   16   17 ar
    36   16   38 1
    37   17   18 ar
    38   17   39 1
    39   18   19 ar
    40   18   40 1
    41   19   20 ar
    42   19   41 1
    43   20   21 1
    44   21   22 1
    45   23   42 1
    46   43   44 1
    47   43   45 1
@<TRIPOS>MOLECULE
ZINC01999243
   45    47     0     0     0
SMALL
USER_CHARGES
1-(9H-carbazol-4-yloxy)-3-isopropylamino-propan-2-ol
@<TRIPOS>ATOM
      1 C1         -2.7444    0.9900   -3.4788 C.3       1 <0>        -0.1844
      2 C2         -2.9101    1.9938   -2.3360 C.3       1 <0>         0.0271
      3 C3         -4.3931    2.1248   -1.9833 C.3       1 <0>        -0.1862
      4 C4         -0.7573    1.9316   -1.2297 C.3       1 <0>        -0.0383
      5 C5         -0.0173    1.4248    0.0099 C.3       1 <0>         0.0856
      6 H1         -0.5275    1.7763    0.9067 H         1 <0>         0.1344
      7 C6          1.4181    1.9544   -0.0010 C.3       1 <0>         0.0283
      8 O1          2.0737    1.5785    1.2119 O.3       1 <0>        -0.2957
      9 C7          3.3648    1.9732    1.3630 C.ar      1 <0>         0.1788
     10 C8          3.9889    2.7057    0.3682 C.ar      1 <0>        -0.2456
     11 C9          5.3053    3.1083    0.5219 C.ar      1 <0>        -0.0444
     12 C10         6.0093    2.7870    1.6630 C.ar      1 <0>        -0.1709
     13 C11         5.4012    2.0508    2.6757 C.ar      1 <0>         0.1820
     14 C12         4.0670    1.6467    2.5257 C.ar      1 <0>        -0.1299
     15 C13         3.7180    0.8935    3.7437 C.ar      1 <0>        -0.0926
     16 C14         2.5595    0.2510    4.1748 C.ar      1 <0>        -0.0606
     17 C15         2.5413   -0.3782    5.4009 C.ar      1 <0>        -0.1467
     18 C16         3.6709   -0.3740    6.2049 C.ar      1 <0>        -0.0825
     19 C17         4.8236    0.2578    5.7907 C.ar      1 <0>        -0.1380
     20 C18         4.8614    0.8990    4.5563 C.ar      1 <0>         0.1337
     21 N1          5.8595    1.5971    3.8996 N.pl3     1 <0>        -0.6121
     22 H2          6.7524    1.7472    4.2477 H         1 <0>         0.4227
     23 O2          0.0021   -0.0041    0.0020 O.3       1 <0>        -0.5426
     24 H3         -3.2961    1.3390   -4.3517 H         1 <0>         0.1073
     25 H4         -1.6879    0.8967   -3.7301 H         1 <0>         0.0788
     26 H5         -3.1313    0.0193   -3.1687 H         1 <0>         0.0836
     27 H6         -2.5233    2.9645   -2.6461 H         1 <0>         0.1384
     28 H7         -4.5112    2.8399   -1.1692 H         1 <0>         0.0828
     29 H8         -4.9448    2.4738   -2.8563 H         1 <0>         0.1077
     30 H9         -4.7800    1.1541   -1.6732 H         1 <0>         0.0831
     31 H10        -0.6956    3.0191   -1.2703 H         1 <0>         0.1450
     32 H11        -0.3004    1.5081   -2.1241 H         1 <0>         0.1383
     33 H12         1.9549    1.5316   -0.8502 H         1 <0>         0.0781
     34 H13         1.4038    3.0411   -0.0846 H         1 <0>         0.0825
     35 H14         3.4482    2.9637   -0.5303 H         1 <0>         0.1277
     36 H15         5.7846    3.6796   -0.2594 H         1 <0>         0.1353
     37 H16         7.0351    3.1071    1.7711 H         1 <0>         0.1306
     38 H17         1.6785    0.2460    3.5502 H         1 <0>         0.1252
     39 H18         1.6437   -0.8762    5.7368 H         1 <0>         0.1276
     40 H19         3.6471   -0.8697    7.1641 H         1 <0>         0.1321
     41 H20         5.6979    0.2556    6.4247 H         1 <0>         0.1272
     42 H21         0.4417   -0.3872   -0.7693 H         1 <0>         0.3902
     43 N2         -2.1710    1.5178   -1.1515 N.4       1 <0>        -0.5138
     44 H22        -2.2221    0.4931   -1.1096 H         1 <0>         0.4364
     45 H23        -2.5943    1.9165   -0.3053 H         1 <0>         0.4336
@<TRIPOS>BOND
     1    1    2 1
     2    1   24 1
     3    1   25 1
     4    1   26 1
     5    2    3 1
     6    2   27 1
     7    2   43 1
     8    3   28 1
     9    3   29 1
    10    3   30 1
    11    4    5 1
    12    4   31 1
    13    4   32 1
    14    4   43 1
    15    5    6 1
    16    5    7 1
    17    5   23 1
    18    7    8 1
    19    7   33 1
    20    7   34 1
    21    8    9 1
    22    9   14 ar
    23    9   10 ar
    24   10   11 ar
    25   10   35 1
    26   11   12 ar
    27   11   36 1
    28   12   13 ar
    29   12   37 1
    30   13   21 1
    31   13   14 ar
    32   14   15 1
    33   15   20 ar
    34   15   16 ar
    35   16   17 ar
    36   16   38 1
    37   17   18 ar
    38   17   39 1
    39   18   19 ar
    40   18   40 1
    41   19   20 ar
    42   19   41 1
    43   20   21 1
    44   21   22 1
    45   23   42 1
    46   43   44 1
    47   43   45 1
@<TRIPOS>MOLECULE
ZINC01530567
   52    53     0     0     0
SMALL
USER_CHARGES

@<TRIPOS>ATOM
      1 C1         -0.0187    1.5258    0.0104 C.3       1 <0>        -0.1868
      2 C2          0.0021   -0.0041    0.0020 C.3       1 <0>         0.0239
      3 C3         -1.4333   -0.5336    0.0129 C.3       1 <0>        -0.1852
      4 N1          0.6897   -0.4778   -1.2066 N.4       1 <0>        -0.5018
      5 C4          2.1002   -0.0703   -1.1590 C.3       1 <0>        -0.0455
      6 C5          2.8163   -0.5637   -2.4178 C.3       1 <0>         0.0863
      7 H1          2.3425   -0.1306   -3.2988 H         1 <0>         0.1354
      8 C6          4.2854   -0.1392   -2.3683 C.3       1 <0>         0.0300
      9 O1          4.9264   -0.4976   -3.5942 O.3       1 <0>        -0.3023
     10 C7          6.2443   -0.1886   -3.7147 C.ar      1 <0>         0.1161
     11 C8          6.9084    0.4412   -2.6721 C.ar      1 <0>        -0.2057
     12 C9          8.2483    0.7538   -2.7968 C.ar      1 <0>        -0.0736
     13 C10         8.9272    0.4399   -3.9596 C.ar      1 <0>        -0.1079
     14 C11         8.2675   -0.1874   -5.0003 C.ar      1 <0>        -0.0707
     15 C12         6.9293   -0.5077   -4.8782 C.ar      1 <0>        -0.1404
     16 C13        10.3887    0.7824   -4.0932 C.3       1 <0>        -0.0788
     17 C14        11.2350   -0.3869   -3.5860 C.3       1 <0>         0.0685
     18 O2         12.6209   -0.0621   -3.7126 O.3       1 <0>        -0.3856
     19 C15        13.5029   -1.0932   -3.2643 C.3       1 <0>         0.0951
     20 C16        14.9525   -0.6388   -3.4457 C.3       1 <0>        -0.1578
     21 C17        15.8245   -1.4315   -4.4215 C.3       1 <0>        -0.1763
     22 C18        16.0531   -1.5591   -2.9141 C.3       1 <0>        -0.1729
     23 O3          2.7343   -1.9888   -2.4849 O.3       1 <0>        -0.5435
     24 H2          1.0039    1.9031    0.0027 H         1 <0>         0.0802
     25 H3         -0.5459    1.8868   -0.8726 H         1 <0>         0.0836
     26 H4         -0.5289    1.8773    0.9072 H         1 <0>         0.1080
     27 H5          0.5293   -0.3651    0.8851 H         1 <0>         0.1392
     28 H6         -1.9605   -0.1726   -0.8702 H         1 <0>         0.0830
     29 H7         -1.4185   -1.6235    0.0069 H         1 <0>         0.0830
     30 H8         -1.9435   -0.1821    0.9097 H         1 <0>         0.1083
     31 H9          0.6317   -1.4840   -1.2540 H         1 <0>         0.4332
     32 H10         2.1628    1.0167   -1.1079 H         1 <0>         0.1473
     33 H11         2.5740   -0.5034   -0.2781 H         1 <0>         0.1394
     34 H12         4.3473    0.9399   -2.2279 H         1 <0>         0.0813
     35 H13         4.7813   -0.6427   -1.5384 H         1 <0>         0.0762
     36 H14         6.3783    0.6872   -1.7639 H         1 <0>         0.1244
     37 H15         8.7657    1.2440   -1.9855 H         1 <0>         0.1292
     38 H16         8.8000   -0.4313   -5.9077 H         1 <0>         0.1357
     39 H17         6.4155   -1.0016   -5.6896 H         1 <0>         0.1344
     40 H18        10.6230    0.9731   -5.1405 H         1 <0>         0.0847
     41 H19        10.6086    1.6726   -3.5038 H         1 <0>         0.0830
     42 H20        11.0008   -0.5776   -2.5387 H         1 <0>         0.0487
     43 H21        11.0152   -1.2771   -4.1754 H         1 <0>         0.0503
     44 H22        13.3157   -1.2985   -2.2103 H         1 <0>         0.0531
     45 H23        13.3300   -1.9980   -3.8470 H         1 <0>         0.0511
     46 H24        15.1200    0.4362   -3.3798 H         1 <0>         0.1143
     47 H25        15.3653   -2.2768   -4.9342 H         1 <0>         0.0952
     48 H26        16.5657   -0.8780   -4.9979 H         1 <0>         0.0980
     49 H27        16.9448   -1.0896   -2.4987 H         1 <0>         0.1003
     50 H28        15.7444   -2.4883   -2.4351 H         1 <0>         0.0955
     51 H29         3.1369   -2.4418   -1.7314 H         1 <0>         0.3898
     52 H30         0.2511   -0.0769   -2.0221 H         1 <0>         0.4287
@<TRIPOS>BOND
     1    1    2 1
     2    1   24 1
     3    1   25 1
     4    1   26 1
     5    2    3 1
     6    2    4 1
     7    2   27 1
     8    3   28 1
     9    3   29 1
    10    3   30 1
    11    4    5 1
    12    4   31 1
    13    4   52 1
    14    5    6 1
    15    5   32 1
    16    5   33 1
    17    6    7 1
    18    6    8 1
    19    6   23 1
    20    8    9 1
    21    8   34 1
    22    8   35 1
    23    9   10 1
    24   10   15 ar
    25   10   11 ar
    26   11   12 ar
    27   11   36 1
    28   12   13 ar
    29   12   37 1
    30   13   14 ar
    31   13   16 1
    32   14   15 ar
    33   14   38 1
    34   15   39 1
    35   16   17 1
    36   16   40 1
    37   16   41 1
    38   17   18 1
    39   17   42 1
    40   17   43 1
    41   18   19 1
    42   19   20 1
    43   19   44 1
    44   19   45 1
    45   20   22 1
    46   20   21 1
    47   20   46 1
    48   21   22 1
    49   21   47 1
    50   21   48 1
    51   22   49 1
    52   22   50 1
    53   23   51 1
@<TRIPOS>MOLECULE
ZINC01530568
   52    53     0     0     0
SMALL
USER_CHARGES

@<TRIPOS>ATOM
      1 C1         -0.0187    1.5258    0.0104 C.3       1 <0>        -0.1864
      2 C2          0.0021   -0.0041    0.0020 C.3       1 <0>         0.0237
      3 C3         -1.4333   -0.5336    0.0129 C.3       1 <0>        -0.1853
      4 N1          0.6897   -0.4778   -1.2066 N.4       1 <0>        -0.5024
      5 C4          2.1002   -0.0703   -1.1590 C.3       1 <0>        -0.0455
      6 C5          2.8163   -0.5637   -2.4178 C.3       1 <0>         0.0865
      7 H1          2.6781   -1.6404   -2.5160 H         1 <0>         0.1344
      8 C6          4.3098   -0.2489   -2.3115 C.3       1 <0>         0.0299
      9 O1          4.9962   -0.8116   -3.4314 O.3       1 <0>        -0.3023
     10 C7          6.3406   -0.6217   -3.4901 C.ar      1 <0>         0.1161
     11 C8          6.9867    0.0867   -2.4875 C.ar      1 <0>        -0.2056
     12 C9          8.3534    0.2780   -2.5492 C.ar      1 <0>        -0.0736
     13 C10         9.0773   -0.2356   -3.6094 C.ar      1 <0>        -0.1079
     14 C11         8.4357   -0.9416   -4.6102 C.ar      1 <0>        -0.0707
     15 C12         7.0700   -1.1409   -4.5499 C.ar      1 <0>        -0.1404
     16 C13        10.5681   -0.0250   -3.6745 C.3       1 <0>        -0.0788
     17 C14        11.2777   -1.1788   -2.9631 C.3       1 <0>         0.0686
     18 O2         12.6913   -0.9791   -3.0249 O.3       1 <0>        -0.3856
     19 C15        13.4519   -2.0066   -2.3862 C.3       1 <0>         0.0951
     20 C16        14.9436   -1.6909   -2.5135 C.3       1 <0>        -0.1578
     21 C17        15.8066   -2.6679   -3.3144 C.3       1 <0>        -0.1763
     22 C18        15.9254   -2.6146   -1.7899 C.3       1 <0>        -0.1729
     23 O3          2.2715    0.0930   -3.5641 O.3       1 <0>        -0.5426
     24 H2          1.0039    1.9031    0.0027 H         1 <0>         0.0796
     25 H3         -0.5459    1.8868   -0.8726 H         1 <0>         0.0835
     26 H4         -0.5289    1.8773    0.9072 H         1 <0>         0.1080
     27 H5          0.5293   -0.3651    0.8851 H         1 <0>         0.1397
     28 H6         -1.9605   -0.1726   -0.8702 H         1 <0>         0.0830
     29 H7         -1.4185   -1.6235    0.0069 H         1 <0>         0.0830
     30 H8         -1.9435   -0.1821    0.9097 H         1 <0>         0.1083
     31 H9          0.6317   -1.4840   -1.2540 H         1 <0>         0.4304
     32 H10         2.1628    1.0167   -1.1079 H         1 <0>         0.1409
     33 H11         2.5740   -0.5034   -0.2781 H         1 <0>         0.1460
     34 H12         4.4536    0.8316   -2.3027 H         1 <0>         0.0766
     35 H13         4.7064   -0.6757   -1.3903 H         1 <0>         0.0809
     36 H14         6.4216    0.4886   -1.6595 H         1 <0>         0.1244
     37 H15         8.8569    0.8294   -1.7689 H         1 <0>         0.1292
     38 H16         9.0033   -1.3414   -5.4374 H         1 <0>         0.1357
     39 H17         6.5699   -1.6962   -5.3295 H         1 <0>         0.1344
     40 H18        10.8851    0.0091   -4.7169 H         1 <0>         0.0847
     41 H19        10.8239    0.9153   -3.1861 H         1 <0>         0.0830
     42 H20        10.9608   -1.2128   -1.9208 H         1 <0>         0.0487
     43 H21        11.0219   -2.1191   -3.4515 H         1 <0>         0.0502
     44 H22        13.1801   -2.0578   -1.3319 H         1 <0>         0.0531
     45 H23        13.2412   -2.9640   -2.8627 H         1 <0>         0.0510
     46 H24        15.1969   -0.6322   -2.5700 H         1 <0>         0.1143
     47 H25        15.3117   -3.5357   -3.7505 H         1 <0>         0.0952
     48 H26        16.6279   -2.2521   -3.8981 H         1 <0>         0.0981
     49 H27        16.8249   -2.1637   -1.3707 H         1 <0>         0.1003
     50 H28        15.5087   -3.4472   -1.2232 H         1 <0>         0.0955
     51 H29         2.3595    1.0558   -3.5447 H         1 <0>         0.3902
     52 H30         0.2511   -0.0769   -2.0221 H         1 <0>         0.4318
@<TRIPOS>BOND
     1    1    2 1
     2    1   24 1
     3    1   25 1
     4    1   26 1
     5    2    3 1
     6    2    4 1
     7    2   27 1
     8    3   28 1
     9    3   29 1
    10    3   30 1
    11    4    5 1
    12    4   31 1
    13    4   52 1
    14    5    6 1
    15    5   32 1
    16    5   33 1
    17    6    7 1
    18    6    8 1
    19    6   23 1
    20    8    9 1
    21    8   34 1
    22    8   35 1
    23    9   10 1
    24   10   15 ar
    25   10   11 ar
    26   11   12 ar
    27   11   36 1
    28   12   13 ar
    29   12   37 1
    30   13   14 ar
    31   13   16 1
    32   14   15 ar
    33   14   38 1
    34   15   39 1
    35   16   17 1
    36   16   40 1
    37   16   41 1
    38   17   18 1
    39   17   42 1
    40   17   43 1
    41   18   19 1
    42   19   20 1
    43   19   44 1
    44   19   45 1
    45   20   22 1
    46   20   21 1
    47   20   46 1
    48   21   22 1
    49   21   47 1
    50   21   48 1
    51   22   49 1
    52   22   50 1
    53   23   51 1
@<TRIPOS>MOLECULE
ZINC00056652
   33    33     0     0     0
SMALL
USER_CHARGES

@<TRIPOS>ATOM
      1 C1         -0.0187    1.5258    0.0104 C.3       1 <0>        -0.1867
      2 C2          0.0021   -0.0041    0.0020 C.3       1 <0>         0.0237
      3 C3          0.7182   -0.4975   -1.2568 C.3       1 <0>        -0.1847
      4 N1          0.7126   -0.4907    1.1921 N.4       1 <0>        -0.5036
      5 C4         -0.0398   -0.1189    2.3978 C.3       1 <0>        -0.0470
      6 C5          0.7001   -0.6257    3.6373 C.3       1 <0>         0.1381
      7 H1          1.6931   -0.1778    3.6761 H         1 <0>         0.1328
      8 C6         -0.0717   -0.2443    4.8741 C.ar      1 <0>        -0.1371
      9 C7         -1.0976   -1.0545    5.3242 C.ar      1 <0>        -0.0979
     10 C8         -1.8086   -0.7090    6.4582 C.ar      1 <0>        -0.1233
     11 C9         -1.4934    0.4515    7.1468 C.ar      1 <0>         0.1046
     12 C10        -0.4606    1.2667    6.6941 C.ar      1 <0>         0.0899
     13 C11         0.2513    0.9121    5.5594 C.ar      1 <0>        -0.1137
     14 O1         -0.1475    2.4066    7.3664 O.3       1 <0>        -0.4846
     15 O2         -2.1922    0.7931    8.2624 O.3       1 <0>        -0.4850
     16 O3          0.8214   -2.0480    3.5713 O.3       1 <0>        -0.5470
     17 H2          1.0039    1.9031    0.0027 H         1 <0>         0.0830
     18 H3         -0.5459    1.8868   -0.8726 H         1 <0>         0.1073
     19 H4         -0.5289    1.8773    0.9072 H         1 <0>         0.0808
     20 H5         -1.0205   -0.3814    0.0098 H         1 <0>         0.1384
     21 H6          1.7408   -0.1202   -1.2645 H         1 <0>         0.0824
     22 H7          0.7330   -1.5874   -1.2628 H         1 <0>         0.0825
     23 H8          0.1910   -0.1364   -2.1398 H         1 <0>         0.1075
     24 H9          0.7982   -1.4950    1.1455 H         1 <0>         0.4316
     25 H10        -0.1324    0.9660    2.4481 H         1 <0>         0.1461
     26 H11        -1.0328   -0.5668    2.3589 H         1 <0>         0.1375
     27 H12        -1.3442   -1.9592    4.7884 H         1 <0>         0.1307
     28 H13        -2.6100   -1.3433    6.8073 H         1 <0>         0.1434
     29 H14         1.0558    1.5412    5.2081 H         1 <0>         0.1386
     30 H15         0.5171    2.2853    8.0583 H         1 <0>         0.3970
     31 H16        -1.8205    0.4407    9.0826 H         1 <0>         0.3989
     32 H17        -0.0252   -2.5137    3.5341 H         1 <0>         0.3888
     33 H18         1.6317   -0.0761    1.2281 H         1 <0>         0.4270
@<TRIPOS>BOND
     1    1    2 1
     2    1   17 1
     3    1   18 1
     4    1   19 1
     5    2    3 1
     6    2    4 1
     7    2   20 1
     8    3   21 1
     9    3   22 1
    10    3   23 1
    11    4    5 1
    12    4   24 1
    13    4   33 1
    14    5    6 1
    15    5   25 1
    16    5   26 1
    17    6    7 1
    18    6    8 1
    19    6   16 1
    20    8   13 ar
    21    8    9 ar
    22    9   10 ar
    23    9   27 1
    24   10   11 ar
    25   10   28 1
    26   11   12 ar
    27   11   15 1
    28   12   13 ar
    29   12   14 1
    30   13   29 1
    31   14   30 1
    32   15   31 1
    33   16   32 1
@<TRIPOS>MOLECULE
ZINC00056653
   33    33     0     0     0
SMALL
USER_CHARGES

@<TRIPOS>ATOM
      1 C1         -0.0187    1.5258    0.0104 C.3       1 <0>        -0.1860
      2 C2          0.0021   -0.0041    0.0020 C.3       1 <0>         0.0236
      3 C3          0.7182   -0.4975   -1.2568 C.3       1 <0>        -0.1851
      4 N1          0.7126   -0.4907    1.1921 N.4       1 <0>        -0.5047
      5 C4         -0.0398   -0.1189    2.3978 C.3       1 <0>        -0.0461
      6 C5          0.7001   -0.6257    3.6373 C.3       1 <0>         0.1376
      7 H1          0.8710   -1.6983    3.5452 H         1 <0>         0.1318
      8 C6         -0.1305   -0.3530    4.8648 C.ar      1 <0>        -0.1366
      9 C7         -0.1412    0.9117    5.4233 C.ar      1 <0>        -0.0991
     10 C8         -0.9016    1.1669    6.5493 C.ar      1 <0>        -0.1234
     11 C9         -1.6555    0.1542    7.1203 C.ar      1 <0>         0.1047
     12 C10        -1.6451   -1.1185    6.5578 C.ar      1 <0>         0.0901
     13 C11        -0.8845   -1.3664    5.4264 C.ar      1 <0>        -0.1130
     14 O1         -2.3834   -2.1157    7.1146 O.3       1 <0>        -0.4824
     15 O2         -2.4037    0.4035    8.2282 O.3       1 <0>        -0.4834
     16 O3          1.9549    0.0485    3.7518 O.3       1 <0>        -0.5453
     17 H2          1.0039    1.9031    0.0027 H         1 <0>         0.0832
     18 H3         -0.5459    1.8868   -0.8726 H         1 <0>         0.1072
     19 H4         -0.5289    1.8773    0.9072 H         1 <0>         0.0796
     20 H5         -1.0205   -0.3814    0.0098 H         1 <0>         0.1387
     21 H6          1.7408   -0.1202   -1.2645 H         1 <0>         0.0826
     22 H7          0.7330   -1.5874   -1.2628 H         1 <0>         0.0827
     23 H8          0.1910   -0.1364   -2.1398 H         1 <0>         0.1075
     24 H9          0.7982   -1.4950    1.1455 H         1 <0>         0.4292
     25 H10        -0.1324    0.9660    2.4481 H         1 <0>         0.1385
     26 H11        -1.0328   -0.5668    2.3589 H         1 <0>         0.1439
     27 H12         0.4460    1.7018    4.9792 H         1 <0>         0.1304
     28 H13        -0.9077    2.1555    6.9841 H         1 <0>         0.1435
     29 H14        -0.8776   -2.3524    4.9857 H         1 <0>         0.1390
     30 H15        -3.2817   -2.1833    6.7632 H         1 <0>         0.3947
     31 H16        -3.3050    0.6967    8.0364 H         1 <0>         0.3972
     32 H17         1.8791    1.0087    3.8375 H         1 <0>         0.3889
     33 H18         1.6317   -0.0761    1.2281 H         1 <0>         0.4305
@<TRIPOS>BOND
     1    1    2 1
     2    1   17 1
     3    1   18 1
     4    1   19 1
     5    2    3 1
     6    2    4 1
     7    2   20 1
     8    3   21 1
     9    3   22 1
    10    3   23 1
    11    4    5 1
    12    4   24 1
    13    4   33 1
    14    5    6 1
    15    5   25 1
    16    5   26 1
    17    6    7 1
    18    6    8 1
    19    6   16 1
    20    8   13 ar
    21    8    9 ar
    22    9   10 ar
    23    9   27 1
    24   10   11 ar
    25   10   28 1
    26   11   12 ar
    27   11   15 1
    28   12   13 ar
    29   12   14 1
    30   13   29 1
    31   14   30 1
    32   15   31 1
    33   16   32 1
@<TRIPOS>MOLECULE
ZINC11422450
   37    38     0     0     0
SMALL
USER_CHARGES
6-isopropylaminotetralin-1,2,5-triol
@<TRIPOS>ATOM
      1 C1          1.9230    1.5230    1.4169 C.3       1 <0>        -0.1843
      2 C2          1.3525    1.5499   -0.0025 C.3       1 <0>         0.0270
      3 C3          2.2336    0.7023   -0.9224 C.3       1 <0>        -0.1822
      4 C4         -0.7955    1.5269   -1.1198 C.3       1 <0>         0.0367
      5 H1         -0.1493    1.6545   -1.9883 H         1 <0>         0.1506
      6 C5         -1.4171    2.8750   -0.7362 C.3       1 <0>        -0.1366
      7 C6         -2.0191    3.5024   -1.9916 C.3       1 <0>        -0.0729
      8 C7         -2.9197    2.5212   -2.6953 C.ar      1 <0>        -0.0829
      9 C8         -2.8709    1.1657   -2.4551 C.ar      1 <0>        -0.1255
     10 C9         -3.7191    0.3113   -3.1477 C.ar      1 <0>        -0.0965
     11 C10        -4.6154    0.8055   -4.0732 C.ar      1 <0>        -0.1234
     12 C11        -4.6726    2.1682   -4.3159 C.ar      1 <0>         0.1060
     13 C12        -3.8241    3.0246   -3.6257 C.ar      1 <0>         0.0857
     14 O1         -3.8777    4.3630   -3.8604 O.3       1 <0>        -0.4807
     15 O2         -5.5546    2.6647   -5.2242 O.3       1 <0>        -0.4830
     16 C13        -1.9234    0.5537   -1.4564 C.3       1 <0>         0.1406
     17 H2         -2.4701    0.3083   -0.5459 H         1 <0>         0.0901
     18 O3         -1.3659   -0.6414   -2.0069 O.3       1 <0>        -0.5626
     19 H3          1.9449    0.4956    1.7802 H         1 <0>         0.0821
     20 H4          2.9351    1.9274    1.4094 H         1 <0>         0.1074
     21 H5          1.2953    2.1268    2.0722 H         1 <0>         0.0816
     22 H6          1.3306    2.5773   -0.3659 H         1 <0>         0.1370
     23 H7          1.8272    0.7215   -1.9337 H         1 <0>         0.0813
     24 H8          3.2457    1.1067   -0.9299 H         1 <0>         0.1055
     25 H9          2.2555   -0.3251   -0.5591 H         1 <0>         0.0827
     26 H10        -2.1988    2.7204    0.0075 H         1 <0>         0.0965
     27 H11        -0.6478    3.5316   -0.3298 H         1 <0>         0.1018
     28 H12        -1.2152    3.7994   -2.6651 H         1 <0>         0.0956
     29 H13        -2.5966    4.3835   -1.7117 H         1 <0>         0.1007
     30 H14        -3.6770   -0.7513   -2.9595 H         1 <0>         0.1323
     31 H15        -5.2698    0.1322   -4.6069 H         1 <0>         0.1444
     32 H16        -4.4993    4.8375   -3.2916 H         1 <0>         0.3927
     33 H17        -6.4158    2.8962   -4.8503 H         1 <0>         0.3975
     34 H18        -2.0239   -1.3085   -2.2458 H         1 <0>         0.4050
     35 N1         -0.0153    0.9979    0.0149 N.4       1 <0>        -0.5153
     36 H19        -0.4755    1.2610    0.8943 H         1 <0>         0.4283
     37 H20         0.0315   -0.0254   -0.0540 H         1 <0>         0.4368
@<TRIPOS>BOND
     1    1    2 1
     2    1   19 1
     3    1   20 1
     4    1   21 1
     5    2    3 1
     6    2   22 1
     7    2   35 1
     8    3   23 1
     9    3   24 1
    10    3   25 1
    11    4    5 1
    12    4   16 1
    13    4    6 1
    14    4   35 1
    15    6    7 1
    16    6   26 1
    17    6   27 1
    18    7    8 1
    19    7   28 1
    20    7   29 1
    21    8   13 ar
    22    8    9 ar
    23    9   10 ar
    24    9   16 1
    25   10   11 ar
    26   10   30 1
    27   11   12 ar
    28   11   31 1
    29   12   13 ar
    30   12   15 1
    31   13   14 1
    32   14   32 1
    33   15   33 1
    34   16   17 1
    35   16   18 1
    36   18   34 1
    37   35   36 1
    38   35   37 1
@<TRIPOS>MOLECULE
ZINC11422302
   28    29     0     0     0
SMALL
USER_CHARGES
6-aminotetralin-1,2,5-triol
@<TRIPOS>ATOM
      1 C1         -2.1299    1.5032    1.2272 C.ar      1 <0>        -0.0968
      2 C2         -2.8610    1.9222    2.3200 C.ar      1 <0>        -0.1232
      3 C3         -2.2068    2.4109    3.4390 C.ar      1 <0>         0.1064
      4 C4         -0.8192    2.4764    3.4489 C.ar      1 <0>         0.0859
      5 C5         -0.0861    2.0544    2.3437 C.ar      1 <0>        -0.0835
      6 C6         -0.7425    1.5660    1.2355 C.ar      1 <0>        -0.1275
      7 C7         -0.0127    1.0858    0.0080 C.3       1 <0>         0.1392
      8 H1          0.0021   -0.0041    0.0020 H         1 <0>         0.0912
      9 C8          1.4221    1.6090   -0.0029 C.3       1 <0>         0.0401
     10 H2          1.4183    2.6882   -0.1557 H         1 <0>         0.1522
     11 C9          2.0664    1.2812    1.3493 C.3       1 <0>        -0.1355
     12 C10         1.4149    2.1567    2.4178 C.3       1 <0>        -0.0775
     13 O1         -0.6939    1.5542   -1.1576 O.3       1 <0>        -0.5647
     14 O2         -0.1732    2.9564    4.5452 O.3       1 <0>        -0.4812
     15 O3         -2.9188    2.8245    4.5213 O.3       1 <0>        -0.4830
     16 H3         -2.6421    1.1224    0.3560 H         1 <0>         0.1322
     17 H4         -3.9396    1.8696    2.3027 H         1 <0>         0.1446
     18 H5          1.9051    0.2298    1.5876 H         1 <0>         0.0969
     19 H6          3.1358    1.4879    1.3063 H         1 <0>         0.1043
     20 H7          1.7492    1.8306    3.4027 H         1 <0>         0.1082
     21 H8          1.7125    3.1939    2.2631 H         1 <0>         0.0920
     22 H9          3.1303    1.2903   -1.1069 H         1 <0>         0.4407
     23 H10         2.1470   -0.0458   -0.9900 H         1 <0>         0.4349
     24 H11        -1.6109    1.2547   -1.2242 H         1 <0>         0.4064
     25 H12        -0.0228    3.9114    4.5263 H         1 <0>         0.3938
     26 H13        -3.1608    3.7604    4.4986 H         1 <0>         0.3979
     27 N1          2.1645    0.9665   -1.1017 N.4       1 <0>        -0.6415
     28 H14         1.7239    1.2126   -1.9959 H         1 <0>         0.4478
@<TRIPOS>BOND
     1    1    6 ar
     2    1    2 ar
     3    1   16 1
     4    2    3 ar
     5    2   17 1
     6    3    4 ar
     7    3   15 1
     8    4    5 ar
     9    4   14 1
    10    5   12 1
    11    5    6 ar
    12    6    7 1
    13    7    8 1
    14    7    9 1
    15    7   13 1
    16    9   10 1
    17    9   11 1
    18    9   27 1
    19   11   12 1
    20   11   18 1
    21   11   19 1
    22   12   20 1
    23   12   21 1
    24   13   24 1
    25   14   25 1
    26   15   26 1
    27   22   27 1
    28   23   27 1
    29   27   28 1
@<TRIPOS>MOLECULE
ZINC02383103
   28    29     0     0     0
SMALL
USER_CHARGES
4-morpholin-2-ylbenzene-1,2-diol
@<TRIPOS>ATOM
      1 C1         -0.4712    2.8460   -1.7099 C.ar      1 <0>        -0.0768
      2 C2         -1.1392    3.3096   -2.8284 C.ar      1 <0>        -0.1304
      3 C3         -2.0831    2.5103   -3.4522 C.ar      1 <0>         0.1082
      4 C4         -2.3568    1.2411   -2.9505 C.ar      1 <0>         0.0857
      5 C5         -1.6803    0.7808   -1.8328 C.ar      1 <0>        -0.1118
      6 C6         -0.7433    1.5859   -1.2115 C.ar      1 <0>        -0.1090
      7 C7         -0.0127    1.0858    0.0080 C.3       1 <0>         0.1233
      8 H1          0.0021   -0.0041    0.0020 H         1 <0>         0.0964
      9 C8         -0.7244    1.5805    1.2700 C.3       1 <0>        -0.0358
     10 C9          1.4075    1.6805    2.4098 C.3       1 <0>        -0.0419
     11 C10         2.0978    1.1848    1.1364 C.3       1 <0>         0.0349
     12 O1          1.3287    1.5817   -0.0021 O.3       1 <0>        -0.3500
     13 O2         -3.2827    0.4527   -3.5594 O.3       1 <0>        -0.4842
     14 O3         -2.7407    2.9646   -4.5525 O.3       1 <0>        -0.4853
     15 H2          0.2645    3.4701   -1.2244 H         1 <0>         0.1377
     16 H3         -0.9248    4.2946   -3.2158 H         1 <0>         0.1431
     17 H4         -1.8879   -0.2052   -1.4440 H         1 <0>         0.1379
     18 H5         -0.7866    2.6685    1.2500 H         1 <0>         0.1429
     19 H6         -1.7286    1.1585    1.3107 H         1 <0>         0.1472
     20 H7          1.9596    1.3315    3.2825 H         1 <0>         0.1463
     21 H8          1.3794    2.7701    2.4080 H         1 <0>         0.1409
     22 H9          2.1740    0.0978    1.1632 H         1 <0>         0.0829
     23 H10         3.0959    1.6180    1.0704 H         1 <0>         0.1443
     24 H11        -2.9204   -0.1156   -4.2529 H         1 <0>         0.3960
     25 H12        -2.3007    2.7554   -5.3879 H         1 <0>         0.3987
     26 N1          0.0323    1.1489    2.4606 N.4       1 <0>        -0.5164
     27 H13         0.0659    0.1230    2.4877 H         1 <0>         0.4334
     28 H14        -0.4356    1.4984    3.3051 H         1 <0>         0.4419
@<TRIPOS>BOND
     1    1    6 ar
     2    1    2 ar
     3    1   15 1
     4    2    3 ar
     5    2   16 1
     6    3    4 ar
     7    3   14 1
     8    4    5 ar
     9    4   13 1
    10    5    6 ar
    11    5   17 1
    12    6    7 1
    13    7    8 1
    14    7   12 1
    15    7    9 1
    16    9   18 1
    17    9   19 1
    18    9   26 1
    19   10   11 1
    20   10   20 1
    21   10   21 1
    22   10   26 1
    23   11   12 1
    24   11   22 1
    25   11   23 1
    26   13   24 1
    27   14   25 1
    28   26   27 1
    29   26   28 1
@<TRIPOS>MOLECULE
ZINC11422311
   28    29     0     0     0
SMALL
USER_CHARGES
4-morpholin-2-ylbenzene-1,2-diol
@<TRIPOS>ATOM
      1 C1         -1.2254    2.1759    0.0197 C.ar      1 <0>        -0.0776
      2 C2         -1.2494    3.5585    0.0331 C.ar      1 <0>        -0.1305
      3 C3         -0.0621    4.2719    0.0256 C.ar      1 <0>         0.1086
      4 C4          1.1536    3.5940    0.0103 C.ar      1 <0>         0.0856
      5 C5          1.1706    2.2089    0.0027 C.ar      1 <0>        -0.1102
      6 C6         -0.0184    1.5028    0.0103 C.ar      1 <0>        -0.1088
      7 C7          0.0021   -0.0041    0.0020 C.3       1 <0>         0.1231
      8 H1          0.9695   -0.3530   -0.3591 H         1 <0>         0.0962
      9 C8         -0.2334   -0.5263    1.4218 C.3       1 <0>        -0.0359
     10 C9         -1.3615   -2.4595    0.5029 C.3       1 <0>        -0.0419
     11 C10        -1.1148   -1.9179   -0.9077 C.3       1 <0>         0.0347
     12 O1         -1.0323   -0.4910   -0.8573 O.3       1 <0>        -0.3498
     13 O2          2.3219    4.2900    0.0025 O.3       1 <0>        -0.4841
     14 O3         -0.0840    5.6317    0.0336 O.3       1 <0>        -0.4853
     15 H2         -2.1519    1.6209    0.0207 H         1 <0>         0.1365
     16 H3         -2.1939    4.0821    0.0449 H         1 <0>         0.1432
     17 H4          2.1124    1.6805   -0.0094 H         1 <0>         0.1381
     18 H5          0.5835   -0.2049    2.0680 H         1 <0>         0.1474
     19 H6         -1.1759   -0.1331    1.8026 H         1 <0>         0.1427
     20 H7         -2.3221   -2.0972    0.8690 H         1 <0>         0.1408
     21 H8         -1.3682   -3.5492    0.4783 H         1 <0>         0.1463
     22 H9         -1.9373   -2.2121   -1.5596 H         1 <0>         0.1441
     23 H10        -0.1801   -2.3230   -1.2955 H         1 <0>         0.0829
     24 H11         2.6510    4.4960   -0.8831 H         1 <0>         0.3961
     25 H12        -0.0986    6.0300   -0.8475 H         1 <0>         0.3987
     26 N1         -0.2838   -2.0006    1.3997 N.4       1 <0>        -0.5164
     27 H13        -0.4616   -2.3483    2.3493 H         1 <0>         0.4419
     28 H14         0.6152   -2.3658    1.0642 H         1 <0>         0.4335
@<TRIPOS>BOND
     1    1    6 ar
     2    1    2 ar
     3    1   15 1
     4    2    3 ar
     5    2   16 1
     6    3    4 ar
     7    3   14 1
     8    4    5 ar
     9    4   13 1
    10    5    6 ar
    11    5   17 1
    12    6    7 1
    13    7    8 1
    14    7   12 1
    15    7    9 1
    16    9   18 1
    17    9   19 1
    18    9   26 1
    19   10   11 1
    20   10   20 1
    21   10   21 1
    22   10   26 1
    23   11   12 1
    24   11   22 1
    25   11   23 1
    26   13   24 1
    27   14   25 1
    28   26   27 1
    29   26   28 1
