@<TRIPOS>MOLECULE
ZINC03782818
   51    55     0     0     0
SMALL
USER_CHARGES

@<TRIPOS>ATOM
      1 C1          0.0895   -5.1806   -0.3315 C.3       1 <0>        -0.1532
      2 C2          0.1330   -3.6520   -0.2848 C.3       1 <0>         0.0824
      3 O1          0.3156   -3.1400   -1.6063 O.3       1 <0>        -0.2881
      4 C3          0.3760   -1.7953   -1.7411 C.2       1 <0>         0.4632
      5 N1          0.2859   -0.9373   -0.7589 N.2       1 <0>        -0.5521
      6 C4          0.3865    0.3269   -1.2500 C.ar      1 <0>         0.0540
      7 C5          0.3563    1.5910   -0.6579 C.ar      1 <0>        -0.0950
      8 C6          0.4862    2.7237   -1.4351 C.ar      1 <0>        -0.1326
      9 C7          0.6472    2.6260   -2.8039 C.ar      1 <0>        -0.0984
     10 C8          0.6807    1.3733   -3.4209 C.ar      1 <0>        -0.1052
     11 C9          0.5501    0.2157   -2.6400 C.ar      1 <0>         0.0828
     12 N2          0.5458   -1.1324   -2.9221 N.pl3     1 <0>        -0.4528
     13 C10         0.6925   -1.7423   -4.2461 C.3       1 <0>         0.1335
     14 C11         2.1231   -2.1719   -4.4455 C.ar      1 <0>        -0.0407
     15 C12         3.1417   -1.4986   -3.7952 C.ar      1 <0>        -0.1014
     16 C13         4.4536   -1.8875   -3.9739 C.ar      1 <0>        -0.1027
     17 C14         4.7516   -2.9612   -4.8119 C.ar      1 <0>        -0.0712
     18 C15         3.7208   -3.6359   -5.4646 C.ar      1 <0>         0.0082
     19 C16         2.4122   -3.2416   -5.2737 C.ar      1 <0>        -0.1293
     20 C17         6.1587   -3.3834   -5.0084 C.ar      1 <0>        -0.0192
     21 C18         7.1331   -2.4432   -5.3319 C.ar      1 <0>        -0.1125
     22 C19         8.4423   -2.8406   -5.5141 C.ar      1 <0>        -0.1367
     23 C20         8.7960   -4.1725   -5.3770 C.ar      1 <0>        -0.1319
     24 C21         7.8438   -5.1182   -5.0567 C.ar      1 <0>        -0.1068
     25 C22         6.5180   -4.7340   -4.8635 C.ar      1 <0>         0.0468
     26 C23         5.4946   -5.7426   -4.5146 C.2       1 <0>         0.0721
     27 N3          4.1937   -5.5236   -4.3126 N.2       1 <0>        -0.3355
     28 N4          3.6493   -6.6577   -4.0308 N.2       1 <0>        -0.1935
     29 N5          4.5498   -7.5771   -4.0472 N.2       1 <0>        -0.2018
     30 N6          5.6889   -7.0521   -4.3454 N.2       1 <0>        -0.3731
     31 C24         0.8512    1.2690   -4.8788 C.2       1 <0>         0.5159
     32 O2          0.3623    2.1159   -5.6140 O.co2     1 <0>        -0.6872
     33 O3          1.4820    0.3354   -5.3557 O.co2     1 <0>        -0.6546
     34 H1         -0.7389   -5.5014   -0.9632 H         1 <0>         0.0642
     35 H2          1.0262   -5.5584   -0.7413 H         1 <0>         0.0734
     36 H3         -0.0498   -5.5712    0.6765 H         1 <0>         0.0762
     37 H4         -0.8038   -3.2742    0.1250 H         1 <0>         0.0629
     38 H5          0.9614   -3.3312    0.3469 H         1 <0>         0.0652
     39 H6          0.2307    1.6824    0.4109 H         1 <0>         0.1156
     40 H7          0.4613    3.6973   -0.9684 H         1 <0>         0.1171
     41 H8          0.7472    3.5217   -3.3991 H         1 <0>         0.1246
     42 H9          0.0385   -2.6111   -4.3204 H         1 <0>         0.0722
     43 H10         0.4209   -1.0165   -5.0126 H         1 <0>         0.1566
     44 H11         2.9097   -0.6668   -3.1466 H         1 <0>         0.1020
     45 H12         5.2480   -1.3609   -3.4660 H         1 <0>         0.1026
     46 H13         3.9457   -4.4684   -6.1149 H         1 <0>         0.1062
     47 H14         1.6126   -3.7663   -5.7753 H         1 <0>         0.1063
     48 H15         6.8645   -1.4028   -5.4408 H         1 <0>         0.1208
     49 H16         9.1954   -2.1084   -5.7653 H         1 <0>         0.1130
     50 H17         9.8233   -4.4727   -5.5221 H         1 <0>         0.1131
     51 H18         8.1264   -6.1553   -4.9517 H         1 <0>         0.1246
@<TRIPOS>BOND
     1    1    2 1
     2    1   34 1
     3    1   35 1
     4    1   36 1
     5    2    3 1
     6    2   37 1
     7    2   38 1
     8    3    4 1
     9    4   12 1
    10    4    5 2
    11    5    6 1
    12    6   11 ar
    13    6    7 ar
    14    7    8 ar
    15    7   39 1
    16    8    9 ar
    17    8   40 1
    18    9   10 ar
    19    9   41 1
    20   10   11 ar
    21   10   31 1
    22   11   12 1
    23   12   13 1
    24   13   14 1
    25   13   42 1
    26   13   43 1
    27   14   19 ar
    28   14   15 ar
    29   15   16 ar
    30   15   44 1
    31   16   17 ar
    32   16   45 1
    33   17   18 ar
    34   17   20 1
    35   18   19 ar
    36   18   46 1
    37   19   47 1
    38   20   25 ar
    39   20   21 ar
    40   21   22 ar
    41   21   48 1
    42   22   23 ar
    43   22   49 1
    44   23   24 ar
    45   23   50 1
    46   24   25 ar
    47   24   51 1
    48   25   26 1
    49   26   30 2
    50   26   27 1
    51   27   28 1
    52   28   29 2
    53   29   30 1
    54   31   32 2
    55   31   33 1
@<TRIPOS>MOLECULE
ZINC03782818
   52    56     0     0     0
SMALL
USER_CHARGES

@<TRIPOS>ATOM
      1 C1          0.0895   -5.1806   -0.3315 C.3       1 <0>        -0.1561
      2 C2          0.1330   -3.6520   -0.2848 C.3       1 <0>         0.0431
      3 O1          0.3156   -3.1400   -1.6063 O.3       1 <0>        -0.2529
      4 C3          0.3760   -1.7953   -1.7411 C.cat     1 <0>         0.5549
      5 N1          0.2859   -0.9373   -0.7589 N.pl3     1 <0>        -0.5380
      6 C4          0.3865    0.3269   -1.2500 C.ar      1 <0>         0.0428
      7 C5          0.3563    1.5910   -0.6579 C.ar      1 <0>        -0.1004
      8 C6          0.4862    2.7237   -1.4351 C.ar      1 <0>        -0.0886
      9 C7          0.6472    2.6260   -2.8039 C.ar      1 <0>        -0.0626
     10 C8          0.6807    1.3733   -3.4209 C.ar      1 <0>        -0.0796
     11 C9          0.5501    0.2157   -2.6400 C.ar      1 <0>         0.1123
     12 N2          0.5458   -1.1324   -2.9221 N.pl3     1 <0>        -0.3864
     13 C10         0.6925   -1.7423   -4.2461 C.3       1 <0>         0.1264
     14 C11         2.1231   -2.1719   -4.4455 C.ar      1 <0>        -0.0673
     15 C12         3.1417   -1.4986   -3.7952 C.ar      1 <0>        -0.1124
     16 C13         4.4536   -1.8875   -3.9739 C.ar      1 <0>        -0.1013
     17 C14         4.7516   -2.9612   -4.8119 C.ar      1 <0>        -0.0485
     18 C15         3.7208   -3.6359   -5.4646 C.ar      1 <0>         0.0142
     19 C16         2.4122   -3.2416   -5.2737 C.ar      1 <0>        -0.1183
     20 C17         6.1587   -3.3834   -5.0084 C.ar      1 <0>        -0.0348
     21 C18         7.1331   -2.4432   -5.3319 C.ar      1 <0>        -0.1093
     22 C19         8.4423   -2.8406   -5.5141 C.ar      1 <0>        -0.1346
     23 C20         8.7960   -4.1725   -5.3770 C.ar      1 <0>        -0.1237
     24 C21         7.8438   -5.1182   -5.0567 C.ar      1 <0>        -0.1050
     25 C22         6.5180   -4.7340   -4.8635 C.ar      1 <0>         0.0486
     26 C23         5.4946   -5.7426   -4.5146 C.2       1 <0>         0.0745
     27 N3          4.1937   -5.5236   -4.3126 N.2       1 <0>        -0.3488
     28 N4          3.6493   -6.6577   -4.0308 N.2       1 <0>        -0.1955
     29 N5          4.5498   -7.5771   -4.0472 N.2       1 <0>        -0.1947
     30 N6          5.6889   -7.0521   -4.3454 N.2       1 <0>        -0.3664
     31 C24         0.8512    1.2690   -4.8788 C.2       1 <0>         0.5106
     32 O2          0.3623    2.1159   -5.6140 O.co2     1 <0>        -0.6575
     33 O3          1.4820    0.3354   -5.3557 O.co2     1 <0>        -0.6401
     34 H1         -0.7389   -5.5014   -0.9632 H         1 <0>         0.0782
     35 H2          1.0262   -5.5584   -0.7413 H         1 <0>         0.0871
     36 H3         -0.0498   -5.5712    0.6765 H         1 <0>         0.0948
     37 H4         -0.8038   -3.2742    0.1250 H         1 <0>         0.0803
     38 H5          0.9614   -3.3312    0.3469 H         1 <0>         0.0822
     39 H6          0.2307    1.6824    0.4109 H         1 <0>         0.1397
     40 H7          0.4613    3.6973   -0.9684 H         1 <0>         0.1451
     41 H8          0.7472    3.5217   -3.3991 H         1 <0>         0.1508
     42 H9          0.0385   -2.6111   -4.3204 H         1 <0>         0.0967
     43 H10         0.4209   -1.0165   -5.0126 H         1 <0>         0.1788
     44 H11         2.9097   -0.6668   -3.1466 H         1 <0>         0.0960
     45 H12         5.2480   -1.3609   -3.4660 H         1 <0>         0.1084
     46 H13         3.9457   -4.4684   -6.1149 H         1 <0>         0.1140
     47 H14         1.6126   -3.7663   -5.7753 H         1 <0>         0.1129
     48 H15         6.8645   -1.4028   -5.4408 H         1 <0>         0.1212
     49 H16         9.1954   -2.1084   -5.7653 H         1 <0>         0.1166
     50 H17         9.8233   -4.4727   -5.5221 H         1 <0>         0.1173
     51 H18         8.1264   -6.1553   -4.9517 H         1 <0>         0.1276
     52 H19         0.1656   -1.1668    0.1759 H         1 <0>         0.4474
@<TRIPOS>BOND
     1    1    2 1
     2    1   34 1
     3    1   35 1
     4    1   36 1
     5    2    3 1
     6    2   37 1
     7    2   38 1
     8    3    4 1
     9    4   12 1
    10    4    5 2
    11    5    6 1
    12    5   52 1
    13    6   11 ar
    14    6    7 ar
    15    7    8 ar
    16    7   39 1
    17    8    9 ar
    18    8   40 1
    19    9   10 ar
    20    9   41 1
    21   10   11 ar
    22   10   31 1
    23   11   12 1
    24   12   13 1
    25   13   14 1
    26   13   42 1
    27   13   43 1
    28   14   19 ar
    29   14   15 ar
    30   15   16 ar
    31   15   44 1
    32   16   17 ar
    33   16   45 1
    34   17   18 ar
    35   17   20 1
    36   18   19 ar
    37   18   46 1
    38   19   47 1
    39   20   25 ar
    40   20   21 ar
    41   21   22 ar
    42   21   48 1
    43   22   23 ar
    44   22   49 1
    45   23   24 ar
    46   23   50 1
    47   24   25 ar
    48   24   51 1
    49   25   26 1
    50   26   30 2
    51   26   27 1
    52   27   28 1
    53   28   29 2
    54   29   30 1
    55   31   32 2
    56   31   33 1
@<TRIPOS>MOLECULE
ZINC01530886
   68    73     0     0     0
SMALL
USER_CHARGES

@<TRIPOS>ATOM
      1 C1          0.5194    0.5989   -0.6499 C.3       1 <0>        -0.1519
      2 C2          0.5553   -0.9228   -0.4944 C.3       1 <0>        -0.1180
      3 C3         -0.8744   -1.4676   -0.4781 C.3       1 <0>        -0.0509
      4 C4         -0.8390   -2.9664   -0.3250 C.2       1 <0>         0.2998
      5 N1         -0.7870   -3.8153   -1.3104 N.2       1 <0>        -0.4956
      6 C5         -0.7679   -5.0811   -0.8228 C.ar      1 <0>         0.0676
      7 C6         -0.7166   -6.3432   -1.4255 C.ar      1 <0>        -0.0329
      8 C7         -0.7106   -7.4677   -0.6561 C.ar      1 <0>        -0.1279
      9 C8         -0.7553   -7.3741    0.7409 C.ar      1 <0>        -0.0241
     10 C9         -0.8066   -6.1262    1.3568 C.ar      1 <0>        -0.0473
     11 C10        -0.8125   -4.9799    0.5794 C.ar      1 <0>         0.0513
     12 N2         -0.8510   -3.6282    0.8627 N.pl3     1 <0>        -0.4696
     13 C11        -0.8997   -3.0209    2.1950 C.3       1 <0>         0.1532
     14 C12        -2.3363   -2.8503    2.6171 C.ar      1 <0>        -0.1289
     15 C13        -3.0114   -1.6833    2.3071 C.ar      1 <0>        -0.1160
     16 C14        -4.3269   -1.5212    2.6909 C.ar      1 <0>        -0.1152
     17 C15        -4.9758   -2.5369    3.3923 C.ar      1 <0>         0.0068
     18 C16        -4.2901   -3.7111    3.7015 C.ar      1 <0>        -0.0185
     19 C17        -2.9763   -3.8635    3.3081 C.ar      1 <0>        -0.1063
     20 C18        -6.3880   -2.3689    3.8077 C.ar      1 <0>        -0.0330
     21 C19        -7.3736   -2.1235    2.8559 C.ar      1 <0>        -0.1240
     22 C20        -8.6883   -1.9680    3.2469 C.ar      1 <0>        -0.1295
     23 C21        -9.0381   -2.0543    4.5848 C.ar      1 <0>        -0.1359
     24 C22        -8.0772   -2.2963    5.5435 C.ar      1 <0>        -0.0877
     25 C23        -6.7424   -2.4622    5.1668 C.ar      1 <0>        -0.1204
     26 C24        -5.7120   -2.7270    6.1853 C.2       1 <0>         0.5154
     27 O1         -6.0382   -2.9345    7.3459 O.co2     1 <0>        -0.6857
     28 O2         -4.5299   -2.7394    5.8706 O.co2     1 <0>        -0.6646
     29 C25        -0.7486   -8.6023    1.5628 C.2       1 <0>         0.3358
     30 N3         -0.4281   -8.6582    2.8328 N.2       1 <0>        -0.4807
     31 C26        -0.5296   -9.9362    3.2723 C.ar      1 <0>         0.0523
     32 C27        -0.3102  -10.5463    4.5117 C.ar      1 <0>        -0.0617
     33 C28        -0.5006  -11.8916    4.6514 C.ar      1 <0>        -0.1297
     34 C29        -0.9109  -12.6642    3.5740 C.ar      1 <0>        -0.1036
     35 C30        -1.1335  -12.0847    2.3426 C.ar      1 <0>        -0.1118
     36 C31        -0.9454  -10.7191    2.1808 C.ar      1 <0>         0.0484
     37 N4         -1.0820   -9.8522    1.1139 N.pl3     1 <0>        -0.4885
     38 C32        -1.5019  -10.2047   -0.2446 C.3       1 <0>         0.0713
     39 C33        -0.6687   -6.4586   -2.9273 C.3       1 <0>        -0.1058
     40 H1          1.5379    0.9870   -0.6615 H         1 <0>         0.0575
     41 H2          0.0215    0.8570   -1.5845 H         1 <0>         0.0578
     42 H3         -0.0268    1.0367    0.1857 H         1 <0>         0.0577
     43 H4          1.1014   -1.3606   -1.3299 H         1 <0>         0.0708
     44 H5          1.0531   -1.1809    0.4403 H         1 <0>         0.0625
     45 H6         -1.4205   -1.0298    0.3574 H         1 <0>         0.0902
     46 H7         -1.3722   -1.2095   -1.4128 H         1 <0>         0.1007
     47 H8         -0.6713   -8.4388   -1.1270 H         1 <0>         0.1329
     48 H9         -0.8418   -6.0527    2.4337 H         1 <0>         0.1368
     49 H10        -0.3859   -3.6663    2.9074 H         1 <0>         0.0990
     50 H11        -0.4106   -2.0472    2.1685 H         1 <0>         0.1003
     51 H12        -2.5078   -0.8974    1.7638 H         1 <0>         0.1128
     52 H13        -4.8527   -0.6094    2.4489 H         1 <0>         0.1151
     53 H14        -4.7874   -4.5011    4.2447 H         1 <0>         0.1134
     54 H15        -2.4453   -4.7740    3.5437 H         1 <0>         0.1119
     55 H16        -7.1095   -2.0544    1.8109 H         1 <0>         0.1154
     56 H17        -9.4495   -1.7774    2.5049 H         1 <0>         0.1144
     57 H18       -10.0700   -1.9309    4.8786 H         1 <0>         0.1146
     58 H19        -8.3570   -2.3619    6.5846 H         1 <0>         0.1273
     59 H20         0.0096   -9.9547    5.3568 H         1 <0>         0.1303
     60 H21        -0.3297  -12.3590    5.6099 H         1 <0>         0.1288
     61 H22        -1.0566  -13.7268    3.7008 H         1 <0>         0.1284
     62 H23        -1.4530  -12.6908    1.5078 H         1 <0>         0.1201
     63 H24        -0.6216  -10.3622   -0.8677 H         1 <0>         0.0777
     64 H25        -2.0950  -11.1188   -0.2158 H         1 <0>         0.0857
     65 H26        -2.1017   -9.3954   -0.6610 H         1 <0>         0.0949
     66 H27         0.3698   -6.4595   -3.2587 H         1 <0>         0.0698
     67 H28        -1.1493   -7.3870   -3.2359 H         1 <0>         0.0633
     68 H29        -1.1918   -5.6129   -3.3737 H         1 <0>         0.0739
@<TRIPOS>BOND
     1    1    2 1
     2    1   40 1
     3    1   41 1
     4    1   42 1
     5    2    3 1
     6    2   43 1
     7    2   44 1
     8    3    4 1
     9    3   45 1
    10    3   46 1
    11    4   12 1
    12    4    5 2
    13    5    6 1
    14    6   11 ar
    15    6    7 ar
    16    7    8 ar
    17    7   39 1
    18    8    9 ar
    19    8   47 1
    20    9   10 ar
    21    9   29 1
    22   10   11 ar
    23   10   48 1
    24   11   12 1
    25   12   13 1
    26   13   14 1
    27   13   49 1
    28   13   50 1
    29   14   19 ar
    30   14   15 ar
    31   15   16 ar
    32   15   51 1
    33   16   17 ar
    34   16   52 1
    35   17   18 ar
    36   17   20 1
    37   18   19 ar
    38   18   53 1
    39   19   54 1
    40   20   25 ar
    41   20   21 ar
    42   21   22 ar
    43   21   55 1
    44   22   23 ar
    45   22   56 1
    46   23   24 ar
    47   23   57 1
    48   24   25 ar
    49   24   58 1
    50   25   26 1
    51   26   27 2
    52   26   28 1
    53   29   37 1
    54   29   30 2
    55   30   31 1
    56   31   36 ar
    57   31   32 ar
    58   32   33 ar
    59   32   59 1
    60   33   34 ar
    61   33   60 1
    62   34   35 ar
    63   34   61 1
    64   35   36 ar
    65   35   62 1
    66   36   37 1
    67   37   38 1
    68   38   63 1
    69   38   64 1
    70   38   65 1
    71   39   66 1
    72   39   67 1
    73   39   68 1
@<TRIPOS>MOLECULE
ZINC01530886
   69    74     0     0     0
SMALL
USER_CHARGES

@<TRIPOS>ATOM
      1 C1          0.8671    1.5147   -0.8610 C.3       1 <0>        -0.1543
      2 C2          0.6450    0.0015   -0.8215 C.3       1 <0>        -0.1168
      3 C3          1.1107   -0.6170   -2.1411 C.3       1 <0>        -0.0598
      4 C4          0.8919   -2.1076   -2.1021 C.2       1 <0>         0.3306
      5 N1          1.7590   -2.9772   -1.6704 N.2       1 <0>        -0.4921
      6 C5          1.2430   -4.2276   -1.7744 C.ar      1 <0>         0.1019
      7 C6          1.7352   -5.5000   -1.4624 C.ar      1 <0>        -0.0150
      8 C7          0.9663   -6.6028   -1.6841 C.ar      1 <0>        -0.1017
      9 C8         -0.3199   -6.4765   -2.2244 C.ar      1 <0>        -0.1051
     10 C9         -0.8250   -5.2178   -2.5404 C.ar      1 <0>        -0.0358
     11 C10        -0.0479   -4.0934   -2.3167 C.ar      1 <0>         0.0437
     12 N2         -0.2420   -2.7389   -2.5073 N.pl3     1 <0>        -0.4663
     13 C11        -1.4448   -2.1016   -3.0490 C.3       1 <0>         0.1517
     14 C12        -1.3258   -1.9959   -4.5475 C.ar      1 <0>        -0.1396
     15 C13        -0.7488   -0.8741   -5.1154 C.ar      1 <0>        -0.1110
     16 C14        -0.6370   -0.7717   -6.4869 C.ar      1 <0>        -0.1121
     17 C15        -1.1068   -1.8020   -7.3009 C.ar      1 <0>         0.0196
     18 C16        -1.6871   -2.9305   -6.7225 C.ar      1 <0>        -0.0192
     19 C17        -1.7889   -3.0236   -5.3496 C.ar      1 <0>        -0.1121
     20 C18        -0.9903   -1.6979   -8.7742 C.ar      1 <0>        -0.0427
     21 C19         0.2575   -1.5306   -9.3680 C.ar      1 <0>        -0.1228
     22 C20         0.3619   -1.4345  -10.7410 C.ar      1 <0>        -0.1274
     23 C21        -0.7694   -1.5033  -11.5381 C.ar      1 <0>        -0.1308
     24 C22        -2.0148   -1.6684  -10.9700 C.ar      1 <0>        -0.0866
     25 C23        -2.1401   -1.7734   -9.5828 C.ar      1 <0>        -0.1205
     26 C24        -3.4669   -1.9560   -8.9699 C.2       1 <0>         0.5167
     27 O1         -4.4464   -2.1471   -9.6773 O.co2     1 <0>        -0.6806
     28 O2         -3.5893   -1.9165   -7.7534 O.co2     1 <0>        -0.6712
     29 C25        -1.1424   -7.6815   -2.4598 C.cat     1 <0>         0.4619
     30 N3         -0.6817   -8.8439   -2.8541 N.pl3     1 <0>        -0.4949
     31 C26        -1.7055   -9.7243   -2.9693 C.ar      1 <0>         0.0520
     32 C27        -1.7782  -11.0697   -3.3451 C.ar      1 <0>        -0.0785
     33 C28        -2.9866  -11.7062   -3.3662 C.ar      1 <0>        -0.0821
     34 C29        -4.1483  -11.0317   -3.0178 C.ar      1 <0>        -0.0706
     35 C30        -4.1012   -9.7052   -2.6440 C.ar      1 <0>        -0.0876
     36 C31        -2.8828   -9.0410   -2.6163 C.ar      1 <0>         0.0794
     37 N4         -2.4995   -7.7537   -2.2933 N.pl3     1 <0>        -0.4316
     38 C32        -3.3809   -6.6677   -1.8572 C.3       1 <0>         0.0561
     39 C33         3.1174   -5.6507   -0.8811 C.3       1 <0>        -0.1156
     40 H1          1.9273    1.7227   -1.0056 H         1 <0>         0.0607
     41 H2          0.2970    1.9442   -1.6848 H         1 <0>         0.0597
     42 H3          0.5353    1.9554    0.0791 H         1 <0>         0.0614
     43 H4          1.2151   -0.4280    0.0023 H         1 <0>         0.0727
     44 H5         -0.4152   -0.2065   -0.6769 H         1 <0>         0.0627
     45 H6          0.5406   -0.1875   -2.9649 H         1 <0>         0.0961
     46 H7          2.1709   -0.4091   -2.2856 H         1 <0>         0.1088
     47 H8          1.3517   -7.5821   -1.4417 H         1 <0>         0.1367
     48 H9         -1.8163   -5.1191   -2.9577 H         1 <0>         0.1352
     49 H10        -2.3192   -2.7009   -2.7953 H         1 <0>         0.0980
     50 H11        -1.5514   -1.1045   -2.6218 H         1 <0>         0.1081
     51 H12        -0.3853   -0.0769   -4.4840 H         1 <0>         0.1154
     52 H13        -0.1870    0.1049   -6.9292 H         1 <0>         0.1197
     53 H14        -2.0530   -3.7314   -7.3478 H         1 <0>         0.1141
     54 H15        -2.2348   -3.8987   -4.9003 H         1 <0>         0.1020
     55 H16         1.1443   -1.4755   -8.7541 H         1 <0>         0.1155
     56 H17         1.3321   -1.3043  -11.1972 H         1 <0>         0.1170
     57 H18        -0.6751   -1.4269  -12.6113 H         1 <0>         0.1176
     58 H19        -2.8923   -1.7209  -11.5974 H         1 <0>         0.1292
     59 H20        -0.8805  -11.6042   -3.6185 H         1 <0>         0.1511
     60 H21        -3.0385  -12.7449   -3.6573 H         1 <0>         0.1542
     61 H22        -5.0960  -11.5493   -3.0400 H         1 <0>         0.1547
     62 H23        -5.0084   -9.1854   -2.3736 H         1 <0>         0.1505
     63 H24        -3.6630   -6.0610   -2.7176 H         1 <0>         0.1079
     64 H25        -4.2765   -7.0882   -1.3998 H         1 <0>         0.1168
     65 H26        -2.8590   -6.0461   -1.1297 H         1 <0>         0.1122
     66 H27         3.0611   -5.6054    0.2065 H         1 <0>         0.0797
     67 H28         3.5361   -6.6105   -1.1836 H         1 <0>         0.0715
     68 H29         3.7547   -4.8451   -1.2458 H         1 <0>         0.0823
     69 H30         0.2500   -9.0432   -3.0360 H         1 <0>         0.4596
@<TRIPOS>BOND
     1    1    2 1
     2    1   40 1
     3    1   41 1
     4    1   42 1
     5    2    3 1
     6    2   43 1
     7    2   44 1
     8    3    4 1
     9    3   45 1
    10    3   46 1
    11    4   12 1
    12    4    5 2
    13    5    6 1
    14    6   11 ar
    15    6    7 ar
    16    7    8 ar
    17    7   39 1
    18    8    9 ar
    19    8   47 1
    20    9   10 ar
    21    9   29 1
    22   10   11 ar
    23   10   48 1
    24   11   12 1
    25   12   13 1
    26   13   14 1
    27   13   49 1
    28   13   50 1
    29   14   19 ar
    30   14   15 ar
    31   15   16 ar
    32   15   51 1
    33   16   17 ar
    34   16   52 1
    35   17   18 ar
    36   17   20 1
    37   18   19 ar
    38   18   53 1
    39   19   54 1
    40   20   25 ar
    41   20   21 ar
    42   21   22 ar
    43   21   55 1
    44   22   23 ar
    45   22   56 1
    46   23   24 ar
    47   23   57 1
    48   24   25 ar
    49   24   58 1
    50   25   26 1
    51   26   27 2
    52   26   28 1
    53   29   37 1
    54   29   30 2
    55   30   31 1
    56   30   69 1
    57   31   36 ar
    58   31   32 ar
    59   32   33 ar
    60   32   59 1
    61   33   34 ar
    62   33   60 1
    63   34   35 ar
    64   34   61 1
    65   35   36 ar
    66   35   62 1
    67   36   37 1
    68   37   38 1
    69   38   63 1
    70   38   64 1
    71   38   65 1
    72   39   66 1
    73   39   67 1
    74   39   68 1
@<TRIPOS>MOLECULE
ZINC13897226
   59    61     0     0     0
SMALL
USER_CHARGES

@<TRIPOS>ATOM
      1 C1         -3.7969    2.9532   -0.4862 C.3       1 <0>        -0.1486
      2 C2         -2.9165    1.7278   -0.2328 C.3       1 <0>        -0.1263
      3 C3         -3.6855    0.4603   -0.6108 C.3       1 <0>        -0.0989
      4 C4         -2.8050   -0.7650   -0.3574 C.3       1 <0>        -0.1413
      5 C5         -3.5625   -2.0135   -0.7298 C.2       1 <0>         0.5120
      6 O1         -4.7244   -1.9392   -1.0694 O.2       1 <0>        -0.5694
      7 N1         -2.9487   -3.2126   -0.6853 N.am      1 <0>        -0.5545
      8 C6         -3.6474   -4.4110   -1.1565 C.3       1 <0>         0.1448
      9 C7         -3.5174   -4.5120   -2.6544 C.ar      1 <0>        -0.0337
     10 C8         -3.9547   -3.4724   -3.4555 C.ar      1 <0>        -0.1404
     11 C9         -3.8383   -3.5592   -4.8278 C.ar      1 <0>        -0.1117
     12 C10        -3.2787   -4.6974   -5.4066 C.ar      1 <0>        -0.0730
     13 C11        -2.8397   -5.7419   -4.5941 C.ar      1 <0>         0.0067
     14 C12        -2.9561   -5.6414   -3.2227 C.ar      1 <0>        -0.0720
     15 C13        -3.1513   -4.7969   -6.8799 C.ar      1 <0>        -0.0204
     16 C14        -4.2453   -4.5256   -7.6972 C.ar      1 <0>        -0.1165
     17 C15        -4.1224   -4.6194   -9.0687 C.ar      1 <0>        -0.1460
     18 C16        -2.9148   -4.9828   -9.6411 C.ar      1 <0>        -0.1342
     19 C17        -1.8199   -5.2554   -8.8469 C.ar      1 <0>        -0.1120
     20 C18        -1.9243   -5.1600   -7.4602 C.ar      1 <0>         0.0605
     21 C19        -0.7526   -5.4455   -6.6048 C.2       1 <0>         0.0411
     22 N2         -0.7084   -5.4059   -5.2715 N.2       1 <0>        -0.2981
     23 N3          0.4903   -5.7181   -4.9143 N.2       1 <0>        -0.1577
     24 N4          1.1990   -5.9514   -5.9629 N.2       1 <0>        -0.2169
     25 N5          0.4676   -5.7993   -7.0136 N.2       1 <0>        -0.3836
     26 C20        -1.5829   -3.3175   -0.1660 C.3       1 <0>         0.0577
     27 H1         -1.1746   -2.3186   -0.0130 H         1 <0>         0.0722
     28 C21        -1.6002   -4.0708    1.1657 C.3       1 <0>        -0.0851
     29 C22        -2.4544   -3.3019    2.1755 C.3       1 <0>        -0.1425
     30 C23        -2.1918   -5.4659    0.9548 C.3       1 <0>        -0.1465
     31 C24        -0.7255   -4.0647   -1.1547 C.2       1 <0>         0.4694
     32 O2         -1.0884   -4.1776   -2.3132 O.co2     1 <0>        -0.6053
     33 O3          0.3310   -4.5564   -0.7962 O.co2     1 <0>        -0.7028
     34 H2         -3.2490    3.8562   -0.2168 H         1 <0>         0.0482
     35 H3         -4.0682    2.9938   -1.5411 H         1 <0>         0.0535
     36 H4         -4.7008    2.8825    0.1190 H         1 <0>         0.0511
     37 H5         -2.0126    1.7985   -0.8379 H         1 <0>         0.0615
     38 H6         -2.6452    1.6872    0.8222 H         1 <0>         0.0581
     39 H7         -4.5893    0.3897   -0.0057 H         1 <0>         0.0647
     40 H8         -3.9567    0.5009   -1.6657 H         1 <0>         0.0663
     41 H9         -1.9012   -0.6944   -0.9625 H         1 <0>         0.0888
     42 H10        -2.5338   -0.8057    0.6975 H         1 <0>         0.0828
     43 H11        -3.2070   -5.2939   -0.6932 H         1 <0>         0.0992
     44 H12        -4.7015   -4.3466   -0.8867 H         1 <0>         0.0635
     45 H13        -4.3884   -2.5913   -3.0061 H         1 <0>         0.1134
     46 H14        -4.1804   -2.7471   -5.4523 H         1 <0>         0.0927
     47 H15        -2.4053   -6.6260   -5.0369 H         1 <0>         0.0976
     48 H16        -2.6124   -6.4480   -2.5921 H         1 <0>         0.0938
     49 H17        -5.1902   -4.2420   -7.2579 H         1 <0>         0.1156
     50 H18        -4.9733   -4.4085   -9.6995 H         1 <0>         0.1083
     51 H19        -2.8296   -5.0535  -10.7154 H         1 <0>         0.1094
     52 H20        -0.8812   -5.5385   -9.2997 H         1 <0>         0.1227
     53 H21        -0.5823   -4.1613    1.5451 H         1 <0>         0.0814
     54 H22        -3.4723   -3.2114    1.7961 H         1 <0>         0.0493
     55 H23        -2.4667   -3.8385    3.1242 H         1 <0>         0.0434
     56 H24        -2.0330   -2.3080    2.3258 H         1 <0>         0.0437
     57 H25        -1.9698   -6.0894    1.8209 H         1 <0>         0.0382
     58 H26        -3.2718   -5.3876    0.8307 H         1 <0>         0.0530
     59 H27        -1.7551   -5.9147    0.0626 H         1 <0>         0.0727
@<TRIPOS>BOND
     1    1    2 1
     2    1   34 1
     3    1   35 1
     4    1   36 1
     5    2    3 1
     6    2   37 1
     7    2   38 1
     8    3    4 1
     9    3   39 1
    10    3   40 1
    11    4    5 1
    12    4   41 1
    13    4   42 1
    14    5    6 2
    15    5    7 am
    16    7    8 1
    17    7   26 1
    18    8    9 1
    19    8   43 1
    20    8   44 1
    21    9   14 ar
    22    9   10 ar
    23   10   11 ar
    24   10   45 1
    25   11   12 ar
    26   11   46 1
    27   12   13 ar
    28   12   15 1
    29   13   14 ar
    30   13   47 1
    31   14   48 1
    32   15   20 ar
    33   15   16 ar
    34   16   17 ar
    35   16   49 1
    36   17   18 ar
    37   17   50 1
    38   18   19 ar
    39   18   51 1
    40   19   20 ar
    41   19   52 1
    42   20   21 1
    43   21   25 2
    44   21   22 1
    45   22   23 1
    46   23   24 2
    47   24   25 1
    48   26   27 1
    49   26   28 1
    50   26   31 1
    51   28   29 1
    52   28   30 1
    53   28   53 1
    54   29   54 1
    55   29   55 1
    56   29   56 1
    57   30   57 1
    58   30   58 1
    59   30   59 1
    60   31   32 2
    61   31   33 1
@<TRIPOS>MOLECULE
ZINC27076225
   54    57     0     0     0
SMALL
USER_CHARGES
5-ethyl-2-propyl-3-[[4-[2-(2H-tetrazol-5-yl)phenyl]phenyl]methyl]imidazole-4-carboxylic acid
@<TRIPOS>ATOM
      1 C1         -2.7740   -2.0727   -1.4737 C.3       1 <0>        -0.1574
      2 C2         -1.4771   -1.2617   -1.4399 C.3       1 <0>        -0.1228
      3 C3         -1.1660   -0.8571    0.0025 C.3       1 <0>        -0.0758
      4 C4          0.0432    0.0421    0.0223 C.cat     1 <0>         0.2677
      5 N1          1.2881   -0.3615    0.0381 N.pl3     1 <0>        -0.4945
      6 C5          2.1023    0.6935    0.0530 C.2       1 <0>         0.0538
      7 C6          1.3265    1.8197    0.0462 C.2       1 <0>         0.0358
      8 N2          0.0144    1.3864    0.0266 N.pl3     1 <0>        -0.3583
      9 C7         -1.1819    2.2320    0.0184 C.3       1 <0>         0.1299
     10 C8         -1.6835    2.4063    1.4288 C.ar      1 <0>        -0.1247
     11 C9         -2.6994    1.5964    1.9038 C.ar      1 <0>        -0.1187
     12 C10        -3.1588    1.7476    3.1963 C.ar      1 <0>         0.0009
     13 C11        -2.6053    2.7268    4.0198 C.ar      1 <0>        -0.0293
     14 C12        -1.5856    3.5438    3.5337 C.ar      1 <0>        -0.1080
     15 C13        -1.1301    3.3793    2.2415 C.ar      1 <0>        -0.1036
     16 C14        -3.0993    2.8989    5.4068 C.ar      1 <0>        -0.0430
     17 C15        -2.2006    2.9452    6.4694 C.ar      1 <0>        -0.1081
     18 C16        -2.6646    3.1113    7.7586 C.ar      1 <0>        -0.1351
     19 C17        -4.0226    3.2213    8.0051 C.ar      1 <0>        -0.1199
     20 C18        -4.9271    3.1717    6.9636 C.ar      1 <0>        -0.1044
     21 C19        -4.4758    3.0104    5.6568 C.ar      1 <0>         0.0536
     22 C20        -5.4442    2.9561    4.5348 C.2       1 <0>         0.0747
     23 N3         -6.7568    3.0469    4.6221 N.2       1 <0>        -0.3633
     24 N4         -7.2384    2.9559    3.4302 N.2       1 <0>        -0.1967
     25 N5         -6.2734    2.8103    2.5907 N.2       1 <0>        -0.1862
     26 N6         -5.1551    2.8109    3.2335 N.2       1 <0>        -0.3566
     27 C21         1.7936    3.2092    0.0575 C.2       1 <0>         0.5165
     28 O1          2.9854    3.4499    0.0748 O.co2     1 <0>        -0.5861
     29 O2          0.9014    4.2206    0.0487 O.co2     1 <0>        -0.7048
     30 C22         3.6086    0.6528    0.0745 C.3       1 <0>        -0.0556
     31 C23         4.0977    0.6334    1.5241 C.3       1 <0>        -0.1465
     32 H1         -2.9976   -2.3636   -2.5107 H         1 <0>         0.0645
     33 H2         -3.5989   -1.4618   -1.0782 H         1 <0>         0.0667
     34 H3         -2.6579   -2.9758   -0.8565 H         1 <0>         0.0605
     35 H4         -0.6522   -1.8726   -1.8354 H         1 <0>         0.0697
     36 H5         -1.5932   -0.3586   -2.0571 H         1 <0>         0.0737
     37 H6         -2.0280   -0.3218    0.4272 H         1 <0>         0.1206
     38 H7         -0.9630   -1.7579    0.6003 H         1 <0>         0.1117
     39 H8         -0.9327    3.2156   -0.4064 H         1 <0>         0.1553
     40 H9         -1.9632    1.7561   -0.5925 H         1 <0>         0.1049
     41 H10        -3.1307    0.8413    1.2634 H         1 <0>         0.1100
     42 H11        -3.9488    1.1116    3.5676 H         1 <0>         0.1159
     43 H12        -1.1533    4.3043    4.1671 H         1 <0>         0.1165
     44 H13        -0.3402    4.0117    1.8639 H         1 <0>         0.1461
     45 H14        -1.1404    2.8555    6.2843 H         1 <0>         0.1201
     46 H15        -1.9647    3.1513    8.5802 H         1 <0>         0.1175
     47 H16        -4.3761    3.3462    9.0179 H         1 <0>         0.1189
     48 H17        -5.9851    3.2584    7.1627 H         1 <0>         0.1293
     49 H18         3.9583   -0.2529   -0.4426 H         1 <0>         0.0760
     50 H19         4.0068    1.5427   -0.4349 H         1 <0>         0.1240
     51 H20         5.1972    0.6037    1.5397 H         1 <0>         0.0695
     52 H21         3.6996   -0.2565    2.0335 H         1 <0>         0.0466
     53 H22         3.7480    1.5391    2.0412 H         1 <0>         0.0704
     54 H23         1.5176   -1.4373    0.0375 H         1 <0>         0.4781
@<TRIPOS>BOND
     1    1    2 1
     2    1   32 1
     3    1   33 1
     4    1   34 1
     5    2    3 1
     6    2   35 1
     7    2   36 1
     8    3    4 1
     9    3   37 1
    10    3   38 1
    11    4    8 1
    12    4    5 2
    13    5    6 1
    14    5   54 1
    15    6    7 2
    16    6   30 1
    17    7    8 1
    18    7   27 1
    19    8    9 1
    20    9   10 1
    21    9   39 1
    22    9   40 1
    23   10   15 ar
    24   10   11 ar
    25   11   12 ar
    26   11   41 1
    27   12   13 ar
    28   12   42 1
    29   13   14 ar
    30   13   16 1
    31   14   15 ar
    32   14   43 1
    33   15   44 1
    34   16   21 ar
    35   16   17 ar
    36   17   18 ar
    37   17   45 1
    38   18   19 ar
    39   18   46 1
    40   19   20 ar
    41   19   47 1
    42   20   21 ar
    43   20   48 1
    44   21   22 1
    45   22   26 1
    46   22   23 2
    47   23   24 1
    48   24   25 2
    49   25   26 1
    50   27   28 2
    51   27   29 1
    52   30   31 1
    53   30   49 1
    54   30   50 1
    55   31   51 1
    56   31   52 1
    57   31   53 1
@<TRIPOS>MOLECULE
ZINC03831602
   59    61     0     0     0
SMALL
USER_CHARGES

@<TRIPOS>ATOM
      1 C1         -4.1062    2.1543    0.9102 C.3       1 <0>        -0.1497
      2 C2         -4.7065    0.8077    0.5015 C.3       1 <0>        -0.1234
      3 C3         -3.6164   -0.2655    0.5274 C.3       1 <0>        -0.1021
      4 C4         -4.2166   -1.6122    0.1186 C.3       1 <0>        -0.1425
      5 C5         -3.1429   -2.6693    0.1441 C.2       1 <0>         0.5173
      6 O1         -1.9909   -2.3584    0.3615 O.2       1 <0>        -0.5141
      7 N1         -3.4627   -3.9601   -0.0747 N.am      1 <0>        -0.5793
      8 C6         -4.8319   -4.3222   -0.4492 C.3       1 <0>         0.1536
      9 C7         -4.9237   -4.4583   -1.9472 C.ar      1 <0>        -0.0862
     10 C8         -5.1619   -3.3409   -2.7272 C.ar      1 <0>        -0.1306
     11 C9         -5.2469   -3.4594   -4.0995 C.ar      1 <0>        -0.1024
     12 C10        -5.0922   -4.7083   -4.6995 C.ar      1 <0>        -0.0580
     13 C11        -4.8523   -5.8309   -3.9082 C.ar      1 <0>         0.0136
     14 C12        -4.7637   -5.6992   -2.5374 C.ar      1 <0>        -0.1107
     15 C13        -5.1829   -4.8423   -6.1728 C.ar      1 <0>        -0.0315
     16 C14        -6.2570   -4.2856   -6.8616 C.ar      1 <0>        -0.1119
     17 C15        -6.3377   -4.4126   -8.2337 C.ar      1 <0>        -0.1456
     18 C16        -5.3547   -5.0921   -8.9337 C.ar      1 <0>        -0.1279
     19 C17        -4.2829   -5.6502   -8.2678 C.ar      1 <0>        -0.1101
     20 C18        -4.1822   -5.5267   -6.8831 C.ar      1 <0>         0.0649
     21 C19        -3.0328   -6.1181   -6.1652 C.2       1 <0>         0.0475
     22 N2         -2.8122   -6.0888   -4.8493 N.2       1 <0>        -0.3311
     23 N3         -1.7069   -6.7143   -4.6280 N.2       1 <0>        -0.1483
     24 N4         -1.2251   -7.1341   -5.7451 N.2       1 <0>        -0.2039
     25 N5         -2.0147   -6.7913   -6.7049 N.2       1 <0>        -0.3782
     26 C20        -2.4411   -5.0012    0.0620 C.3       1 <0>         0.0900
     27 H1         -2.9033   -5.9814   -0.0549 H         1 <0>         0.0636
     28 C21        -1.7954   -4.9036    1.4457 C.3       1 <0>        -0.0992
     29 C22        -2.8456   -5.1926    2.5201 C.3       1 <0>        -0.1344
     30 C23        -0.6617   -5.9255    1.5527 C.3       1 <0>        -0.1349
     31 C24        -1.3871   -4.8131   -0.9986 C.2       1 <0>         0.5016
     32 O2         -1.3176   -3.7599   -1.6089 O.co2     1 <0>        -0.6691
     33 O3         -0.6039   -5.7141   -1.2463 O.co2     1 <0>        -0.6914
     34 H2         -4.8829    2.9189    0.8918 H         1 <0>         0.0471
     35 H3         -3.6950    2.0783    1.9168 H         1 <0>         0.0513
     36 H4         -3.3132    2.4252    0.2132 H         1 <0>         0.0542
     37 H5         -5.4996    0.5368    1.1985 H         1 <0>         0.0564
     38 H6         -5.1177    0.8837   -0.5051 H         1 <0>         0.0600
     39 H7         -2.8233    0.0053   -0.1696 H         1 <0>         0.0713
     40 H8         -3.2051   -0.3415    1.5340 H         1 <0>         0.0623
     41 H9         -5.0097   -1.8830    0.8156 H         1 <0>         0.0757
     42 H10        -4.6278   -1.5362   -0.8879 H         1 <0>         0.0871
     43 H11        -5.0980   -5.2700    0.0187 H         1 <0>         0.0694
     44 H12        -5.5183   -3.5453   -0.1123 H         1 <0>         0.0743
     45 H13        -5.2819   -2.3740   -2.2613 H         1 <0>         0.1056
     46 H14        -5.4333   -2.5864   -4.7074 H         1 <0>         0.1054
     47 H15        -4.7316   -6.8009   -4.3675 H         1 <0>         0.1088
     48 H16        -4.5735   -6.5673   -1.9237 H         1 <0>         0.1058
     49 H17        -7.0275   -3.7547   -6.3223 H         1 <0>         0.1171
     50 H18        -7.1727   -3.9798   -8.7646 H         1 <0>         0.1109
     51 H19        -5.4277   -5.1859  -10.0071 H         1 <0>         0.1122
     52 H20        -3.5200   -6.1791   -8.8198 H         1 <0>         0.1255
     53 H21        -1.3948   -3.9002    1.5897 H         1 <0>         0.0857
     54 H22        -3.2462   -6.1960    2.3760 H         1 <0>         0.0432
     55 H23        -2.3856   -5.1230    3.5058 H         1 <0>         0.0389
     56 H24        -3.6532   -4.4645    2.4438 H         1 <0>         0.0435
     57 H25        -0.2017   -5.8560    2.5384 H         1 <0>         0.0282
     58 H26        -1.0623   -6.9289    1.4086 H         1 <0>         0.0425
     59 H27         0.0865   -5.7196    0.7872 H         1 <0>         0.0823
@<TRIPOS>BOND
     1    1    2 1
     2    1   34 1
     3    1   35 1
     4    1   36 1
     5    2    3 1
     6    2   37 1
     7    2   38 1
     8    3    4 1
     9    3   39 1
    10    3   40 1
    11    4    5 1
    12    4   41 1
    13    4   42 1
    14    5    6 2
    15    5    7 am
    16    7    8 1
    17    7   26 1
    18    8    9 1
    19    8   43 1
    20    8   44 1
    21    9   14 ar
    22    9   10 ar
    23   10   11 ar
    24   10   45 1
    25   11   12 ar
    26   11   46 1
    27   12   13 ar
    28   12   15 1
    29   13   14 ar
    30   13   47 1
    31   14   48 1
    32   15   20 ar
    33   15   16 ar
    34   16   17 ar
    35   16   49 1
    36   17   18 ar
    37   17   50 1
    38   18   19 ar
    39   18   51 1
    40   19   20 ar
    41   19   52 1
    42   20   21 1
    43   21   25 2
    44   21   22 1
    45   22   23 1
    46   23   24 2
    47   24   25 1
    48   26   27 1
    49   26   28 1
    50   26   31 1
    51   28   29 1
    52   28   30 1
    53   28   53 1
    54   29   54 1
    55   29   55 1
    56   29   56 1
    57   30   57 1
    58   30   58 1
    59   30   59 1
    60   31   32 2
    61   31   33 1
@<TRIPOS>MOLECULE
ZINC11687040
   74    78     0     0     0
SMALL
USER_CHARGES
2-[4-[[2-butyl-6-(cyclohexylcarbamoylamino)benzimidazol-1-yl]methyl]phenyl]benzoic acid
@<TRIPOS>ATOM
      1 C1          0.1709    1.8160  -14.6673 C.3       1 <0>        -0.1518
      2 C2         -0.4305    0.5817  -13.9922 C.3       1 <0>        -0.1246
      3 C3         -0.6015    0.8513  -12.4959 C.3       1 <0>        -0.1128
      4 C4         -1.2029   -0.3830  -11.8208 C.3       1 <0>        -0.0478
      5 C5         -1.2599   -0.1630  -10.3310 C.2       1 <0>         0.2904
      6 N1         -2.2955    0.2832   -9.6827 N.2       1 <0>        -0.4934
      7 C6         -2.0062    0.3615   -8.3576 C.ar      1 <0>         0.0340
      8 C7         -2.7357    0.7655   -7.2358 C.ar      1 <0>        -0.0465
      9 C8         -2.1591    0.7322   -5.9989 C.ar      1 <0>        -0.1496
     10 C9         -0.8444    0.2979   -5.8405 C.ar      1 <0>         0.1722
     11 C10        -0.1034   -0.1013   -6.9397 C.ar      1 <0>        -0.1048
     12 C11        -0.6803   -0.0771   -8.2017 C.ar      1 <0>         0.0766
     13 N2         -0.2349   -0.4020   -9.4675 N.pl3     1 <0>        -0.4747
     14 C12         1.0945   -0.9090   -9.8167 C.3       1 <0>         0.1589
     15 C13         1.0816   -2.4156   -9.7856 C.ar      1 <0>        -0.1298
     16 C14         1.2680   -3.0816   -8.5874 C.ar      1 <0>        -0.0995
     17 C15         1.2515   -4.4610   -8.5518 C.ar      1 <0>        -0.0220
     18 C16         1.0579   -5.1837   -9.7285 C.ar      1 <0>        -0.0025
     19 C17         0.8764   -4.5069  -10.9340 C.ar      1 <0>        -0.1160
     20 C18         0.8891   -3.1272  -10.9562 C.ar      1 <0>        -0.1169
     21 C19         1.0448   -6.6651   -9.6978 C.ar      1 <0>        -0.0314
     22 C20         1.9476   -7.3896  -10.4709 C.ar      1 <0>        -0.1239
     23 C21         1.9318   -8.7695  -10.4399 C.ar      1 <0>        -0.1268
     24 C22         1.0217   -9.4433   -9.6419 C.ar      1 <0>        -0.1371
     25 C23         0.1194   -8.7437   -8.8683 C.ar      1 <0>        -0.0805
     26 C24         0.1236   -7.3480   -8.8829 C.ar      1 <0>        -0.0999
     27 C25        -0.8348   -6.5941   -8.0531 C.2       1 <0>         0.4824
     28 O1         -0.9066   -5.3854   -8.1543 O.co2     1 <0>        -0.6042
     29 N3         -0.2683    0.2706   -4.5642 N.am      1 <0>        -0.6833
     30 C26         0.6233   -0.6892   -4.2477 C.2       1 <0>         0.6976
     31 O2          0.8582   -1.5847   -5.0361 O.2       1 <0>        -0.5555
     32 N4          1.2546   -0.6566   -3.0574 N.am      1 <0>        -0.7403
     33 C27         2.2238   -1.6999   -2.7134 C.3       1 <0>         0.1642
     34 C28         3.2157   -1.1551   -1.6838 C.3       1 <0>        -0.1240
     35 C29         4.2279   -2.2448   -1.3245 C.3       1 <0>        -0.1154
     36 C30         3.4921   -3.4502   -0.7357 C.3       1 <0>        -0.1208
     37 C31         2.5002   -3.9950   -1.7654 C.3       1 <0>        -0.1188
     38 C32         1.4880   -2.9053   -2.1246 C.3       1 <0>        -0.1319
     39 H1         -0.4940    2.6680  -14.5253 H         1 <0>         0.0536
     40 H2          1.1423    2.0354  -14.2243 H         1 <0>         0.0527
     41 H3          0.2927    1.6239  -15.7333 H         1 <0>         0.0536
     42 H4          0.2344   -0.2703  -14.1342 H         1 <0>         0.0640
     43 H5         -1.4019    0.3623  -14.4352 H         1 <0>         0.0657
     44 H6         -1.2664    1.7033  -12.3539 H         1 <0>         0.0706
     45 H7          0.3699    1.0707  -12.0529 H         1 <0>         0.0609
     46 H8         -0.5828   -1.2532  -12.0361 H         1 <0>         0.0876
     47 H9         -2.2101   -0.5512  -12.2020 H         1 <0>         0.0992
     48 H10        -3.7551    1.1041   -7.3476 H         1 <0>         0.1303
     49 H11        -2.7270    1.0451   -5.1352 H         1 <0>         0.1281
     50 H12         0.9166   -0.4337   -6.8153 H         1 <0>         0.1324
     51 H13         1.3620   -0.5685  -10.8170 H         1 <0>         0.0953
     52 H14         1.8254   -0.5370   -9.0987 H         1 <0>         0.0920
     53 H15         1.4225   -2.5208   -7.6775 H         1 <0>         0.1185
     54 H16         1.3926   -4.9798   -7.6151 H         1 <0>         0.1130
     55 H17         0.7257   -5.0614  -11.8485 H         1 <0>         0.1150
     56 H18         0.7483   -2.6019  -11.8893 H         1 <0>         0.1129
     57 H19         2.6606   -6.8719  -11.0955 H         1 <0>         0.1173
     58 H20         2.6338   -9.3277  -11.0416 H         1 <0>         0.1154
     59 H21         1.0190  -10.5231   -9.6251 H         1 <0>         0.1158
     60 H22        -0.5875   -9.2754   -8.2487 H         1 <0>         0.1307
     61 H23        -0.5109    0.9426   -3.9081 H         1 <0>         0.4042
     62 H24         1.0673    0.0578   -2.4285 H         1 <0>         0.3933
     63 H25         2.7623   -2.0056   -3.6104 H         1 <0>         0.0899
     64 H26         3.7399   -0.2964   -2.1032 H         1 <0>         0.0668
     65 H27         2.6772   -0.8495   -0.7868 H         1 <0>         0.0662
     66 H28         4.7664   -2.5505   -2.2215 H         1 <0>         0.0659
     67 H29         4.9346   -1.8567   -0.5909 H         1 <0>         0.0650
     68 H30         2.9536   -3.1445    0.1613 H         1 <0>         0.0608
     69 H31         4.2132   -4.2265   -0.4798 H         1 <0>         0.0626
     70 H32         1.9760   -4.8537   -1.3459 H         1 <0>         0.0659
     71 H33         3.0388   -4.3006   -2.6624 H         1 <0>         0.0664
     72 H34         0.9495   -2.5996   -1.2276 H         1 <0>         0.0606
     73 H35         0.7814   -3.2934   -2.8582 H         1 <0>         0.0732
     74 O3         -1.6309   -7.2457   -7.1829 O.co2     1 <0>        -0.7552
@<TRIPOS>BOND
     1    1    2 1
     2    1   39 1
     3    1   40 1
     4    1   41 1
     5    2    3 1
     6    2   42 1
     7    2   43 1
     8    3    4 1
     9    3   44 1
    10    3   45 1
    11    4    5 1
    12    4   46 1
    13    4   47 1
    14    5   13 1
    15    5    6 2
    16    6    7 1
    17    7   12 ar
    18    7    8 ar
    19    8    9 ar
    20    8   48 1
    21    9   10 ar
    22    9   49 1
    23   10   11 ar
    24   10   29 1
    25   11   12 ar
    26   11   50 1
    27   12   13 1
    28   13   14 1
    29   14   15 1
    30   14   51 1
    31   14   52 1
    32   15   20 ar
    33   15   16 ar
    34   16   17 ar
    35   16   53 1
    36   17   18 ar
    37   17   54 1
    38   18   19 ar
    39   18   21 1
    40   19   20 ar
    41   19   55 1
    42   20   56 1
    43   21   26 ar
    44   21   22 ar
    45   22   23 ar
    46   22   57 1
    47   23   24 ar
    48   23   58 1
    49   24   25 ar
    50   24   59 1
    51   25   26 ar
    52   25   60 1
    53   26   27 1
    54   27   28 2
    55   27   74 1
    56   29   30 am
    57   29   61 1
    58   30   31 2
    59   30   32 am
    60   32   33 1
    61   32   62 1
    62   33   38 1
    63   33   34 1
    64   33   63 1
    65   34   35 1
    66   34   64 1
    67   34   65 1
    68   35   36 1
    69   35   66 1
    70   35   67 1
    71   36   37 1
    72   36   68 1
    73   36   69 1
    74   37   38 1
    75   37   70 1
    76   37   71 1
    77   38   72 1
    78   38   73 1
@<TRIPOS>MOLECULE
ZINC13298436
   59    63     0     0     0
SMALL
USER_CHARGES

@<TRIPOS>ATOM
      1 C1         -0.0187    1.5258    0.0104 C.3       1 <0>        -0.1515
      2 C2          0.0021   -0.0041    0.0020 C.3       1 <0>        -0.1259
      3 C3          0.7182   -0.4975   -1.2568 C.3       1 <0>        -0.1042
      4 C4          0.7390   -2.0273   -1.2652 C.3       1 <0>        -0.0650
      5 C5          1.4443   -2.5133   -2.5051 C.2       1 <0>         0.3553
      6 N1          1.9446   -1.7244   -3.3941 N.2       1 <0>        -0.5026
      7 C6          2.5387   -2.5645   -4.4341 C.3       1 <0>         0.0372
      8 C7          1.8838   -2.3055   -5.7977 C.3       1 <0>        -0.0921
      9 C8          2.8711   -1.3460   -6.5115 C.3       1 <0>        -0.1154
     10 C9          4.2550   -1.8748   -6.0570 C.3       1 <0>        -0.1201
     11 C10         4.0372   -2.2917   -4.5855 C.3       1 <0>        -0.0895
     12 C11         2.2851   -3.9781   -3.9734 C.2       1 <0>         0.5093
     13 O1          2.6050   -5.0082   -4.5272 O.2       1 <0>        -0.4735
     14 N2          1.6252   -3.8381   -2.8007 N.am      1 <0>        -0.5752
     15 C12         1.1649   -4.9497   -1.9648 C.3       1 <0>         0.1579
     16 C13        -0.2301   -5.3438   -2.3767 C.ar      1 <0>        -0.1153
     17 C14        -1.3216   -4.7387   -1.7799 C.ar      1 <0>        -0.1319
     18 C15        -2.6014   -5.0955   -2.1530 C.ar      1 <0>        -0.1050
     19 C16        -2.7931   -6.0679   -3.1335 C.ar      1 <0>        -0.0388
     20 C17        -1.6892   -6.6744   -3.7314 C.ar      1 <0>         0.0104
     21 C18        -0.4142   -6.3053   -3.3541 C.ar      1 <0>        -0.1071
     22 C19        -4.1651   -6.4559   -3.5382 C.ar      1 <0>        -0.0425
     23 C20        -5.1143   -6.7811   -2.5730 C.ar      1 <0>        -0.1084
     24 C21        -6.3909   -7.1419   -2.9542 C.ar      1 <0>        -0.1368
     25 C22        -6.7368   -7.1832   -4.2946 C.ar      1 <0>        -0.1204
     26 C23        -5.8093   -6.8642   -5.2650 C.ar      1 <0>        -0.1049
     27 C24        -4.5171   -6.4920   -4.8980 C.ar      1 <0>         0.0552
     28 C25        -3.5210   -6.1438   -5.9336 C.2       1 <0>         0.0680
     29 N3         -2.2520   -5.7828   -5.7320 N.2       1 <0>        -0.3506
     30 N4         -1.7232   -5.5650   -6.8873 N.2       1 <0>        -0.1875
     31 N5         -2.6028   -5.7729   -7.8034 N.2       1 <0>        -0.1914
     32 N6         -3.7120   -6.1340   -7.2544 N.2       1 <0>        -0.3651
     33 H1          1.0039    1.9031    0.0027 H         1 <0>         0.0533
     34 H2         -0.5459    1.8868   -0.8726 H         1 <0>         0.0548
     35 H3         -0.5289    1.8773    0.9072 H         1 <0>         0.0516
     36 H4          0.5293   -0.3651    0.8851 H         1 <0>         0.0605
     37 H5         -1.0205   -0.3814    0.0098 H         1 <0>         0.0625
     38 H6          0.1910   -0.1364   -2.1398 H         1 <0>         0.0733
     39 H7          1.7408   -0.1202   -1.2645 H         1 <0>         0.0716
     40 H8          1.2661   -2.3884   -0.3821 H         1 <0>         0.0910
     41 H9         -0.2836   -2.4046   -1.2575 H         1 <0>         0.0973
     42 H10         1.7838   -3.2360   -6.3566 H         1 <0>         0.0828
     43 H11         0.9120   -1.8286   -5.6706 H         1 <0>         0.0768
     44 H12         2.7663   -1.4197   -7.5940 H         1 <0>         0.0710
     45 H13         2.7214   -0.3194   -6.1772 H         1 <0>         0.0713
     46 H14         4.5506   -2.7352   -6.6575 H         1 <0>         0.0696
     47 H15         5.0050   -1.0867   -6.1232 H         1 <0>         0.0690
     48 H16         4.3401   -1.4844   -3.9188 H         1 <0>         0.0802
     49 H17         4.6064   -3.1945   -4.3639 H         1 <0>         0.0673
     50 H18         1.8348   -5.8003   -2.0903 H         1 <0>         0.0927
     51 H19         1.1615   -4.6410   -0.9194 H         1 <0>         0.0916
     52 H20        -1.1718   -3.9857   -1.0203 H         1 <0>         0.1126
     53 H21        -3.4527   -4.6226   -1.6862 H         1 <0>         0.1142
     54 H22        -1.8317   -7.4283   -4.4914 H         1 <0>         0.1145
     55 H23         0.4417   -6.7712   -3.8197 H         1 <0>         0.1139
     56 H24        -4.8516   -6.7514   -1.5259 H         1 <0>         0.1200
     57 H25        -7.1244   -7.3938   -2.2027 H         1 <0>         0.1168
     58 H26        -7.7384   -7.4672   -4.5820 H         1 <0>         0.1182
     59 H27        -6.0856   -6.8988   -6.3085 H         1 <0>         0.1288
@<TRIPOS>BOND
     1    1    2 1
     2    1   33 1
     3    1   34 1
     4    1   35 1
     5    2    3 1
     6    2   36 1
     7    2   37 1
     8    3    4 1
     9    3   38 1
    10    3   39 1
    11    4    5 1
    12    4   40 1
    13    4   41 1
    14    5   14 1
    15    5    6 2
    16    6    7 1
    17    7   11 1
    18    7    8 1
    19    7   12 1
    20    8    9 1
    21    8   42 1
    22    8   43 1
    23    9   10 1
    24    9   44 1
    25    9   45 1
    26   10   11 1
    27   10   46 1
    28   10   47 1
    29   11   48 1
    30   11   49 1
    31   12   13 2
    32   12   14 am
    33   14   15 1
    34   15   16 1
    35   15   50 1
    36   15   51 1
    37   16   21 ar
    38   16   17 ar
    39   17   18 ar
    40   17   52 1
    41   18   19 ar
    42   18   53 1
    43   19   20 ar
    44   19   22 1
    45   20   21 ar
    46   20   54 1
    47   21   55 1
    48   22   27 ar
    49   22   23 ar
    50   23   24 ar
    51   23   56 1
    52   24   25 ar
    53   24   57 1
    54   25   26 ar
    55   25   58 1
    56   26   27 ar
    57   26   59 1
    58   27   28 1
    59   28   32 2
    60   28   29 1
    61   29   30 1
    62   30   31 2
    63   31   32 1
@<TRIPOS>MOLECULE
ZINC02014009
   42    44     0     0     0
SMALL
USER_CHARGES
4-[(2-butylbenzoimidazol-1-yl)methyl]benzoic acid
@<TRIPOS>ATOM
      1 C1         -2.6260    8.5797   -3.4275 C.3       1 <0>        -0.1523
      2 C2         -2.5627    8.2412   -1.9367 C.3       1 <0>        -0.1245
      3 C3         -2.1122    6.7895   -1.7620 C.3       1 <0>        -0.1121
      4 C4         -2.0488    6.4511   -0.2712 C.3       1 <0>        -0.0476
      5 C5         -1.4929    5.0616   -0.0947 C.2       1 <0>         0.2912
      6 N1         -0.2267    4.7648   -0.0555 N.2       1 <0>        -0.4971
      7 C6         -0.0767    3.4258    0.1133 C.ar      1 <0>         0.0458
      8 C7          1.0355    2.5866    0.2206 C.ar      1 <0>        -0.0682
      9 C8          0.8602    1.2425    0.3894 C.ar      1 <0>        -0.1306
     10 C9         -0.4145    0.6976    0.4556 C.ar      1 <0>        -0.1071
     11 C10        -1.5261    1.5056    0.3469 C.ar      1 <0>        -0.1048
     12 C11        -1.3675    2.8748    0.1806 C.ar      1 <0>         0.0531
     13 N2         -2.2418    3.9346    0.0459 N.pl3     1 <0>        -0.4775
     14 C12        -3.7048    3.8597    0.0536 C.3       1 <0>         0.1565
     15 C13        -4.2017    3.8843    1.4761 C.ar      1 <0>        -0.1317
     16 C14        -4.3471    2.6992    2.1753 C.ar      1 <0>        -0.1148
     17 C15        -4.7968    2.7148    3.4794 C.ar      1 <0>        -0.0779
     18 C16        -5.1156    3.9294    4.0900 C.ar      1 <0>        -0.0987
     19 C17        -4.9715    5.1211    3.3767 C.ar      1 <0>        -0.0874
     20 C18        -4.5157    5.0914    2.0751 C.ar      1 <0>        -0.1176
     21 C19        -5.6026    3.9535    5.4844 C.2       1 <0>         0.4866
     22 O1         -5.8787    5.0117    6.0131 O.co2     1 <0>        -0.6284
     23 H1         -1.6393    8.4494   -3.8719 H         1 <0>         0.0538
     24 H2         -3.3370    7.9168   -3.9206 H         1 <0>         0.0528
     25 H3         -2.9470    9.6139   -3.5519 H         1 <0>         0.0543
     26 H4         -3.5494    8.3715   -1.4923 H         1 <0>         0.0644
     27 H5         -1.8517    8.9041   -1.4435 H         1 <0>         0.0660
     28 H6         -1.1254    6.6593   -2.2064 H         1 <0>         0.0717
     29 H7         -2.8231    6.1266   -2.2551 H         1 <0>         0.0616
     30 H8         -3.0509    6.4984    0.1550 H         1 <0>         0.0856
     31 H9         -1.4037    7.1678    0.2370 H         1 <0>         0.1002
     32 H10         2.0319    3.0001    0.1704 H         1 <0>         0.1250
     33 H11         1.7222    0.5972    0.4720 H         1 <0>         0.1258
     34 H12        -0.5363   -0.3672    0.5887 H         1 <0>         0.1276
     35 H13        -2.5158    1.0760    0.3949 H         1 <0>         0.1203
     36 H14        -4.1151    4.7112   -0.4893 H         1 <0>         0.0996
     37 H15        -4.0238    2.9346   -0.4267 H         1 <0>         0.0945
     38 H16        -4.1041    1.7601    1.7005 H         1 <0>         0.1143
     39 H17        -4.9056    1.7895    4.0255 H         1 <0>         0.1331
     40 H18        -5.2159    6.0640    3.8432 H         1 <0>         0.1297
     41 H19        -4.4035    6.0124    1.5224 H         1 <0>         0.1156
     42 O2         -5.7405    2.8019    6.1697 O.co2     1 <0>        -0.7510
@<TRIPOS>BOND
     1    1    2 1
     2    1   23 1
     3    1   24 1
     4    1   25 1
     5    2    3 1
     6    2   26 1
     7    2   27 1
     8    3    4 1
     9    3   28 1
    10    3   29 1
    11    4    5 1
    12    4   30 1
    13    4   31 1
    14    5   13 1
    15    5    6 2
    16    6    7 1
    17    7   12 ar
    18    7    8 ar
    19    8    9 ar
    20    8   32 1
    21    9   10 ar
    22    9   33 1
    23   10   11 ar
    24   10   34 1
    25   11   12 ar
    26   11   35 1
    27   12   13 1
    28   13   14 1
    29   14   15 1
    30   14   36 1
    31   14   37 1
    32   15   20 ar
    33   15   16 ar
    34   16   17 ar
    35   16   38 1
    36   17   18 ar
    37   17   39 1
    38   18   19 ar
    39   18   21 1
    40   19   20 ar
    41   19   40 1
    42   20   41 1
    43   21   22 2
    44   21   42 1
@<TRIPOS>MOLECULE
ZINC13298439
   52    55     0     0     0
SMALL
USER_CHARGES

@<TRIPOS>ATOM
      1 C1         -0.0187    1.5258    0.0104 C.3       1 <0>        -0.1520
      2 C2          0.0021   -0.0041    0.0020 C.3       1 <0>        -0.1243
      3 C3         -1.4333   -0.5336    0.0129 C.3       1 <0>        -0.1132
      4 C4         -1.4126   -2.0635    0.0045 C.3       1 <0>        -0.0387
      5 C5         -2.8264   -2.5851    0.0152 C.2       1 <0>         0.2364
      6 N1         -3.5317   -2.8487    1.0813 N.2       1 <0>        -0.4833
      7 C6         -4.7425   -3.2933    0.7126 C.2       1 <0>         0.0724
      8 C7         -4.7893   -3.3058   -0.6341 C.2       1 <0>         0.0070
      9 N2         -3.5749   -2.8515   -1.0765 N.pl3     1 <0>        -0.4283
     10 C8         -3.1642   -2.6880   -2.4732 C.3       1 <0>         0.1504
     11 C9         -2.5320   -3.9650   -2.9637 C.ar      1 <0>        -0.1207
     12 C10        -1.1697   -4.1584   -2.8210 C.ar      1 <0>        -0.1279
     13 C11        -0.5852   -5.3258   -3.2683 C.ar      1 <0>        -0.1070
     14 C12        -1.3705   -6.3112   -3.8649 C.ar      1 <0>        -0.0343
     15 C13        -2.7429   -6.1106   -4.0060 C.ar      1 <0>         0.0104
     16 C14        -3.3171   -4.9416   -3.5498 C.ar      1 <0>        -0.0911
     17 C15        -0.7486   -7.5670   -4.3478 C.ar      1 <0>        -0.0450
     18 C16         0.3817   -7.5216   -5.1593 C.ar      1 <0>        -0.1084
     19 C17         0.9577   -8.6934   -5.6068 C.ar      1 <0>        -0.1383
     20 C18         0.4183   -9.9190   -5.2536 C.ar      1 <0>        -0.1199
     21 C19        -0.7015   -9.9834   -4.4501 C.ar      1 <0>        -0.1062
     22 C20        -1.2929   -8.8103   -3.9843 C.ar      1 <0>         0.0581
     23 C21        -2.4897   -8.8737   -3.1184 C.2       1 <0>         0.0616
     24 N3         -3.1640   -7.8399   -2.6109 N.2       1 <0>        -0.3452
     25 N4         -4.1379   -8.3174   -1.9140 N.2       1 <0>        -0.1738
     26 N5         -4.1044   -9.6030   -1.9618 N.2       1 <0>        -0.1968
     27 N6         -3.1117   -9.9760   -2.6951 N.2       1 <0>        -0.3674
     28 C22        -5.9547   -3.7328   -1.4888 C.3       1 <0>         0.1509
     29 O1         -5.8570   -5.1318   -1.7630 O.3       1 <0>        -0.5319
     30 Cl1        -6.0238   -3.7700    1.7825 Cl        1 <0>        -0.0161
     31 H1          1.0039    1.9031    0.0027 H         1 <0>         0.0535
     32 H2         -0.5459    1.8868   -0.8726 H         1 <0>         0.0526
     33 H3         -0.5289    1.8773    0.9072 H         1 <0>         0.0538
     34 H4          0.5123   -0.3556   -0.8948 H         1 <0>         0.0633
     35 H5          0.5293   -0.3651    0.8851 H         1 <0>         0.0653
     36 H6         -1.9435   -0.1821    0.9097 H         1 <0>         0.0707
     37 H7         -1.9605   -0.1726   -0.8702 H         1 <0>         0.0600
     38 H8         -0.9024   -2.4150   -0.8923 H         1 <0>         0.0847
     39 H9         -0.8854   -2.4246    0.8875 H         1 <0>         0.0966
     40 H10        -4.0369   -2.4567   -3.0839 H         1 <0>         0.0952
     41 H11        -2.4431   -1.8739   -2.5470 H         1 <0>         0.0983
     42 H12        -0.5623   -3.3942   -2.3590 H         1 <0>         0.1109
     43 H13         0.4786   -5.4755   -3.1566 H         1 <0>         0.1139
     44 H14        -3.3562   -6.8705   -4.4674 H         1 <0>         0.1153
     45 H15        -4.3808   -4.7869   -3.6546 H         1 <0>         0.1143
     46 H16         0.8076   -6.5694   -5.4391 H         1 <0>         0.1193
     47 H17         1.8342   -8.6542   -6.2365 H         1 <0>         0.1164
     48 H18         0.8767  -10.8298   -5.6096 H         1 <0>         0.1178
     49 H19        -1.1173  -10.9425   -4.1788 H         1 <0>         0.1287
     50 H20        -6.8863   -3.5303   -0.9604 H         1 <0>         0.0664
     51 H21        -5.9406   -3.1769   -2.4263 H         1 <0>         0.0471
     52 H22        -6.5760   -5.4766   -2.3100 H         1 <0>         0.3784
@<TRIPOS>BOND
     1    1    2 1
     2    1   31 1
     3    1   32 1
     4    1   33 1
     5    2    3 1
     6    2   34 1
     7    2   35 1
     8    3    4 1
     9    3   36 1
    10    3   37 1
    11    4    5 1
    12    4   38 1
    13    4   39 1
    14    5    9 1
    15    5    6 2
    16    6    7 1
    17    7    8 2
    18    7   30 1
    19    8    9 1
    20    8   28 1
    21    9   10 1
    22   10   11 1
    23   10   40 1
    24   10   41 1
    25   11   16 ar
    26   11   12 ar
    27   12   13 ar
    28   12   42 1
    29   13   14 ar
    30   13   43 1
    31   14   15 ar
    32   14   17 1
    33   15   16 ar
    34   15   44 1
    35   16   45 1
    36   17   22 ar
    37   17   18 ar
    38   18   19 ar
    39   18   46 1
    40   19   20 ar
    41   19   47 1
    42   20   21 ar
    43   20   48 1
    44   21   22 ar
    45   21   49 1
    46   22   23 1
    47   23   27 2
    48   23   24 1
    49   24   25 1
    50   25   26 2
    51   26   27 1
    52   28   29 1
    53   28   50 1
    54   28   51 1
    55   29   52 1
@<TRIPOS>MOLECULE
ZINC01889710
   59    61     0     0     0
SMALL
USER_CHARGES
2-[[4-[[2-butyl-4-chloro-5-(methoxycarbonylmethyl)imidazol-1-yl]methyl]phenyl]carbamoyl]benzoic acid
@<TRIPOS>ATOM
      1 C1          7.1340   -6.5597    1.5735 C.3       1 <0>        -0.1513
      2 C2          6.2150   -5.3956    1.9492 C.3       1 <0>        -0.1272
      3 C3          7.0535   -4.1356    2.1732 C.3       1 <0>        -0.1108
      4 C4          6.1345   -2.9715    2.5488 C.3       1 <0>        -0.0451
      5 C5          6.9445   -1.7048    2.6512 C.2       1 <0>         0.2510
      6 N1          7.6082   -1.3094    3.7033 N.2       1 <0>        -0.4781
      7 C6          8.2045   -0.1377    3.4362 C.2       1 <0>         0.0774
      8 C7          7.9028    0.2036    2.1680 C.2       1 <0>        -0.0002
      9 N2          7.1058   -0.7926    1.6689 N.pl3     1 <0>        -0.4305
     10 C8          6.5307   -0.8537    0.3229 C.3       1 <0>         0.1480
     11 C9          5.1767   -0.1922    0.3247 C.ar      1 <0>        -0.1488
     12 C10         5.0574    1.1364   -0.0398 C.ar      1 <0>        -0.0714
     13 C11         3.8180    1.7457   -0.0388 C.ar      1 <0>        -0.1530
     14 C12         2.6906    1.0225    0.3288 C.ar      1 <0>         0.1831
     15 C13         2.8146   -0.3104    0.6994 C.ar      1 <0>        -0.1149
     16 C14         4.0562   -0.9151    0.6912 C.ar      1 <0>        -0.0779
     17 N3          1.4343    1.6365    0.3314 N.am      1 <0>        -0.6785
     18 C15         0.3323    0.9175    0.0398 C.2       1 <0>         0.5771
     19 O1          0.4381   -0.2408   -0.3131 O.2       1 <0>        -0.4715
     20 C16        -1.0056    1.5398    0.1435 C.ar      1 <0>        -0.1060
     21 C17        -1.2957    2.6995   -0.5700 C.ar      1 <0>        -0.1105
     22 C18        -2.5490    3.2745   -0.4742 C.ar      1 <0>        -0.1295
     23 C19        -3.5182    2.7106    0.3365 C.ar      1 <0>        -0.1178
     24 C20        -3.2466    1.5627    1.0567 C.ar      1 <0>        -0.0828
     25 C21        -1.9912    0.9663    0.9685 C.ar      1 <0>        -0.0678
     26 C22        -1.6954   -0.2612    1.7372 C.2       1 <0>         0.4822
     27 O2         -0.5715   -0.7215    1.7375 O.co2     1 <0>        -0.6024
     28 C23         8.3547    1.4429    1.4393 C.3       1 <0>        -0.0359
     29 C24         7.3527    2.5472    1.6571 C.2       1 <0>         0.4505
     30 O3          6.3722    2.3484    2.3346 O.2       1 <0>        -0.4698
     31 O4          7.5494    3.7518    1.0985 O.3       1 <0>        -0.3623
     32 C25         6.5433    4.7678    1.3509 C.3       1 <0>         0.0364
     33 Cl1         9.1910    0.7783    4.5323 Cl        1 <0>        -0.0170
     34 H1          7.8457   -6.7356    2.3801 H         1 <0>         0.0534
     35 H2          6.5366   -7.4573    1.4139 H         1 <0>         0.0547
     36 H3          7.6744   -6.3155    0.6589 H         1 <0>         0.0519
     37 H4          5.6746   -5.6398    2.8637 H         1 <0>         0.0673
     38 H5          5.5032   -5.2197    1.1426 H         1 <0>         0.0651
     39 H6          7.5939   -3.8914    1.2586 H         1 <0>         0.0600
     40 H7          7.7653   -4.3115    2.9798 H         1 <0>         0.0719
     41 H8          5.6602   -3.1780    3.5083 H         1 <0>         0.1012
     42 H9          5.3682   -2.8518    1.7830 H         1 <0>         0.0869
     43 H10         6.4258   -1.8954    0.0195 H         1 <0>         0.1070
     44 H11         7.1871   -0.3359   -0.3765 H         1 <0>         0.0981
     45 H12         5.9344    1.6981   -0.3258 H         1 <0>         0.1086
     46 H13         3.7255    2.7833   -0.3238 H         1 <0>         0.1206
     47 H14         1.9405   -0.8743    0.9900 H         1 <0>         0.1584
     48 H15         4.1527   -1.9526    0.9752 H         1 <0>         0.1236
     49 H16         1.3560    2.5799    0.5429 H         1 <0>         0.4057
     50 H17        -0.5427    3.1477   -1.2013 H         1 <0>         0.1206
     51 H18        -2.7718    4.1718   -1.0324 H         1 <0>         0.1214
     52 H19        -4.4928    3.1705    0.4072 H         1 <0>         0.1219
     53 H20        -4.0077    1.1285    1.6881 H         1 <0>         0.1377
     54 H21         9.3272    1.7543    1.8205 H         1 <0>         0.1283
     55 H22         8.4338    1.2291    0.3734 H         1 <0>         0.1140
     56 H23         6.4723    4.9503    2.4232 H         1 <0>         0.0633
     57 H24         6.8234    5.6907    0.8431 H         1 <0>         0.1007
     58 H25         5.5788    4.4251    0.9761 H         1 <0>         0.0641
     59 O5         -2.6725   -0.8694    2.4372 O.co2     1 <0>        -0.7507
@<TRIPOS>BOND
     1    1    2 1
     2    1   34 1
     3    1   35 1
     4    1   36 1
     5    2    3 1
     6    2   37 1
     7    2   38 1
     8    3    4 1
     9    3   39 1
    10    3   40 1
    11    4    5 1
    12    4   41 1
    13    4   42 1
    14    5    9 1
    15    5    6 2
    16    6    7 1
    17    7    8 2
    18    7   33 1
    19    8    9 1
    20    8   28 1
    21    9   10 1
    22   10   11 1
    23   10   43 1
    24   10   44 1
    25   11   16 ar
    26   11   12 ar
    27   12   13 ar
    28   12   45 1
    29   13   14 ar
    30   13   46 1
    31   14   15 ar
    32   14   17 1
    33   15   16 ar
    34   15   47 1
    35   16   48 1
    36   17   18 am
    37   17   49 1
    38   18   19 2
    39   18   20 1
    40   20   25 ar
    41   20   21 ar
    42   21   22 ar
    43   21   50 1
    44   22   23 ar
    45   22   51 1
    46   23   24 ar
    47   23   52 1
    48   24   25 ar
    49   24   53 1
    50   25   26 1
    51   26   27 2
    52   26   59 1
    53   28   29 1
    54   28   54 1
    55   28   55 1
    56   29   30 2
    57   29   31 1
    58   31   32 1
    59   32   56 1
    60   32   57 1
    61   32   58 1
@<TRIPOS>MOLECULE
ZINC03918293
   77    80     0     0     0
SMALL
USER_CHARGES

@<TRIPOS>ATOM
      1 C1          0.0376    1.5380    0.0199 C.3       1 <0>        -0.1497
      2 C2          0.0530    0.0081    0.0098 C.3       1 <0>        -0.1205
      3 C3          0.7884   -0.5027    1.2504 C.3       1 <0>        -0.1237
      4 C4          0.8038   -2.0326    1.2403 C.3       1 <0>         0.0815
      5 O1          1.4906   -2.5097    2.3990 O.3       1 <0>        -0.3327
      6 C5          1.5937   -3.8485    2.5427 C.2       1 <0>         0.6373
      7 O2          2.2306   -4.3653    3.6154 O.3       1 <0>        -0.6932
      8 N1          1.0803   -4.6388    1.6495 N.2       1 <0>        -1.1080
      9 S1          1.2067   -6.2805    1.8258 S.o2      1 <0>         2.7087
     10 O3          2.5873   -6.5963    1.7100 O.2       1 <0>        -0.9885
     11 O4          0.4395   -6.6262    2.9708 O.2       1 <0>        -0.9872
     12 C6          0.4038   -7.0165    0.4407 C.2       1 <0>        -0.6890
     13 C7          0.2415   -8.3408    0.1438 C.2       1 <0>         0.0305
     14 C8         -0.4373   -8.6812   -1.0224 C.2       1 <0>        -0.1670
     15 C9         -0.9106   -7.6955   -1.8177 C.2       1 <0>        -0.1348
     16 S2         -0.4151   -6.2260   -0.9343 S.3       1 <0>         0.1799
     17 C10        -1.6679   -7.8088   -3.1156 C.3       1 <0>        -0.0331
     18 C11        -3.1697   -7.8580   -2.8273 C.3       1 <0>        -0.0941
     19 C12        -3.9431   -7.8472   -4.1473 C.3       1 <0>        -0.1458
     20 C13        -3.4988   -9.1363   -2.0537 C.3       1 <0>        -0.1523
     21 C14         0.7772   -9.3914    1.0440 C.ar      1 <0>        -0.0478
     22 C15         2.0986   -9.3296    1.4824 C.ar      1 <0>        -0.1177
     23 C16         2.5915  -10.3094    2.3201 C.ar      1 <0>        -0.0800
     24 C17         1.7767  -11.3516    2.7243 C.ar      1 <0>        -0.1200
     25 C18         0.4645  -11.4182    2.2919 C.ar      1 <0>        -0.1053
     26 C19        -0.0408  -10.4405    1.4590 C.ar      1 <0>        -0.0979
     27 C20         2.3209  -12.4187    3.6387 C.3       1 <0>         0.1576
     28 N2          2.2092  -11.9732    5.0299 N.pl3     1 <0>        -0.4722
     29 C21         1.1989  -12.2708    5.8922 C.2       1 <0>         0.2922
     30 N3          1.4171  -11.7116    7.0465 N.2       1 <0>        -0.4801
     31 C22         2.5823  -11.0181    7.0006 C.ar      1 <0>        -0.0043
     32 C23         3.1108  -11.1808    5.7073 C.ar      1 <0>         0.2563
     33 N4          4.2585  -10.6110    5.3770 N.ar      1 <0>        -0.4849
     34 C24         4.9398   -9.8829    6.2375 C.ar      1 <0>         0.1713
     35 C25         4.4844   -9.6804    7.5305 C.ar      1 <0>        -0.1873
     36 C26         3.2873  -10.2454    7.9281 C.ar      1 <0>         0.0136
     37 C27         2.7646  -10.0473    9.3276 C.3       1 <0>        -0.1091
     38 C28         6.2417   -9.2576    5.8072 C.3       1 <0>        -0.1030
     39 C29         0.0017  -13.1230    5.5583 C.3       1 <0>        -0.0475
     40 C30         0.2654  -14.5659    5.9936 C.3       1 <0>        -0.1454
     41 H1          1.0615    1.9117    0.0149 H         1 <0>         0.0535
     42 H2         -0.4863    1.9019   -0.8640 H         1 <0>         0.0520
     43 H3         -0.4734    1.8903    0.9159 H         1 <0>         0.0535
     44 H4         -0.9710   -0.3656    0.0148 H         1 <0>         0.0638
     45 H5          0.5639   -0.3442   -0.8863 H         1 <0>         0.0639
     46 H6          1.8123   -0.1290    1.2454 H         1 <0>         0.0682
     47 H7          0.2774   -0.1504    2.1464 H         1 <0>         0.0681
     48 H8         -0.2202   -2.4063    1.2453 H         1 <0>         0.0610
     49 H9          1.3147   -2.3849    0.3442 H         1 <0>         0.0614
     50 H10        -0.5837   -9.7177   -1.2884 H         1 <0>         0.1365
     51 H11        -1.4464   -6.9448   -3.7421 H         1 <0>         0.0823
     52 H12        -1.3673   -8.7196   -3.6334 H         1 <0>         0.0868
     53 H13        -3.4541   -6.9900   -2.2325 H         1 <0>         0.0756
     54 H14        -3.6587   -8.7152   -4.7421 H         1 <0>         0.0553
     55 H15        -5.0130   -7.8823   -3.9419 H         1 <0>         0.0571
     56 H16        -3.7086   -6.9365   -4.6984 H         1 <0>         0.0561
     57 H17        -4.5687   -9.1714   -1.8483 H         1 <0>         0.0547
     58 H18        -3.2144  -10.0043   -2.6485 H         1 <0>         0.0543
     59 H19        -2.9478   -9.1440   -1.1133 H         1 <0>         0.0607
     60 H20         2.7358   -8.5168    1.1668 H         1 <0>         0.1599
     61 H21         3.6154  -10.2625    2.6604 H         1 <0>         0.1343
     62 H22        -0.1672  -12.2343    2.6104 H         1 <0>         0.1247
     63 H23        -1.0669  -10.4909    1.1259 H         1 <0>         0.1270
     64 H24         1.7503  -13.3377    3.5046 H         1 <0>         0.1017
     65 H25         3.3681  -12.6030    3.3992 H         1 <0>         0.1024
     66 H26         5.0580   -9.0799    8.2211 H         1 <0>         0.1419
     67 H27         3.1490  -10.8363    9.9741 H         1 <0>         0.0744
     68 H28         3.0913   -9.0779    9.7037 H         1 <0>         0.0717
     69 H29         1.6752  -10.0847    9.3173 H         1 <0>         0.0760
     70 H30         6.0500   -8.2675    5.3936 H         1 <0>         0.0860
     71 H31         6.9045   -9.1697    6.6680 H         1 <0>         0.0766
     72 H32         6.7121   -9.8834    5.0488 H         1 <0>         0.0759
     73 H33        -0.8743  -12.7399    6.0817 H         1 <0>         0.1027
     74 H34        -0.1761  -13.0945    4.4833 H         1 <0>         0.0845
     75 H35         1.0861  -14.9782    5.4067 H         1 <0>         0.0543
     76 H36         0.5299  -14.5838    7.0509 H         1 <0>         0.0651
     77 H37        -0.6320  -15.1635    5.8334 H         1 <0>         0.0691
@<TRIPOS>BOND
     1    1    2 1
     2    1   41 1
     3    1   42 1
     4    1   43 1
     5    2    3 1
     6    2   44 1
     7    2   45 1
     8    3    4 1
     9    3   46 1
    10    3   47 1
    11    4    5 1
    12    4   48 1
    13    4   49 1
    14    5    6 1
    15    6    7 1
    16    6    8 2
    17    8    9 1
    18    9   10 2
    19    9   11 2
    20    9   12 1
    21   12   16 1
    22   12   13 2
    23   13   14 1
    24   13   21 1
    25   14   15 2
    26   14   50 1
    27   15   16 1
    28   15   17 1
    29   17   18 1
    30   17   51 1
    31   17   52 1
    32   18   19 1
    33   18   20 1
    34   18   53 1
    35   19   54 1
    36   19   55 1
    37   19   56 1
    38   20   57 1
    39   20   58 1
    40   20   59 1
    41   21   26 ar
    42   21   22 ar
    43   22   23 ar
    44   22   60 1
    45   23   24 ar
    46   23   61 1
    47   24   25 ar
    48   24   27 1
    49   25   26 ar
    50   25   62 1
    51   26   63 1
    52   27   28 1
    53   27   64 1
    54   27   65 1
    55   28   32 1
    56   28   29 1
    57   29   30 2
    58   29   39 1
    59   30   31 1
    60   31   36 ar
    61   31   32 ar
    62   32   33 ar
    63   33   34 ar
    64   34   35 ar
    65   34   38 1
    66   35   36 ar
    67   35   66 1
    68   36   37 1
    69   37   67 1
    70   37   68 1
    71   37   69 1
    72   38   70 1
    73   38   71 1
    74   38   72 1
    75   39   40 1
    76   39   73 1
    77   39   74 1
    78   40   75 1
    79   40   76 1
    80   40   77 1
@<TRIPOS>MOLECULE
ZINC29396939
   67    71     0     0     0
SMALL
USER_CHARGES
2-[2-butyl-4-oxo-3-[[4-[2-(2H-tetrazol-5-yl)phenyl]phenyl]methyl]imidazo[4,5-c]pyridin-5-yl]-N,N-dimethyl-acetamide
@<TRIPOS>ATOM
      1 C1          2.3504   -1.3509    4.7833 C.3       1 <0>        -0.1532
      2 C2          1.9868    0.0894    4.4168 C.3       1 <0>        -0.1255
      3 C3          2.2586    0.3211    2.9290 C.3       1 <0>        -0.1136
      4 C4          1.8950    1.7613    2.5624 C.3       1 <0>        -0.0504
      5 C5          2.2685    2.0237    1.1262 C.2       1 <0>         0.2752
      6 N1          3.4566    2.3746    0.7132 N.2       1 <0>        -0.4876
      7 C6          3.4430    2.5320   -0.6193 C.2       1 <0>         0.1143
      8 C7          4.4422    2.9101   -1.6163 C.2       1 <0>        -0.1439
      9 C8          4.0790    2.9730   -2.9118 C.2       1 <0>         0.0986
     10 N2          2.8035    2.6917   -3.3047 N.am      1 <0>        -0.4949
     11 C9          1.8473    2.3385   -2.4254 C.2       1 <0>         0.5809
     12 O1          0.7186    2.0949   -2.8202 O.2       1 <0>        -0.5426
     13 C10         2.1436    2.2497   -1.0550 C.2       1 <0>        -0.0968
     14 N3          1.4250    1.9278    0.0767 N.pl3     1 <0>        -0.4046
     15 C11         0.0088    1.5570    0.1309 C.3       1 <0>         0.1423
     16 C12        -0.8258    2.7922    0.3515 C.ar      1 <0>        -0.1134
     17 C13        -1.2298    3.1314    1.6303 C.ar      1 <0>        -0.1126
     18 C14        -1.9894    4.2645    1.8391 C.ar      1 <0>         0.0075
     19 C15        -2.3596    5.0613    0.7568 C.ar      1 <0>        -0.0358
     20 C16        -1.9543    4.7114   -0.5303 C.ar      1 <0>        -0.1063
     21 C17        -1.1897    3.5794   -0.7262 C.ar      1 <0>        -0.1174
     22 C18        -3.1814    6.2759    0.9738 C.ar      1 <0>        -0.0407
     23 C19        -2.7881    7.4943    0.4263 C.ar      1 <0>        -0.1089
     24 C20        -3.5592    8.6214    0.6260 C.ar      1 <0>        -0.1355
     25 C21        -4.7191    8.5515    1.3788 C.ar      1 <0>        -0.1208
     26 C22        -5.1202    7.3527    1.9332 C.ar      1 <0>        -0.1042
     27 C23        -4.3571    6.2053    1.7368 C.ar      1 <0>         0.0535
     28 C24        -4.7840    4.9151    2.3311 C.2       1 <0>         0.0744
     29 N4         -5.8585    4.7034    3.0655 N.2       1 <0>        -0.3637
     30 N5         -5.8757    3.4559    3.3884 N.2       1 <0>        -0.1967
     31 N6         -4.8469    2.8705    2.8824 N.2       1 <0>        -0.1856
     32 N7         -4.1554    3.7358    2.2214 N.2       1 <0>        -0.3564
     33 C25         2.4640    2.7755   -4.7273 C.3       1 <0>         0.0830
     34 C26         2.6997    1.4377   -5.3797 C.2       1 <0>         0.4993
     35 O2          3.1108    0.5059   -4.7212 O.2       1 <0>        -0.5198
     36 N8          2.4537    1.2766   -6.6950 N.am      1 <0>        -0.6211
     37 C27         2.6828   -0.0240   -7.3292 C.3       1 <0>         0.0874
     38 C28         1.9571    2.4021   -7.4905 C.3       1 <0>         0.0703
     39 H1          2.1550   -1.5175    5.8529 H         1 <0>         0.0546
     40 H2          3.4162   -1.5246    4.5738 H         1 <0>         0.0532
     41 H3          1.7414   -2.0460    4.1867 H         1 <0>         0.0538
     42 H4          0.9210    0.2631    4.6263 H         1 <0>         0.0670
     43 H5          2.5958    0.7845    5.0134 H         1 <0>         0.0658
     44 H6          3.3244    0.1473    2.7196 H         1 <0>         0.0720
     45 H7          1.6496   -0.3740    2.3324 H         1 <0>         0.0623
     46 H8          0.8131    1.9109    2.6931 H         1 <0>         0.0911
     47 H9          2.4428    2.4556    3.2165 H         1 <0>         0.1024
     48 H10         5.4558    3.1351   -1.3192 H         1 <0>         0.1511
     49 H11         4.8123    3.2513   -3.6542 H         1 <0>         0.1624
     50 H12        -0.2825    1.0823   -0.8177 H         1 <0>         0.1100
     51 H13        -0.1541    0.8517    0.9591 H         1 <0>         0.1017
     52 H14        -0.9464    2.5107    2.4675 H         1 <0>         0.1129
     53 H15        -2.3003    4.5309    2.8385 H         1 <0>         0.1160
     54 H16        -2.2384    5.3249   -1.3725 H         1 <0>         0.1128
     55 H17        -0.8752    3.3073   -1.7229 H         1 <0>         0.1238
     56 H18        -1.8820    7.5564   -0.1581 H         1 <0>         0.1192
     57 H19        -3.2539    9.5640    0.1963 H         1 <0>         0.1170
     58 H20        -5.3133    9.4401    1.5334 H         1 <0>         0.1186
     59 H21        -6.0262    7.3050    2.5191 H         1 <0>         0.1292
     60 H22         1.4056    3.0550   -4.8358 H         1 <0>         0.1301
     61 H23         3.0953    3.5355   -5.2108 H         1 <0>         0.1220
     62 H24         2.4279    0.0390   -8.3974 H         1 <0>         0.0774
     63 H25         2.0514   -0.7840   -6.8457 H         1 <0>         0.0619
     64 H26         3.7411   -0.3035   -7.2206 H         1 <0>         0.0618
     65 H27         1.8172    2.0807   -8.5331 H         1 <0>         0.0826
     66 H28         2.6855    3.2256   -7.4553 H         1 <0>         0.0651
     67 H29         0.9958    2.7450   -7.0804 H         1 <0>         0.0674
@<TRIPOS>BOND
     1    1    2 1
     2    1   39 1
     3    1   40 1
     4    1   41 1
     5    2    3 1
     6    2   42 1
     7    2   43 1
     8    3    4 1
     9    3   44 1
    10    3   45 1
    11    4    5 1
    12    4   46 1
    13    4   47 1
    14    5   14 1
    15    5    6 2
    16    6    7 1
    17    7   13 2
    18    7    8 1
    19    8    9 2
    20    8   48 1
    21    9   10 1
    22    9   49 1
    23   10   11 am
    24   10   33 1
    25   11   12 2
    26   11   13 1
    27   13   14 1
    28   14   15 1
    29   15   16 1
    30   15   50 1
    31   15   51 1
    32   16   21 ar
    33   16   17 ar
    34   17   18 ar
    35   17   52 1
    36   18   19 ar
    37   18   53 1
    38   19   20 ar
    39   19   22 1
    40   20   21 ar
    41   20   54 1
    42   21   55 1
    43   22   27 ar
    44   22   23 ar
    45   23   24 ar
    46   23   56 1
    47   24   25 ar
    48   24   57 1
    49   25   26 ar
    50   25   58 1
    51   26   27 ar
    52   26   59 1
    53   27   28 1
    54   28   32 1
    55   28   29 2
    56   29   30 1
    57   30   31 1
    58   31   32 2
    59   33   34 1
    60   33   60 1
    61   33   61 1
    62   34   35 2
    63   34   36 am
    64   36   37 1
    65   36   38 1
    66   37   62 1
    67   37   63 1
    68   37   64 1
    69   38   65 1
    70   38   66 1
    71   38   67 1
@<TRIPOS>MOLECULE
ZINC03783527
   69    73     0     0     0
SMALL
USER_CHARGES
3-amino-3-methyl-N-[5-oxo-6-[[4-[2-(1H-tetrazol-5-yl)phenyl]phenyl]methyl]-6-azabicyclo[5.4.0]undeca-8,10,12-trien-4-yl]-butanamide
@<TRIPOS>ATOM
      1 C1         -2.0824    4.1369   -5.5458 C.3       1 <0>        -0.1904
      2 C2         -2.0928    2.7903   -6.2722 C.3       1 <0>         0.0816
      3 C3         -0.6582    2.3866   -6.6185 C.3       1 <0>        -0.1847
      4 C4         -2.7173    1.7271   -5.3665 C.3       1 <0>        -0.1655
      5 C5         -1.9093    1.6084   -4.1000 C.2       1 <0>         0.5264
      6 O1         -0.9303    2.3056   -3.9378 O.2       1 <0>        -0.5244
      7 N1         -2.2746    0.7275   -3.1477 N.am      1 <0>        -0.6954
      8 C6         -1.4890    0.6121   -1.9165 C.3       1 <0>         0.1299
      9 H1         -0.4342    0.7587   -2.1487 H         1 <0>         0.1168
     10 C7         -1.6853   -0.7828   -1.3219 C.3       1 <0>        -0.1134
     11 C8         -1.2207   -0.7868    0.1364 C.3       1 <0>        -0.0861
     12 C9          0.0774   -0.0379    0.2713 C.ar      1 <0>        -0.1022
     13 C10         1.2664   -0.7246    0.4231 C.ar      1 <0>        -0.0938
     14 C11         2.4520   -0.0283    0.5712 C.ar      1 <0>        -0.1254
     15 C12         2.4530    1.3548    0.5675 C.ar      1 <0>        -0.0995
     16 C13         1.2673    2.0471    0.4112 C.ar      1 <0>        -0.1260
     17 C14         0.0785    1.3491    0.2575 C.ar      1 <0>         0.1457
     18 N2         -1.1298    2.0350    0.0714 N.am      1 <0>        -0.5466
     19 C15        -1.9338    1.6682   -0.9439 C.2       1 <0>         0.5126
     20 O2         -3.0202    2.1915   -1.0744 O.2       1 <0>        -0.5165
     21 C16        -1.5108    3.1308    0.9661 C.3       1 <0>         0.1600
     22 C17        -2.2279    2.5718    2.1679 C.ar      1 <0>        -0.1117
     23 C18        -3.6048    2.4389    2.1484 C.ar      1 <0>        -0.1064
     24 C19        -4.2664    1.9232    3.2441 C.ar      1 <0>         0.0115
     25 C20        -3.5456    1.5462    4.3764 C.ar      1 <0>        -0.0378
     26 C21        -2.1587    1.6874    4.3922 C.ar      1 <0>        -0.1050
     27 C22        -1.5074    2.1990    3.2883 C.ar      1 <0>        -0.1268
     28 C23        -4.2510    0.9969    5.5586 C.ar      1 <0>        -0.0376
     29 C24        -3.8211   -0.1927    6.1401 C.ar      1 <0>        -0.1109
     30 C25        -4.4779   -0.6983    7.2439 C.ar      1 <0>        -0.1313
     31 C26        -5.5719   -0.0346    7.7735 C.ar      1 <0>        -0.1208
     32 C27        -6.0154    1.1428    7.2072 C.ar      1 <0>        -0.0997
     33 C28        -5.3610    1.6708    6.0954 C.ar      1 <0>         0.0475
     34 C29        -5.8323    2.9319    5.4845 C.2       1 <0>         0.1219
     35 N3         -6.9304    4.7707    5.0052 N.2       1 <0>        -0.2057
     36 N4         -5.9626    4.6111    4.1690 N.2       1 <0>        -0.1583
     37 N5         -5.3108    3.5378    4.4379 N.2       1 <0>        -0.3855
     38 H2         -1.4980    4.0510   -4.6298 H         1 <0>         0.1308
     39 H3         -1.6375    4.8944   -6.1910 H         1 <0>         0.0808
     40 H4         -3.1045    4.4245   -5.2991 H         1 <0>         0.0775
     41 H5         -0.6656    1.4273   -7.1360 H         1 <0>         0.0747
     42 H6         -0.2133    3.1441   -7.2637 H         1 <0>         0.0805
     43 H7         -0.0738    2.3008   -5.7024 H         1 <0>         0.1308
     44 H8         -2.7247    0.7678   -5.8840 H         1 <0>         0.1183
     45 H9         -3.7393    2.0147   -5.1198 H         1 <0>         0.1208
     46 H10        -3.0576    0.1698   -3.2774 H         1 <0>         0.4099
     47 H11        -1.1011   -1.5058   -1.8913 H         1 <0>         0.0873
     48 H12        -2.7406   -1.0520   -1.3677 H         1 <0>         0.0840
     49 H13        -1.0800   -1.8157    0.4676 H         1 <0>         0.0904
     50 H14        -1.9795   -0.3087    0.7559 H         1 <0>         0.0854
     51 H15         1.2700   -1.8046    0.4264 H         1 <0>         0.1281
     52 H16         3.3807   -0.5665    0.6899 H         1 <0>         0.1258
     53 H17         3.3810    1.8941    0.6871 H         1 <0>         0.1279
     54 H18         1.2663    3.1271    0.4080 H         1 <0>         0.1277
     55 H19        -0.6163    3.6620    1.2913 H         1 <0>         0.0855
     56 H20        -2.1701    3.8191    0.4372 H         1 <0>         0.0946
     57 H21        -4.1625    2.7358    1.2725 H         1 <0>         0.1133
     58 H22        -5.3410    1.8161    3.2263 H         1 <0>         0.1126
     59 H23        -1.5951    1.3967    5.2664 H         1 <0>         0.1127
     60 H24        -0.4330    2.3089    3.2994 H         1 <0>         0.1077
     61 H25        -2.9714   -0.7181    5.7299 H         1 <0>         0.1198
     62 H26        -4.1392   -1.6195    7.6946 H         1 <0>         0.1184
     63 H27        -6.0809   -0.4409    8.6350 H         1 <0>         0.1204
     64 H28        -6.8690    1.6555    7.6254 H         1 <0>         0.1300
     65 H29        -2.4879    3.6026   -8.1222 H         1 <0>         0.4387
     66 H30        -2.9565    2.0140   -7.9721 H         1 <0>         0.4333
     67 N6         -6.8703    3.6862    5.8709 N.2       1 <0>        -0.4094
     68 N7         -2.9027    2.9135   -7.4971 N.4       1 <0>        -0.6429
     69 H31        -3.8508    3.2169   -7.2458 H         1 <0>         0.4379
@<TRIPOS>BOND
     1    1    2 1
     2    1   38 1
     3    1   39 1
     4    1   40 1
     5    2    3 1
     6    2    4 1
     7    2   68 1
     8    3   41 1
     9    3   42 1
    10    3   43 1
    11    4    5 1
    12    4   44 1
    13    4   45 1
    14    5    6 2
    15    5    7 am
    16    7    8 1
    17    7   46 1
    18    8    9 1
    19    8   19 1
    20    8   10 1
    21   10   11 1
    22   10   47 1
    23   10   48 1
    24   11   12 1
    25   11   49 1
    26   11   50 1
    27   12   17 ar
    28   12   13 ar
    29   13   14 ar
    30   13   51 1
    31   14   15 ar
    32   14   52 1
    33   15   16 ar
    34   15   53 1
    35   16   17 ar
    36   16   54 1
    37   17   18 1
    38   18   19 am
    39   18   21 1
    40   19   20 2
    41   21   22 1
    42   21   55 1
    43   21   56 1
    44   22   27 ar
    45   22   23 ar
    46   23   24 ar
    47   23   57 1
    48   24   25 ar
    49   24   58 1
    50   25   26 ar
    51   25   28 1
    52   26   27 ar
    53   26   59 1
    54   27   60 1
    55   28   33 ar
    56   28   29 ar
    57   29   30 ar
    58   29   61 1
    59   30   31 ar
    60   30   62 1
    61   31   32 ar
    62   31   63 1
    63   32   33 ar
    64   32   64 1
    65   33   34 1
    66   34   37 2
    67   34   67 1
    68   35   36 2
    69   35   67 1
    70   36   37 1
    71   65   68 1
    72   66   68 1
    73   68   69 1
@<TRIPOS>MOLECULE
ZINC13737969
   53    57     0     0     0
SMALL
USER_CHARGES
5-methyl-7-propyl-8-[[4-[2-(2H-tetrazol-5-yl)phenyl]phenyl]methyl]-[1,2,4]triazolo[5,1-f]pyrimidin-2-ol
@<TRIPOS>ATOM
      1 C1         -1.2689    1.6011    0.6199 C.3       1 <0>        -0.1560
      2 C2         -0.3302    1.2209   -0.5269 C.3       1 <0>        -0.1168
      3 C3          0.0204   -0.2651   -0.4276 C.3       1 <0>        -0.0875
      4 C4          0.9449   -0.6397   -1.5572 C.2       1 <0>         0.2017
      5 C5          2.2926   -0.6266   -1.3616 C.2       1 <0>        -0.1405
      6 C6          3.1295   -0.9817   -2.4369 C.cat     1 <0>         0.3502
      7 N1          4.4422   -1.0729   -2.5888 N.pl3     1 <0>        -0.5865
      8 C7          4.7224   -1.4593   -3.8305 C.2       1 <0>         0.5454
      9 N2          3.6028   -1.6250   -4.5032 N.2       1 <0>        -0.3700
     10 N3          2.5502   -1.3239   -3.6304 N.pl3     1 <0>        -0.2733
     11 C8          1.2017   -1.3136   -3.7502 C.2       1 <0>         0.3973
     12 N4          0.4381   -0.9875   -2.7417 N.2       1 <0>        -0.4767
     13 C9          0.5713   -1.6907   -5.0661 C.3       1 <0>        -0.1026
     14 O1          5.9707   -1.6537   -4.3273 O.3       1 <0>        -0.6276
     15 C10         2.8744   -0.2418   -0.0258 C.3       1 <0>        -0.0347
     16 C11         3.1426   -1.4852    0.7823 C.ar      1 <0>        -0.0891
     17 C12         2.2068   -1.9248    1.7014 C.ar      1 <0>        -0.1215
     18 C13         2.4445   -3.0660    2.4401 C.ar      1 <0>         0.0164
     19 C14         3.6354   -3.7696    2.2669 C.ar      1 <0>        -0.0406
     20 C15         4.5772   -3.3187    1.3434 C.ar      1 <0>        -0.0955
     21 C16         4.3261   -2.1794    0.6062 C.ar      1 <0>        -0.1427
     22 C17         3.8995   -4.9925    3.0622 C.ar      1 <0>        -0.0433
     23 C18         4.3109   -6.1632    2.4305 C.ar      1 <0>        -0.1090
     24 C19         4.5561   -7.2993    3.1748 C.ar      1 <0>        -0.1348
     25 C20         4.3954   -7.2834    4.5499 C.ar      1 <0>        -0.1193
     26 C21         3.9882   -6.1312    5.1917 C.ar      1 <0>        -0.1041
     27 C22         3.7418   -4.9751    4.4566 C.ar      1 <0>         0.0533
     28 C23         3.3100   -3.7331    5.1427 C.2       1 <0>         0.0753
     29 N5          3.1223   -3.5733    6.4381 N.2       1 <0>        -0.3628
     30 N6          2.7516   -2.3549    6.6354 N.2       1 <0>        -0.1957
     31 N7          2.6984   -1.7377    5.5069 N.2       1 <0>        -0.1850
     32 N8          3.0401   -2.5524    4.5672 N.2       1 <0>        -0.3590
     33 H1         -1.5210    2.6694    0.5485 H         1 <0>         0.0586
     34 H2         -0.7714    1.4051    1.5812 H         1 <0>         0.0628
     35 H3         -2.1891    1.0020    0.5544 H         1 <0>         0.0586
     36 H4         -0.8277    1.4169   -1.4882 H         1 <0>         0.0693
     37 H5          0.5900    1.8200   -0.4615 H         1 <0>         0.0665
     38 H6          0.5179   -0.4610    0.5337 H         1 <0>         0.1053
     39 H7         -0.8999   -0.8641   -0.4929 H         1 <0>         0.1001
     40 H8         -0.5234   -1.6267   -4.9799 H         1 <0>         0.1099
     41 H9          0.8589   -2.7194   -5.3290 H         1 <0>         0.1033
     42 H10         0.9183   -1.0012   -5.8498 H         1 <0>         0.1026
     43 H11         3.8160    0.3055   -0.1800 H         1 <0>         0.0868
     44 H12         2.1617    0.3994    0.5136 H         1 <0>         0.1081
     45 H13         1.2866   -1.3762    1.8381 H         1 <0>         0.1167
     46 H14         1.7113   -3.4108    3.1542 H         1 <0>         0.1169
     47 H15         5.5017   -3.8596    1.2053 H         1 <0>         0.1153
     48 H16         5.0549   -1.8292   -0.1098 H         1 <0>         0.0998
     49 H17         4.4378   -6.1822    1.3581 H         1 <0>         0.1192
     50 H18         4.8755   -8.2057    2.6819 H         1 <0>         0.1176
     51 H19         4.5901   -8.1775    5.1236 H         1 <0>         0.1192
     52 H20         3.8651   -6.1254    6.2646 H         1 <0>         0.1297
     53 H21         5.1108   -0.8404   -1.7468 H         1 <0>         0.4687
@<TRIPOS>BOND
     1    1    2 1
     2    1   33 1
     3    1   34 1
     4    1   35 1
     5    2    3 1
     6    2   36 1
     7    2   37 1
     8    3    4 1
     9    3   38 1
    10    3   39 1
    11    4   12 1
    12    4    5 2
    13    5    6 1
    14    5   15 1
    15    6   10 1
    16    6    7 2
    17    7    8 1
    18    7   53 1
    19    8    9 2
    20    8   14 1
    21    9   10 1
    22   10   11 1
    23   11   12 2
    24   11   13 1
    25   13   40 1
    26   13   41 1
    27   13   42 1
    28   15   16 1
    29   15   43 1
    30   15   44 1
    31   16   21 ar
    32   16   17 ar
    33   17   18 ar
    34   17   45 1
    35   18   19 ar
    36   18   46 1
    37   19   20 ar
    38   19   22 1
    39   20   21 ar
    40   20   47 1
    41   21   48 1
    42   22   27 ar
    43   22   23 ar
    44   23   24 ar
    45   23   49 1
    46   24   25 ar
    47   24   50 1
    48   25   26 ar
    49   25   51 1
    50   26   27 ar
    51   26   52 1
    52   27   28 1
    53   28   32 1
    54   28   29 2
    55   29   30 1
    56   30   31 2
    57   31   32 1
@<TRIPOS>MOLECULE
ZINC13900167
   58    61     0     0     0
SMALL
USER_CHARGES
5-[(3,5-dibutyl-1,2,4-triazol-1-yl)methyl]-2-[2-(1H-tetrazol-5-yl)phenyl]pyridine
@<TRIPOS>ATOM
      1 C1         -2.0026   -9.9230   -6.2073 C.3       1 <0>        -0.1536
      2 C2         -2.1000   -8.3990   -6.3007 C.3       1 <0>        -0.1171
      3 C3         -2.6366   -7.8404   -4.9813 C.3       1 <0>        -0.1146
      4 C4         -2.7340   -6.3164   -5.0747 C.3       1 <0>        -0.0201
      5 C5         -3.2626   -5.7662   -3.7751 C.2       1 <0>         0.2253
      6 N1         -4.5478   -5.5709   -3.4827 N.2       1 <0>        -0.5390
      7 C6         -4.6589   -5.0866   -2.2725 C.2       1 <0>         0.2804
      8 N2         -3.4227   -4.9527   -1.7616 N.pl3     1 <0>        -0.3690
      9 N3         -2.5346   -5.4024   -2.7523 N.2       1 <0>        -0.3054
     10 C7         -3.0720   -4.4446   -0.4330 C.3       1 <0>         0.1813
     11 C8         -2.8613   -5.6026    0.5081 C.ar      1 <0>        -0.1814
     12 C9         -1.6371   -6.2552    0.5528 C.ar      1 <0>        -0.0407
     13 C10        -1.4846   -7.3142    1.4305 C.ar      1 <0>        -0.1037
     14 C11        -2.5602   -7.6871    2.2352 C.ar      1 <0>         0.2102
     15 N4         -3.7162   -7.0398    2.1581 N.ar      1 <0>        -0.4746
     16 C12        -3.8859   -6.0253    1.3348 C.ar      1 <0>         0.1107
     17 C13        -2.4135   -8.8192    3.1799 C.ar      1 <0>        -0.0452
     18 C14        -2.7719   -8.6667    4.5167 C.ar      1 <0>        -0.0848
     19 C15        -2.6291   -9.7225    5.3944 C.ar      1 <0>        -0.1399
     20 C16        -2.1343  -10.9385    4.9535 C.ar      1 <0>        -0.1100
     21 C17        -1.7780  -11.1093    3.6315 C.ar      1 <0>        -0.1069
     22 C18        -1.9159  -10.0544    2.7310 C.ar      1 <0>         0.0723
     23 C19        -1.5352  -10.2320    1.3135 C.2       1 <0>         0.0634
     24 N5         -0.5700  -10.9141   -0.4545 N.2       1 <0>        -0.1803
     25 N6         -1.4452  -10.0301   -0.7837 N.2       1 <0>        -0.1982
     26 N7         -2.0452   -9.6002    0.2722 N.2       1 <0>        -0.3480
     27 C20        -5.9477   -4.7365   -1.5743 C.3       1 <0>        -0.0428
     28 C21        -6.3856   -3.3298   -1.9871 C.3       1 <0>        -0.1114
     29 C22        -7.6292   -2.9286   -1.1913 C.3       1 <0>        -0.1243
     30 C23        -8.0671   -1.5220   -1.6041 C.3       1 <0>        -0.1523
     31 H1         -1.3272  -10.1949   -5.3962 H         1 <0>         0.0603
     32 H2         -2.9910  -10.3389   -6.0120 H         1 <0>         0.0527
     33 H3         -1.6203  -10.3210   -7.1473 H         1 <0>         0.0497
     34 H4         -2.7754   -8.1271   -7.1119 H         1 <0>         0.0582
     35 H5         -1.1116   -7.9831   -6.4961 H         1 <0>         0.0600
     36 H6         -1.9612   -8.1123   -4.1702 H         1 <0>         0.0735
     37 H7         -3.6251   -8.2563   -4.7860 H         1 <0>         0.0655
     38 H8         -3.4094   -6.0445   -5.8859 H         1 <0>         0.0849
     39 H9         -1.7456   -5.9004   -5.2701 H         1 <0>         0.0815
     40 H10        -3.8799   -3.8154   -0.0597 H         1 <0>         0.1046
     41 H11        -2.1554   -3.8583   -0.4985 H         1 <0>         0.1017
     42 H12        -0.8219   -5.9436   -0.0834 H         1 <0>         0.1277
     43 H13        -0.5455   -7.8441    1.4914 H         1 <0>         0.1232
     44 H14        -4.8395   -5.5193    1.3026 H         1 <0>         0.1467
     45 H15        -3.1578   -7.7211    4.8678 H         1 <0>         0.1221
     46 H16        -2.9046   -9.5993    6.4313 H         1 <0>         0.1199
     47 H17        -2.0263  -11.7578    5.6488 H         1 <0>         0.1208
     48 H18        -1.3922  -12.0601    3.2946 H         1 <0>         0.1286
     49 H19        -6.7191   -5.4539   -1.8542 H         1 <0>         0.1003
     50 H20        -5.7966   -4.7679   -0.4952 H         1 <0>         0.0841
     51 H21        -5.5804   -2.6241   -1.7830 H         1 <0>         0.0613
     52 H22        -6.6167   -3.3192   -3.0523 H         1 <0>         0.0729
     53 H23        -8.4345   -3.6344   -1.3954 H         1 <0>         0.0662
     54 H24        -7.3981   -2.9393   -0.1261 H         1 <0>         0.0642
     55 H25        -8.9531   -1.2362   -1.0372 H         1 <0>         0.0542
     56 H26        -7.2619   -0.8162   -1.4001 H         1 <0>         0.0528
     57 H27        -8.2983   -1.5114   -2.6693 H         1 <0>         0.0541
     58 N8         -0.5988  -11.0613    0.8178 N.2       1 <0>        -0.3720
@<TRIPOS>BOND
     1    1    2 1
     2    1   31 1
     3    1   32 1
     4    1   33 1
     5    2    3 1
     6    2   34 1
     7    2   35 1
     8    3    4 1
     9    3   36 1
    10    3   37 1
    11    4    5 1
    12    4   38 1
    13    4   39 1
    14    5    9 2
    15    5    6 1
    16    6    7 2
    17    7    8 1
    18    7   27 1
    19    8    9 1
    20    8   10 1
    21   10   11 1
    22   10   40 1
    23   10   41 1
    24   11   16 ar
    25   11   12 ar
    26   12   13 ar
    27   12   42 1
    28   13   14 ar
    29   13   43 1
    30   14   15 ar
    31   14   17 1
    32   15   16 ar
    33   16   44 1
    34   17   22 ar
    35   17   18 ar
    36   18   19 ar
    37   18   45 1
    38   19   20 ar
    39   19   46 1
    40   20   21 ar
    41   20   47 1
    42   21   22 ar
    43   21   48 1
    44   22   23 1
    45   23   26 2
    46   23   58 1
    47   24   25 2
    48   24   58 1
    49   25   26 1
    50   27   28 1
    51   27   49 1
    52   27   50 1
    53   28   29 1
    54   28   51 1
    55   28   52 1
    56   29   30 1
    57   29   53 1
    58   29   54 1
    59   30   55 1
    60   30   56 1
    61   30   57 1
@<TRIPOS>MOLECULE
ZINC27079783
   63    65     0     0     0
SMALL
USER_CHARGES

@<TRIPOS>ATOM
      1 C1          1.7715    2.2070    4.7963 C.3       1 <0>        -0.1523
      2 C2          1.7614    1.1352    3.7045 C.3       1 <0>        -0.1251
      3 C3          1.6686   -0.2491    4.3495 C.3       1 <0>        -0.1040
      4 C4          1.6585   -1.3209    3.2577 C.3       1 <0>        -0.1485
      5 C5          1.5671   -2.6844    3.8931 C.2       1 <0>         0.5191
      6 O1          1.6118   -2.7952    5.1000 O.2       1 <0>        -0.5243
      7 N1          1.4358   -3.7806    3.1202 N.am      1 <0>        -0.5874
      8 C6          1.2671   -5.0975    3.7394 C.3       1 <0>         0.1436
      9 C7         -0.1786   -5.2936    4.1171 C.ar      1 <0>        -0.0554
     10 C8         -0.9062   -4.2349    4.6304 C.ar      1 <0>        -0.1311
     11 C9         -2.2304   -4.4085    4.9780 C.ar      1 <0>        -0.1062
     12 C10        -2.8346   -5.6538    4.8110 C.ar      1 <0>        -0.0421
     13 C11        -2.0962   -6.7170    4.2932 C.ar      1 <0>        -0.0093
     14 C12        -0.7744   -6.5300    3.9439 C.ar      1 <0>        -0.0995
     15 C13        -4.2563   -5.8467    5.1830 C.ar      1 <0>        -0.0361
     16 C14        -4.6967   -5.5158    6.4616 C.ar      1 <0>        -0.1116
     17 C15        -6.0215   -5.6970    6.8039 C.ar      1 <0>        -0.1382
     18 C16        -6.9201   -6.2074    5.8820 C.ar      1 <0>        -0.1246
     19 C17        -6.5017   -6.5409    4.6102 C.ar      1 <0>        -0.1075
     20 C18        -5.1688   -6.3591    4.2454 C.ar      1 <0>         0.0542
     21 C19        -4.7163   -6.7096    2.8821 C.2       1 <0>         0.0630
     22 N2         -5.4532   -7.2526    1.9109 N.2       1 <0>        -0.3710
     23 N3         -4.6901   -7.4002    0.8823 N.2       1 <0>        -0.2030
     24 N4         -3.5090   -6.9745    1.1649 N.2       1 <0>        -0.1908
     25 N5         -3.4921   -6.5399    2.3785 N.2       1 <0>        -0.3269
     26 C20         1.4616   -3.6552    1.6608 C.3       1 <0>         0.1529
     27 H1          1.4176   -2.6014    1.3858 H         1 <0>         0.1203
     28 C21         2.7536   -4.2701    1.1189 C.3       1 <0>        -0.0985
     29 C22         3.9569   -3.5512    1.7322 C.3       1 <0>        -0.1454
     30 C23         2.8050   -5.7546    1.4859 C.3       1 <0>        -0.1626
     31 C24         0.2766   -4.3776    1.0734 C.2       1 <0>         0.4182
     32 O2         -0.4178   -5.0715    1.7779 O.2       1 <0>        -0.4220
     33 O3         -0.0074   -4.2502   -0.2322 O.3       1 <0>        -0.3648
     34 C25        -1.2188   -4.8511   -0.6943 C.3       1 <0>         0.0445
     35 H2          2.6303    2.0522    5.4494 H         1 <0>         0.0539
     36 H3          1.8376    3.1931    4.3367 H         1 <0>         0.0525
     37 H4          0.8538    2.1392    5.3805 H         1 <0>         0.0547
     38 H5          0.9026    1.2899    3.0513 H         1 <0>         0.0617
     39 H6          2.6791    1.2030    3.1202 H         1 <0>         0.0610
     40 H7          2.5274   -0.4039    5.0027 H         1 <0>         0.0711
     41 H8          0.7509   -0.3169    4.9338 H         1 <0>         0.0693
     42 H9          0.7997   -1.1661    2.6046 H         1 <0>         0.0909
     43 H10         2.5762   -1.2531    2.6735 H         1 <0>         0.0950
     44 H11         1.5664   -5.8721    3.0332 H         1 <0>         0.1032
     45 H12         1.8879   -5.1611    4.6330 H         1 <0>         0.0813
     46 H13        -0.4370   -3.2708    4.7596 H         1 <0>         0.1077
     47 H14        -2.7974   -3.5813    5.3790 H         1 <0>         0.1022
     48 H15        -2.5591   -7.6839    4.1617 H         1 <0>         0.1013
     49 H16        -0.2026   -7.3517    3.5386 H         1 <0>         0.1008
     50 H17        -4.0015   -5.1176    7.1858 H         1 <0>         0.1180
     51 H18        -6.3593   -5.4395    7.7968 H         1 <0>         0.1146
     52 H19        -7.9544   -6.3456    6.1603 H         1 <0>         0.1159
     53 H20        -7.2076   -6.9388    3.8962 H         1 <0>         0.1265
     54 H21         2.7802   -4.1628    0.0345 H         1 <0>         0.0950
     55 H22         3.9304   -3.6585    2.8165 H         1 <0>         0.0600
     56 H23         4.8774   -3.9892    1.3461 H         1 <0>         0.0625
     57 H24         3.9203   -2.4936    1.4707 H         1 <0>         0.0566
     58 H25         1.8028   -6.1787    1.4253 H         1 <0>         0.0660
     59 H26         3.4635   -6.2777    0.7925 H         1 <0>         0.0612
     60 H27         3.1854   -5.8648    2.5014 H         1 <0>         0.0667
     61 H28        -1.1705   -5.9294   -0.5425 H         1 <0>         0.0711
     62 H29        -2.0622   -4.4431   -0.1371 H         1 <0>         0.0609
     63 H30        -1.3478   -4.6390   -1.7556 H         1 <0>         0.0906
@<TRIPOS>BOND
     1    1    2 1
     2    1   35 1
     3    1   36 1
     4    1   37 1
     5    2    3 1
     6    2   38 1
     7    2   39 1
     8    3    4 1
     9    3   40 1
    10    3   41 1
    11    4    5 1
    12    4   42 1
    13    4   43 1
    14    5    6 2
    15    5    7 am
    16    7    8 1
    17    7   26 1
    18    8    9 1
    19    8   44 1
    20    8   45 1
    21    9   14 ar
    22    9   10 ar
    23   10   11 ar
    24   10   46 1
    25   11   12 ar
    26   11   47 1
    27   12   13 ar
    28   12   15 1
    29   13   14 ar
    30   13   48 1
    31   14   49 1
    32   15   20 ar
    33   15   16 ar
    34   16   17 ar
    35   16   50 1
    36   17   18 ar
    37   17   51 1
    38   18   19 ar
    39   18   52 1
    40   19   20 ar
    41   19   53 1
    42   20   21 1
    43   21   22 2
    44   21   25 1
    45   22   23 1
    46   23   24 2
    47   24   25 1
    48   26   27 1
    49   26   28 1
    50   26   31 1
    51   28   29 1
    52   28   30 1
    53   28   54 1
    54   29   55 1
    55   29   56 1
    56   29   57 1
    57   30   58 1
    58   30   59 1
    59   30   60 1
    60   31   32 2
    61   31   33 1
    62   33   34 1
    63   34   61 1
    64   34   62 1
    65   34   63 1
@<TRIPOS>MOLECULE
ZINC13444037
   51    55     0     0     0
SMALL
USER_CHARGES
2,4-dimethyl-8-[[4-[2-(1H-tetrazol-5-yl)phenyl]phenyl]methyl]-5,6-dihydropyrido[5,6-e]pyrimidin-7-one
@<TRIPOS>ATOM
      1 C1          5.9204    9.0812    5.4748 C.3       1 <0>        -0.1071
      2 C2          6.2938    8.0426    4.4487 C.ar      1 <0>         0.2053
      3 C3          5.9155    8.1907    3.1303 C.ar      1 <0>        -0.2427
      4 C4          6.2977    7.2180    2.2102 C.ar      1 <0>         0.4293
      5 N1          6.9811    6.1627    2.6377 N.ar      1 <0>        -0.5407
      6 C5          7.3193    6.0546    3.9073 C.ar      1 <0>         0.3574
      7 N2          6.9923    6.9702    4.7973 N.ar      1 <0>        -0.5407
      8 C6          8.1028    4.8476    4.3547 C.3       1 <0>        -0.0876
      9 N3          5.9446    7.3455    0.8751 N.am      1 <0>        -0.5286
     10 C7          5.4930    8.5162    0.3920 C.2       1 <0>         0.5235
     11 O1          5.1006    8.5796   -0.7536 O.2       1 <0>        -0.5017
     12 C8          5.4632    9.7482    1.2563 C.3       1 <0>        -0.1380
     13 C9          5.0916    9.3700    2.6913 C.3       1 <0>        -0.0659
     14 C10         6.0709    6.1931   -0.0205 C.3       1 <0>         0.1501
     15 C11         4.7846    5.4079   -0.0132 C.ar      1 <0>        -0.1090
     16 C12         3.7865    5.7124   -0.9213 C.ar      1 <0>        -0.1213
     17 C13         2.6063    4.9972   -0.9191 C.ar      1 <0>        -0.1083
     18 C14         2.4210    3.9661    0.0008 C.ar      1 <0>        -0.0421
     19 C15         3.4282    3.6676    0.9174 C.ar      1 <0>         0.0076
     20 C16         4.6064    4.3859    0.9019 C.ar      1 <0>        -0.1070
     21 C17         1.1557    3.1942    0.0082 C.ar      1 <0>        -0.0330
     22 C18        -0.0686    3.8568    0.0235 C.ar      1 <0>        -0.1115
     23 C19        -1.2446    3.1342    0.0309 C.ar      1 <0>        -0.1321
     24 C20        -1.2166    1.7496    0.0173 C.ar      1 <0>        -0.1235
     25 C21        -0.0126    1.0758    0.0080 C.ar      1 <0>        -0.1006
     26 C22         1.1849    1.7894    0.0004 C.ar      1 <0>         0.0476
     27 C23         2.4777    1.0724   -0.0164 C.2       1 <0>         0.1213
     28 N4          4.0472   -0.4615   -0.0394 N.2       1 <0>        -0.2080
     29 N5          4.5838    0.7105   -0.0379 N.2       1 <0>        -0.1561
     30 N6          3.6760    1.6186   -0.0245 N.2       1 <0>        -0.3819
     31 H1          6.7037    9.8374    5.5281 H         1 <0>         0.0864
     32 H2          4.9797    9.5521    5.1895 H         1 <0>         0.0821
     33 H3          5.8078    8.6055    6.4490 H         1 <0>         0.0848
     34 H4          9.1696    5.0555    4.2712 H         1 <0>         0.0869
     35 H5          7.8573    4.6189    5.3918 H         1 <0>         0.0873
     36 H6          7.8484    3.9953    3.7247 H         1 <0>         0.0910
     37 H7          4.7270   10.4500    0.8644 H         1 <0>         0.1137
     38 H8          6.4484   10.2145    1.2482 H         1 <0>         0.1028
     39 H9          4.0338    9.1108    2.7362 H         1 <0>         0.0868
     40 H10         5.2865   10.2151    3.3516 H         1 <0>         0.0960
     41 H11         6.8873    5.5561    0.3200 H         1 <0>         0.1055
     42 H12         6.2788    6.5404   -1.0325 H         1 <0>         0.0940
     43 H13         3.9310    6.5116   -1.6332 H         1 <0>         0.1175
     44 H14         1.8279    5.2356   -1.6288 H         1 <0>         0.1119
     45 H15         3.2883    2.8731    1.6354 H         1 <0>         0.1117
     46 H16         5.3890    4.1529    1.6088 H         1 <0>         0.1136
     47 H17        -0.0982    4.9364    0.0293 H         1 <0>         0.1200
     48 H18        -2.1924    3.6517    0.0424 H         1 <0>         0.1173
     49 H19        -2.1427    1.1939    0.0187 H         1 <0>         0.1189
     50 H20         0.0021   -0.0041    0.0020 H         1 <0>         0.1291
     51 N7          2.6741   -0.2531   -0.0205 N.2       1 <0>        -0.4123
@<TRIPOS>BOND
     1    1    2 1
     2    1   31 1
     3    1   32 1
     4    1   33 1
     5    2    7 ar
     6    2    3 ar
     7    3   13 1
     8    3    4 ar
     9    4    5 ar
    10    4    9 1
    11    5    6 ar
    12    6    7 ar
    13    6    8 1
    14    8   34 1
    15    8   35 1
    16    8   36 1
    17    9   10 am
    18    9   14 1
    19   10   11 2
    20   10   12 1
    21   12   13 1
    22   12   37 1
    23   12   38 1
    24   13   39 1
    25   13   40 1
    26   14   15 1
    27   14   41 1
    28   14   42 1
    29   15   20 ar
    30   15   16 ar
    31   16   17 ar
    32   16   43 1
    33   17   18 ar
    34   17   44 1
    35   18   19 ar
    36   18   21 1
    37   19   20 ar
    38   19   45 1
    39   20   46 1
    40   21   26 ar
    41   21   22 ar
    42   22   23 ar
    43   22   47 1
    44   23   24 ar
    45   23   48 1
    46   24   25 ar
    47   24   49 1
    48   25   26 ar
    49   25   50 1
    50   26   27 1
    51   27   30 2
    52   27   51 1
    53   28   29 2
    54   28   51 1
    55   29   30 1
@<TRIPOS>MOLECULE
ZINC01551889
   52    55     0     0     0
SMALL
USER_CHARGES
2-[4-[(2-butylbenzoimidazol-1-yl)methyl]phenyl]benzoic acid
@<TRIPOS>ATOM
      1 C1         -1.9165   -0.3515    2.9624 C.3       1 <0>        -0.1521
      2 C2         -1.9356   -0.0073    1.4717 C.3       1 <0>        -0.1241
      3 C3         -1.7948    1.5060    1.2959 C.3       1 <0>        -0.1121
      4 C4         -1.8138    1.8501   -0.1948 C.3       1 <0>        -0.0468
      5 C5         -1.5539    3.3237   -0.3735 C.2       1 <0>         0.2895
      6 N1         -0.3751    3.8728   -0.4162 N.2       1 <0>        -0.4964
      7 C6         -0.5022    5.2140   -0.5861 C.ar      1 <0>         0.0464
      8 C7          0.4149    6.2626   -0.6967 C.ar      1 <0>        -0.0679
      9 C8         -0.0317    7.5424   -0.8659 C.ar      1 <0>        -0.1300
     10 C9         -1.3909    7.8153   -0.9292 C.ar      1 <0>        -0.1054
     11 C10        -2.3138    6.7975   -0.8172 C.ar      1 <0>        -0.1027
     12 C11        -1.8784    5.4897   -0.6505 C.ar      1 <0>         0.0566
     13 N2         -2.5175    4.2738   -0.5130 N.pl3     1 <0>        -0.4771
     14 C12        -3.9650    4.0483   -0.5170 C.3       1 <0>         0.1575
     15 C13        -4.4357    3.8309   -1.9320 C.ar      1 <0>        -0.1280
     16 C14        -4.8704    4.9060   -2.6863 C.ar      1 <0>        -0.1065
     17 C15        -5.2972    4.7139   -3.9844 C.ar      1 <0>        -0.0268
     18 C16        -5.3004    3.4314   -4.5318 C.ar      1 <0>         0.0010
     19 C17        -4.8663    2.3509   -3.7646 C.ar      1 <0>        -0.1130
     20 C18        -4.4365    2.5562   -2.4695 C.ar      1 <0>        -0.1148
     21 C19        -5.7627    3.2177   -5.9233 C.ar      1 <0>        -0.0336
     22 C20        -6.8282    2.3605   -6.1834 C.ar      1 <0>        -0.1234
     23 C21        -7.2554    2.1638   -7.4811 C.ar      1 <0>        -0.1260
     24 C22        -6.6311    2.8155   -8.5321 C.ar      1 <0>        -0.1359
     25 C23        -5.5741    3.6690   -8.2951 C.ar      1 <0>        -0.0799
     26 C24        -5.1312    3.8842   -6.9891 C.ar      1 <0>        -0.1005
     27 C25        -4.0052    4.8006   -6.7286 C.2       1 <0>         0.4831
     28 O1         -3.5495    4.8996   -5.6067 O.co2     1 <0>        -0.6080
     29 H1         -0.9744   -0.0209    3.3996 H         1 <0>         0.0541
     30 H2         -2.7449    0.1510    3.4619 H         1 <0>         0.0526
     31 H3         -2.0168   -1.4296    3.0877 H         1 <0>         0.0537
     32 H4         -2.8777   -0.3379    1.0345 H         1 <0>         0.0634
     33 H5         -1.1072   -0.5098    0.9723 H         1 <0>         0.0657
     34 H6         -0.8527    1.8365    1.7331 H         1 <0>         0.0720
     35 H7         -2.6232    2.0084    1.7953 H         1 <0>         0.0613
     36 H8         -2.7888    1.5998   -0.6131 H         1 <0>         0.0848
     37 H9         -1.0405    1.2797   -0.7093 H         1 <0>         0.0990
     38 H10         1.4749    6.0614   -0.6488 H         1 <0>         0.1245
     39 H11         0.6802    8.3501   -0.9510 H         1 <0>         0.1254
     40 H12        -1.7280    8.8327   -1.0626 H         1 <0>         0.1268
     41 H13        -3.3705    7.0158   -0.8630 H         1 <0>         0.1185
     42 H14        -4.1973    3.1681    0.0825 H         1 <0>         0.0966
     43 H15        -4.4694    4.9180   -0.0959 H         1 <0>         0.0933
     44 H16        -4.8720    5.8981   -2.2597 H         1 <0>         0.1119
     45 H17        -5.6322    5.5546   -4.5739 H         1 <0>         0.1149
     46 H18        -4.8663    1.3554   -4.1834 H         1 <0>         0.1164
     47 H19        -4.0998    1.7201   -1.8745 H         1 <0>         0.1136
     48 H20        -7.3205    1.8489   -5.3695 H         1 <0>         0.1177
     49 H21        -8.0823    1.4976   -7.6784 H         1 <0>         0.1161
     50 H22        -6.9744    2.6544   -9.5433 H         1 <0>         0.1167
     51 H23        -5.0917    4.1735   -9.1192 H         1 <0>         0.1314
     52 O2         -3.4818    5.5279   -7.7350 O.co2     1 <0>        -0.7534
@<TRIPOS>BOND
     1    1    2 1
     2    1   29 1
     3    1   30 1
     4    1   31 1
     5    2    3 1
     6    2   32 1
     7    2   33 1
     8    3    4 1
     9    3   34 1
    10    3   35 1
    11    4    5 1
    12    4   36 1
    13    4   37 1
    14    5   13 1
    15    5    6 2
    16    6    7 1
    17    7   12 ar
    18    7    8 ar
    19    8    9 ar
    20    8   38 1
    21    9   10 ar
    22    9   39 1
    23   10   11 ar
    24   10   40 1
    25   11   12 ar
    26   11   41 1
    27   12   13 1
    28   13   14 1
    29   14   15 1
    30   14   42 1
    31   14   43 1
    32   15   20 ar
    33   15   16 ar
    34   16   17 ar
    35   16   44 1
    36   17   18 ar
    37   17   45 1
    38   18   19 ar
    39   18   21 1
    40   19   20 ar
    41   19   46 1
    42   20   47 1
    43   21   26 ar
    44   21   22 ar
    45   22   23 ar
    46   22   48 1
    47   23   24 ar
    48   23   49 1
    49   24   25 ar
    50   24   50 1
    51   25   26 ar
    52   25   51 1
    53   26   27 1
    54   27   28 2
    55   27   52 1
@<TRIPOS>MOLECULE
ZINC01551889
   53    56     0     0     0
SMALL
USER_CHARGES
2-[4-[(2-butylbenzoimidazol-1-yl)methyl]phenyl]benzoic acid
@<TRIPOS>ATOM
      1 C1         -1.9165   -0.3515    2.9624 C.3       1 <0>        -0.1565
      2 C2         -1.9356   -0.0073    1.4717 C.3       1 <0>        -0.1251
      3 C3         -1.7948    1.5060    1.2959 C.3       1 <0>        -0.1197
      4 C4         -1.8138    1.8501   -0.1948 C.3       1 <0>        -0.0879
      5 C5         -1.5539    3.3237   -0.3735 C.cat     1 <0>         0.3911
      6 C6         -0.5022    5.2140   -0.5861 C.ar      1 <0>         0.0476
      7 C7          0.4149    6.2626   -0.6967 C.ar      1 <0>        -0.0811
      8 C8         -0.0317    7.5424   -0.8659 C.ar      1 <0>        -0.0820
      9 C9         -1.3909    7.8153   -0.9292 C.ar      1 <0>        -0.0702
     10 C10        -2.3138    6.7975   -0.8172 C.ar      1 <0>        -0.0816
     11 C11        -1.8784    5.4897   -0.6505 C.ar      1 <0>         0.0861
     12 N1         -2.5175    4.2738   -0.5130 N.pl3     1 <0>        -0.4148
     13 C12        -3.9650    4.0483   -0.5170 C.3       1 <0>         0.1476
     14 C13        -4.4357    3.8309   -1.9320 C.ar      1 <0>        -0.1582
     15 C14        -4.8704    4.9060   -2.6863 C.ar      1 <0>        -0.1007
     16 C15        -5.2972    4.7139   -3.9844 C.ar      1 <0>        -0.0243
     17 C16        -5.3004    3.4314   -4.5318 C.ar      1 <0>         0.0279
     18 C17        -4.8663    2.3509   -3.7646 C.ar      1 <0>        -0.1141
     19 C18        -4.4365    2.5562   -2.4695 C.ar      1 <0>        -0.1106
     20 C19        -5.7627    3.2177   -5.9233 C.ar      1 <0>        -0.0494
     21 C20        -6.8282    2.3605   -6.1834 C.ar      1 <0>        -0.1200
     22 C21        -7.2554    2.1638   -7.4811 C.ar      1 <0>        -0.1224
     23 C22        -6.6311    2.8155   -8.5321 C.ar      1 <0>        -0.1280
     24 C23        -5.5741    3.6690   -8.2951 C.ar      1 <0>        -0.0784
     25 C24        -5.1312    3.8842   -6.9891 C.ar      1 <0>        -0.1002
     26 C25        -4.0052    4.8006   -6.7286 C.2       1 <0>         0.4873
     27 O1         -3.5495    4.8996   -5.6067 O.co2     1 <0>        -0.6228
     28 H1         -0.9744   -0.0209    3.3996 H         1 <0>         0.0559
     29 H2         -2.7449    0.1510    3.4619 H         1 <0>         0.0571
     30 H3         -2.0168   -1.4296    3.0877 H         1 <0>         0.0627
     31 H4         -2.8777   -0.3379    1.0345 H         1 <0>         0.0727
     32 H5         -1.1072   -0.5098    0.9723 H         1 <0>         0.0711
     33 H6         -0.8527    1.8365    1.7331 H         1 <0>         0.0744
     34 H7         -2.6232    2.0084    1.7953 H         1 <0>         0.0777
     35 H8         -2.7888    1.5998   -0.6131 H         1 <0>         0.1237
     36 H9         -1.0405    1.2797   -0.7093 H         1 <0>         0.1257
     37 H10         1.4749    6.0614   -0.6488 H         1 <0>         0.1479
     38 H11         0.6802    8.3501   -0.9510 H         1 <0>         0.1524
     39 H12        -1.7280    8.8327   -1.0626 H         1 <0>         0.1536
     40 H13        -3.3705    7.0158   -0.8630 H         1 <0>         0.1481
     41 H14        -4.1973    3.1681    0.0825 H         1 <0>         0.1188
     42 H15        -4.4694    4.9180   -0.0959 H         1 <0>         0.1216
     43 H16        -4.8720    5.8981   -2.2597 H         1 <0>         0.1157
     44 H17        -5.6322    5.5546   -4.5739 H         1 <0>         0.1220
     45 H18        -4.8663    1.3554   -4.1834 H         1 <0>         0.1232
     46 H19        -4.0998    1.7201   -1.8745 H         1 <0>         0.1142
     47 H20        -7.3205    1.8489   -5.3695 H         1 <0>         0.1190
     48 H21        -8.0823    1.4976   -7.6784 H         1 <0>         0.1202
     49 H22        -6.9744    2.6544   -9.5433 H         1 <0>         0.1211
     50 H23        -5.0917    4.1735   -9.1192 H         1 <0>         0.1342
     51 O2         -3.4818    5.5279   -7.7350 O.co2     1 <0>        -0.7437
     52 N2         -0.3742    3.8723   -0.4161 N.pl3     1 <0>        -0.5007
     53 H24         0.5165    3.3682   -0.3339 H         1 <0>         0.4716
@<TRIPOS>BOND
     1    1    2 1
     2    1   28 1
     3    1   29 1
     4    1   30 1
     5    2    3 1
     6    2   31 1
     7    2   32 1
     8    3    4 1
     9    3   33 1
    10    3   34 1
    11    4    5 1
    12    4   35 1
    13    4   36 1
    14    5   12 1
    15    5   52 2
    16    6   11 ar
    17    6    7 ar
    18    6   52 1
    19    7    8 ar
    20    7   37 1
    21    8    9 ar
    22    8   38 1
    23    9   10 ar
    24    9   39 1
    25   10   11 ar
    26   10   40 1
    27   11   12 1
    28   12   13 1
    29   13   14 1
    30   13   41 1
    31   13   42 1
    32   14   19 ar
    33   14   15 ar
    34   15   16 ar
    35   15   43 1
    36   16   17 ar
    37   16   44 1
    38   17   18 ar
    39   17   20 1
    40   18   19 ar
    41   18   45 1
    42   19   46 1
    43   20   25 ar
    44   20   21 ar
    45   21   22 ar
    46   21   47 1
    47   22   23 ar
    48   22   48 1
    49   23   24 ar
    50   23   49 1
    51   24   25 ar
    52   24   50 1
    53   25   26 1
    54   26   27 2
    55   26   51 1
    56   52   53 1
@<TRIPOS>MOLECULE
ZINC13451137
   54    58     0     0     0
SMALL
USER_CHARGES
2-butyl-1-[[4-[2-(1H-tetrazol-5-yl)phenyl]phenyl]methyl]benzimidazole
@<TRIPOS>ATOM
      1 C1         -0.6455   -0.2582    3.2377 C.3       1 <0>        -0.1527
      2 C2         -0.7829    0.1470    1.7688 C.3       1 <0>        -0.1236
      3 C3         -0.9702    1.6625    1.6732 C.3       1 <0>        -0.1134
      4 C4         -1.1076    2.0678    0.2043 C.3       1 <0>        -0.0461
      5 C5         -1.1931    3.5690    0.1032 C.2       1 <0>         0.2905
      6 N1         -0.1706    4.3722    0.0550 N.2       1 <0>        -0.4988
      7 C6         -0.6028    5.6564   -0.0326 C.ar      1 <0>         0.0454
      8 C7          0.0499    6.8896   -0.1113 C.ar      1 <0>        -0.0701
      9 C8         -0.6795    8.0418   -0.1917 C.ar      1 <0>        -0.1303
     10 C9         -2.0667    8.0026   -0.1957 C.ar      1 <0>        -0.1079
     11 C10        -2.7318    6.7979   -0.1136 C.ar      1 <0>        -0.1036
     12 C11        -2.0072    5.6162   -0.0371 C.ar      1 <0>         0.0540
     13 N2         -2.3505    4.2818    0.0499 N.pl3     1 <0>        -0.4753
     14 C12        -3.7092    3.7349    0.0789 C.3       1 <0>         0.1539
     15 C13        -4.1969    3.5260   -1.3316 C.ar      1 <0>        -0.1139
     16 C14        -4.7777    4.5745   -2.0222 C.ar      1 <0>        -0.1082
     17 C15        -5.2209    4.3907   -3.3161 C.ar      1 <0>         0.0161
     18 C16        -5.0923    3.1423   -3.9233 C.ar      1 <0>        -0.0382
     19 C17        -4.5113    2.0878   -3.2203 C.ar      1 <0>        -0.1025
     20 C18        -4.0670    2.2849   -1.9288 C.ar      1 <0>        -0.1289
     21 C19        -5.5719    2.9368   -5.3106 C.ar      1 <0>        -0.0362
     22 C20        -4.7400    2.3483   -6.2591 C.ar      1 <0>        -0.1100
     23 C21        -5.1922    2.1544   -7.5487 C.ar      1 <0>        -0.1313
     24 C22        -6.4684    2.5517   -7.9111 C.ar      1 <0>        -0.1217
     25 C23        -7.3050    3.1415   -6.9860 C.ar      1 <0>        -0.1002
     26 C24        -6.8669    3.3402   -5.6777 C.ar      1 <0>         0.0479
     27 C25        -7.7591    3.9721   -4.6825 C.2       1 <0>         0.1224
     28 N3         -9.4516    4.9249   -3.6604 N.2       1 <0>        -0.2059
     29 N4         -8.4726    4.7758   -2.8354 N.2       1 <0>        -0.1569
     30 N5         -7.4744    4.2189   -3.4206 N.2       1 <0>        -0.3856
     31 H1         -1.5453    0.0316    3.7803 H         1 <0>         0.0534
     32 H2         -0.5121   -1.3379    3.3058 H         1 <0>         0.0540
     33 H3          0.2188    0.2428    3.6736 H         1 <0>         0.0538
     34 H4         -1.6473   -0.3541    1.3330 H         1 <0>         0.0641
     35 H5          0.1169   -0.1428    1.2262 H         1 <0>         0.0652
     36 H6         -0.1059    2.1636    2.1090 H         1 <0>         0.0714
     37 H7         -1.8700    1.9524    2.2158 H         1 <0>         0.0622
     38 H8         -2.0117    1.6235   -0.2121 H         1 <0>         0.0860
     39 H9         -0.2396    1.7149   -0.3527 H         1 <0>         0.0985
     40 H10         1.1291    6.9316   -0.1089 H         1 <0>         0.1240
     41 H11        -0.1714    8.9929   -0.2523 H         1 <0>         0.1250
     42 H12        -2.6290    8.9225   -0.2590 H         1 <0>         0.1272
     43 H13        -3.8116    6.7733   -0.1130 H         1 <0>         0.1222
     44 H14        -3.7059    2.7814    0.6071 H         1 <0>         0.0978
     45 H15        -4.3708    4.4325    0.5925 H         1 <0>         0.0962
     46 H16        -4.8804    5.5400   -1.5493 H         1 <0>         0.1103
     47 H17        -5.6700    5.2113   -3.8559 H         1 <0>         0.1154
     48 H18        -4.4094    1.1184   -3.6855 H         1 <0>         0.1152
     49 H19        -3.6167    1.4688   -1.3833 H         1 <0>         0.1119
     50 H20        -3.7420    2.0396   -5.9847 H         1 <0>         0.1209
     51 H21        -4.5452    1.6940   -8.2807 H         1 <0>         0.1182
     52 H22        -6.8106    2.3994   -8.9241 H         1 <0>         0.1197
     53 H23        -8.2989    3.4493   -7.2754 H         1 <0>         0.1296
     54 N6         -9.0097    4.4138   -4.8740 N.2       1 <0>        -0.4107
@<TRIPOS>BOND
     1    1    2 1
     2    1   31 1
     3    1   32 1
     4    1   33 1
     5    2    3 1
     6    2   34 1
     7    2   35 1
     8    3    4 1
     9    3   36 1
    10    3   37 1
    11    4    5 1
    12    4   38 1
    13    4   39 1
    14    5   13 1
    15    5    6 2
    16    6    7 1
    17    7   12 ar
    18    7    8 ar
    19    8    9 ar
    20    8   40 1
    21    9   10 ar
    22    9   41 1
    23   10   11 ar
    24   10   42 1
    25   11   12 ar
    26   11   43 1
    27   12   13 1
    28   13   14 1
    29   14   15 1
    30   14   44 1
    31   14   45 1
    32   15   20 ar
    33   15   16 ar
    34   16   17 ar
    35   16   46 1
    36   17   18 ar
    37   17   47 1
    38   18   19 ar
    39   18   21 1
    40   19   20 ar
    41   19   48 1
    42   20   49 1
    43   21   26 ar
    44   21   22 ar
    45   22   23 ar
    46   22   50 1
    47   23   24 ar
    48   23   51 1
    49   24   25 ar
    50   24   52 1
    51   25   26 ar
    52   25   53 1
    53   26   27 1
    54   27   30 2
    55   27   54 1
    56   28   29 2
    57   28   54 1
    58   29   30 1
@<TRIPOS>MOLECULE
ZINC29319828
   53    55     0     0     0
SMALL
USER_CHARGES

@<TRIPOS>ATOM
      1 C1          1.9590    1.1917   -0.6016 C.3       1 <0>        -0.1585
      2 C2          1.3921   -0.2274   -0.5264 C.3       1 <0>        -0.1190
      3 C3          2.0028   -1.0802   -1.6402 C.3       1 <0>        -0.1362
      4 C4          1.4359   -2.4993   -1.5650 C.3       1 <0>        -0.0674
      5 C5          2.0375   -3.3394   -2.6620 C.cat     1 <0>         0.2948
      6 N1          3.1795   -3.9743   -2.5876 N.pl3     1 <0>        -0.4645
      7 C6          3.4127   -4.6198   -3.7296 C.2       1 <0>        -0.0489
      8 C7          2.3463   -4.3722   -4.5736 C.2       1 <0>         0.1371
      9 N2          1.4807   -3.5574   -3.8677 N.pl3     1 <0>        -0.3907
     10 C8          0.2001   -3.0284   -4.3437 C.3       1 <0>         0.1421
     11 C9          0.4390   -1.7627   -5.1259 C.ar      1 <0>        -0.1590
     12 C10         0.3256   -0.5342   -4.4991 C.ar      1 <0>        -0.1160
     13 C11         0.5424    0.6284   -5.2088 C.ar      1 <0>        -0.0900
     14 C12         0.8777    0.5636   -6.5636 C.ar      1 <0>        -0.1022
     15 C13         0.9908   -0.6804   -7.1896 C.ar      1 <0>        -0.0821
     16 C14         0.7763   -1.8348   -6.4661 C.ar      1 <0>        -0.1022
     17 C15         1.1106    1.8028   -7.3296 C.2       1 <0>         0.5143
     18 O1          0.9199    2.8909   -6.8051 O.co2     1 <0>        -0.6830
     19 O2          1.4945    1.7419   -8.4892 O.co2     1 <0>        -0.6756
     20 C16         2.1733   -4.8582   -5.8917 C.2       1 <0>        -0.1298
     21 C17         3.1938   -5.5017   -6.5182 C.2       1 <0>        -0.0088
     22 C18         4.5691   -5.5123   -5.9021 C.3       1 <0>        -0.0316
     23 C19         4.7677   -6.7962   -5.1385 C.2       1 <0>        -0.1366
     24 C20         5.3874   -7.9359   -5.5313 C.2       1 <0>        -0.1210
     25 C21         5.4515   -9.0011   -4.6528 C.2       1 <0>        -0.1442
     26 C22         4.8927   -8.8745   -3.4244 C.2       1 <0>        -0.1815
     27 S1          4.2545   -7.2081   -3.4789 S.3       1 <0>        -0.0199
     28 C23         2.9657   -6.1586   -7.7430 C.2       1 <0>         0.4426
     29 O3          1.7498   -6.1493   -8.2876 O.co2     1 <0>        -0.6774
     30 O4          3.9660   -6.7893   -8.3571 O.co2     1 <0>        -0.6757
     31 H1          3.0417    1.1574   -0.4806 H         1 <0>         0.0548
     32 H2          1.7152    1.6295   -1.5696 H         1 <0>         0.0634
     33 H3          1.5239    1.7993    0.1919 H         1 <0>         0.0588
     34 H4          1.6359   -0.6652    0.4416 H         1 <0>         0.0649
     35 H5          0.3094   -0.1930   -0.6473 H         1 <0>         0.0689
     36 H6          1.7591   -0.6424   -2.6082 H         1 <0>         0.0906
     37 H7          3.0856   -1.1146   -1.5192 H         1 <0>         0.0732
     38 H8          1.6797   -2.9371   -0.5970 H         1 <0>         0.1142
     39 H9          0.3532   -2.4650   -1.6859 H         1 <0>         0.1145
     40 H10         4.2776   -5.2259   -3.9550 H         1 <0>         0.2325
     41 H11        -0.2820   -3.7663   -4.9849 H         1 <0>         0.1270
     42 H12        -0.4433   -2.8125   -3.4908 H         1 <0>         0.1195
     43 H13         0.0664   -0.4856   -3.4518 H         1 <0>         0.1174
     44 H14         0.4529    1.5865   -4.7185 H         1 <0>         0.1315
     45 H15         1.2497   -0.7379   -8.2366 H         1 <0>         0.1358
     46 H16         0.8677   -2.7972   -6.9476 H         1 <0>         0.1262
     47 H17         1.2307   -4.7178   -6.3996 H         1 <0>         0.1596
     48 H18         5.3201   -5.4374   -6.6886 H         1 <0>         0.1243
     49 H19         4.6693   -4.6661   -5.2224 H         1 <0>         0.0927
     50 H20         5.8243   -8.0107   -6.5162 H         1 <0>         0.1487
     51 H21         5.9392   -9.9206   -4.9409 H         1 <0>         0.1355
     52 H22         4.8486   -9.5937   -2.6199 H         1 <0>         0.1824
     53 H23         3.7682   -3.9746   -1.8166 H         1 <0>         0.4545
@<TRIPOS>BOND
     1    1    2 1
     2    1   31 1
     3    1   32 1
     4    1   33 1
     5    2    3 1
     6    2   34 1
     7    2   35 1
     8    3    4 1
     9    3   36 1
    10    3   37 1
    11    4    5 1
    12    4   38 1
    13    4   39 1
    14    5    9 1
    15    5    6 2
    16    6    7 1
    17    6   53 1
    18    7    8 2
    19    7   40 1
    20    8    9 1
    21    8   20 1
    22    9   10 1
    23   10   11 1
    24   10   41 1
    25   10   42 1
    26   11   16 ar
    27   11   12 ar
    28   12   13 ar
    29   12   43 1
    30   13   14 ar
    31   13   44 1
    32   14   15 ar
    33   14   17 1
    34   15   16 ar
    35   15   45 1
    36   16   46 1
    37   17   18 2
    38   17   19 1
    39   20   21 2
    40   20   47 1
    41   21   22 1
    42   21   28 1
    43   22   23 1
    44   22   48 1
    45   22   49 1
    46   23   27 1
    47   23   24 2
    48   24   25 1
    49   24   50 1
    50   25   26 2
    51   25   51 1
    52   26   27 1
    53   26   52 1
    54   28   29 2
    55   28   30 1
@<TRIPOS>MOLECULE
ZINC29319828
   52    54     0     0     0
SMALL
USER_CHARGES

@<TRIPOS>ATOM
      1 C1          0.4744    2.4124   -0.4417 C.3       1 <0>        -0.1511
      2 C2          0.1486    0.9211   -0.5461 C.3       1 <0>        -0.1239
      3 C3          0.9581    0.3008   -1.6866 C.3       1 <0>        -0.1138
      4 C4          0.6323   -1.1904   -1.7910 C.3       1 <0>        -0.0353
      5 C5          1.4296   -1.8014   -2.9144 C.2       1 <0>         0.2051
      6 N1          1.0395   -1.8818   -4.1611 N.2       1 <0>        -0.4842
      7 C6          1.9816   -2.4768   -4.8916 C.2       1 <0>        -0.0269
      8 C7          3.0297   -2.7890   -4.0461 C.2       1 <0>         0.0257
      9 N2          2.6553   -2.3435   -2.7919 N.pl3     1 <0>        -0.4349
     10 C8          3.4431   -2.4453   -1.5610 C.3       1 <0>         0.1490
     11 C9          3.2317   -3.8021   -0.9401 C.ar      1 <0>        -0.1303
     12 C10         2.1470   -4.0172   -0.1081 C.ar      1 <0>        -0.1193
     13 C11         1.9474   -5.2561    0.4640 C.ar      1 <0>        -0.0913
     14 C12         2.8434   -6.2955    0.2015 C.ar      1 <0>        -0.1228
     15 C13         3.9361   -6.0712   -0.6398 C.ar      1 <0>        -0.0836
     16 C14         4.1201   -4.8285   -1.2091 C.ar      1 <0>        -0.1078
     17 C15         2.6370   -7.6236    0.8101 C.2       1 <0>         0.5204
     18 O1          1.7349   -7.7922    1.6184 O.co2     1 <0>        -0.6920
     19 O2          3.3679   -8.5557    0.5064 O.co2     1 <0>        -0.6844
     20 C16         4.2423   -3.4304   -4.3945 C.2       1 <0>        -0.0600
     21 C17         4.3910   -3.9782   -5.6297 C.2       1 <0>        -0.0970
     22 C18         3.2032   -4.0956   -6.5498 C.3       1 <0>        -0.0190
     23 C19         3.2026   -2.9416   -7.5190 C.2       1 <0>        -0.1090
     24 C20         3.6636   -2.8964   -8.7928 C.2       1 <0>        -0.1550
     25 C21         3.5568   -1.7152   -9.5028 C.2       1 <0>        -0.1467
     26 C22         2.9943   -0.6370   -8.9043 C.2       1 <0>        -0.2280
     27 S1          2.5872   -1.2814   -7.2899 S.3       1 <0>         0.0486
     28 C23         5.6550   -4.4360   -6.0496 C.2       1 <0>         0.4609
     29 O3          6.7052   -4.3321   -5.2361 O.co2     1 <0>        -0.7052
     30 O4          5.8007   -4.9729   -7.2603 O.co2     1 <0>        -0.7023
     31 H1          1.5386    2.5387   -0.2425 H         1 <0>         0.0526
     32 H2          0.2191    2.9066   -1.3791 H         1 <0>         0.0529
     33 H3         -0.1022    2.8543    0.3708 H         1 <0>         0.0508
     34 H4          0.4040    0.4270    0.3913 H         1 <0>         0.0624
     35 H5         -0.9156    0.7948   -0.7452 H         1 <0>         0.0634
     36 H6          0.7027    0.7950   -2.6240 H         1 <0>         0.0700
     37 H7          2.0223    0.4272   -1.4874 H         1 <0>         0.0598
     38 H8          0.8876   -1.6846   -0.8536 H         1 <0>         0.0782
     39 H9         -0.4319   -1.3167   -1.9901 H         1 <0>         0.0920
     40 H10         1.9348   -2.6788   -5.9515 H         1 <0>         0.1881
     41 H11         4.4997   -2.3130   -1.7938 H         1 <0>         0.0979
     42 H12         3.1256   -1.6721   -0.8614 H         1 <0>         0.0971
     43 H13         1.4552   -3.2128    0.0939 H         1 <0>         0.1111
     44 H14         1.1008   -5.4223    1.1137 H         1 <0>         0.1250
     45 H15         4.6327   -6.8701   -0.8472 H         1 <0>         0.1290
     46 H16         4.9618   -4.6548   -1.8631 H         1 <0>         0.1219
     47 H17         5.0495   -3.4846   -3.6790 H         1 <0>         0.1321
     48 H18         3.2626   -5.0336   -7.1019 H         1 <0>         0.1021
     49 H19         2.2853   -4.0772   -5.9623 H         1 <0>         0.0976
     50 H20         4.1079   -3.7701   -9.2462 H         1 <0>         0.1383
     51 H21         3.9166   -1.6523  -10.5192 H         1 <0>         0.1207
     52 H22         2.8311    0.3537   -9.3021 H         1 <0>         0.1712
@<TRIPOS>BOND
     1    1    2 1
     2    1   31 1
     3    1   32 1
     4    1   33 1
     5    2    3 1
     6    2   34 1
     7    2   35 1
     8    3    4 1
     9    3   36 1
    10    3   37 1
    11    4    5 1
    12    4   38 1
    13    4   39 1
    14    5    9 1
    15    5    6 2
    16    6    7 1
    17    7    8 2
    18    7   40 1
    19    8    9 1
    20    8   20 1
    21    9   10 1
    22   10   11 1
    23   10   41 1
    24   10   42 1
    25   11   16 ar
    26   11   12 ar
    27   12   13 ar
    28   12   43 1
    29   13   14 ar
    30   13   44 1
    31   14   15 ar
    32   14   17 1
    33   15   16 ar
    34   15   45 1
    35   16   46 1
    36   17   18 2
    37   17   19 1
    38   20   21 2
    39   20   47 1
    40   21   22 1
    41   21   28 1
    42   22   23 1
    43   22   48 1
    44   22   49 1
    45   23   27 1
    46   23   24 2
    47   24   25 1
    48   24   50 1
    49   25   26 2
    50   25   51 1
    51   26   27 1
    52   26   52 1
    53   28   29 2
    54   28   30 1
@<TRIPOS>MOLECULE
ZINC14952767
   50    53     0     0     0
SMALL
USER_CHARGES
2-butyl-5-chloro-3-[[4-[2-(1H-tetrazol-5-yl)phenyl]phenyl]methyl]imidazole-4-carboxylic acid
@<TRIPOS>ATOM
      1 C1         -3.0849   -2.4707   -2.9197 C.3       1 <0>        -0.1509
      2 C2         -2.7736   -2.0679   -1.4768 C.3       1 <0>        -0.1258
      3 C3         -1.4760   -1.2579   -1.4421 C.3       1 <0>        -0.1125
      4 C4         -1.1647   -0.8552    0.0007 C.3       1 <0>        -0.0373
      5 C5          0.0452    0.0430    0.0216 C.2       1 <0>         0.2055
      6 N1          1.2884   -0.3644    0.0372 N.2       1 <0>        -0.4965
      7 C6          2.1083    0.6875    0.0538 C.2       1 <0>         0.0672
      8 C7          1.3268    1.8242    0.0482 C.2       1 <0>        -0.0159
      9 N2          0.0142    1.3870    0.0277 N.pl3     1 <0>        -0.4055
     10 C8         -1.1839    2.2300    0.0202 C.3       1 <0>         0.1384
     11 C9         -1.6857    2.4022    1.4308 C.ar      1 <0>        -0.0955
     12 C10        -2.7003    1.5902    1.9050 C.ar      1 <0>        -0.1212
     13 C11        -3.1600    1.7394    3.1976 C.ar      1 <0>         0.0028
     14 C12        -2.6073    2.7182    4.0224 C.ar      1 <0>        -0.0555
     15 C13        -1.5889    3.5374    3.5370 C.ar      1 <0>        -0.1075
     16 C14        -1.1338    3.3754    2.2444 C.ar      1 <0>        -0.1097
     17 C15        -3.1008    2.8876    5.4097 C.ar      1 <0>        -0.0206
     18 C16        -2.2021    2.9334    6.4719 C.ar      1 <0>        -0.1124
     19 C17        -2.6655    3.0961    7.7618 C.ar      1 <0>        -0.1320
     20 C18        -4.0237    3.2039    8.0102 C.ar      1 <0>        -0.1303
     21 C19        -4.9295    3.1554    6.9706 C.ar      1 <0>        -0.1019
     22 C20        -4.4790    2.9969    5.6611 C.ar      1 <0>         0.0415
     23 C21        -5.4453    2.9438    4.5435 C.2       1 <0>         0.1209
     24 N3         -6.7957    3.0304    4.6399 N.2       1 <0>        -0.4142
     25 N4         -7.2666    2.9324    3.3188 N.2       1 <0>        -0.2211
     26 N5         -6.2324    2.7928    2.5624 N.2       1 <0>        -0.1519
     27 N6         -5.1585    2.7977    3.2665 N.2       1 <0>        -0.3713
     28 C22         1.7922    3.2123    0.0619 C.2       1 <0>         0.5226
     29 O1          2.9841    3.4541    0.0798 O.co2     1 <0>        -0.6057
     30 O2          0.8990    4.2232    0.0546 O.co2     1 <0>        -0.7432
     31 Cl1         3.8433    0.6355    0.0788 Cl        1 <0>        -0.0173
     32 H1         -4.0178   -3.0530   -2.9447 H         1 <0>         0.0505
     33 H2         -2.2605   -3.0818   -3.3158 H         1 <0>         0.0513
     34 H3         -3.2002   -1.5668   -3.5359 H         1 <0>         0.0535
     35 H4         -3.5980   -1.4568   -1.0807 H         1 <0>         0.0658
     36 H5         -2.6583   -2.9717   -0.8605 H         1 <0>         0.0621
     37 H6         -0.6516   -1.8690   -1.8383 H         1 <0>         0.0677
     38 H7         -1.5914   -0.3540   -2.0583 H         1 <0>         0.0611
     39 H8         -2.0263   -0.3197    0.4259 H         1 <0>         0.0864
     40 H9         -0.9624   -1.7568    0.5975 H         1 <0>         0.0885
     41 H10        -0.9369    3.2144   -0.4039 H         1 <0>         0.1344
     42 H11        -1.9642    1.7528   -0.5909 H         1 <0>         0.0836
     43 H12        -3.1304    0.8350    1.2639 H         1 <0>         0.1087
     44 H13        -3.9489    1.1017    3.5683 H         1 <0>         0.1092
     45 H14        -1.1573    4.2976    4.1713 H         1 <0>         0.1097
     46 H15        -0.3450    4.0094    1.8673 H         1 <0>         0.1455
     47 H16        -1.1418    2.8459    6.2861 H         1 <0>         0.1219
     48 H17        -1.9650    3.1350    8.5829 H         1 <0>         0.1151
     49 H18        -4.3759    3.3264    9.0238 H         1 <0>         0.1152
     50 H19        -5.9873    3.2397    7.1715 H         1 <0>         0.1262
@<TRIPOS>BOND
     1    1    2 1
     2    1   32 1
     3    1   33 1
     4    1   34 1
     5    2    3 1
     6    2   35 1
     7    2   36 1
     8    3    4 1
     9    3   37 1
    10    3   38 1
    11    4    5 1
    12    4   39 1
    13    4   40 1
    14    5    9 1
    15    5    6 2
    16    6    7 1
    17    7    8 2
    18    7   31 1
    19    8    9 1
    20    8   28 1
    21    9   10 1
    22   10   11 1
    23   10   41 1
    24   10   42 1
    25   11   16 ar
    26   11   12 ar
    27   12   13 ar
    28   12   43 1
    29   13   14 ar
    30   13   44 1
    31   14   15 ar
    32   14   17 1
    33   15   16 ar
    34   15   45 1
    35   16   46 1
    36   17   22 ar
    37   17   18 ar
    38   18   19 ar
    39   18   47 1
    40   19   20 ar
    41   19   48 1
    42   20   21 ar
    43   20   49 1
    44   21   22 ar
    45   21   50 1
    46   22   23 1
    47   23   27 2
    48   23   24 1
    49   24   25 1
    50   25   26 2
    51   26   27 1
    52   28   29 2
    53   28   30 1
@<TRIPOS>MOLECULE
ZINC26718411
   73    77     0     0     0
SMALL
USER_CHARGES

@<TRIPOS>ATOM
      1 C1          3.1577    0.6935    0.4148 C.3       1 <0>        -0.1520
      2 C2          2.6559   -0.7505    0.3538 C.3       1 <0>        -0.1248
      3 C3          1.1300   -0.7559    0.2426 C.3       1 <0>        -0.1104
      4 C4          0.6281   -2.2000    0.1816 C.3       1 <0>        -0.0487
      5 C5         -0.8749   -2.2053    0.0721 C.2       1 <0>         0.2967
      6 N1         -1.6307   -1.1553    0.0292 N.2       1 <0>        -0.2718
      7 N2         -2.9625   -1.5805   -0.0727 N.am      1 <0>        -0.4270
      8 C6         -2.9530   -2.9298   -0.0876 C.2       1 <0>         0.6593
      9 O1         -3.9269   -3.6569   -0.1673 O.2       1 <0>        -0.5256
     10 N3         -1.6667   -3.3249   -0.0045 N.am      1 <0>        -0.5439
     11 C7         -1.1945   -4.7116    0.0064 C.3       1 <0>         0.1715
     12 C8         -1.2637   -5.2548    1.4104 C.ar      1 <0>        -0.1208
     13 C9         -0.2174   -5.0326    2.2875 C.ar      1 <0>        -0.1105
     14 C10        -0.2754   -5.5277    3.5745 C.ar      1 <0>        -0.0911
     15 C11        -1.3906   -6.2525    3.9897 C.ar      1 <0>        -0.0626
     16 C12        -2.4417   -6.4733    3.1020 C.ar      1 <0>        -0.0909
     17 C13        -2.3756   -5.9688    1.8191 C.ar      1 <0>        -0.0805
     18 C14        -1.4585   -6.7878    5.3721 C.ar      1 <0>         0.0566
     19 C15        -1.3785   -5.9226    6.4617 C.ar      1 <0>        -0.1329
     20 C16        -1.4426   -6.4257    7.7450 C.ar      1 <0>        -0.0789
     21 C17        -1.5860   -7.7862    7.9511 C.ar      1 <0>        -0.1450
     22 C18        -1.6654   -8.6494    6.8734 C.ar      1 <0>        -0.0277
     23 C19        -1.6082   -8.1564    5.5853 C.ar      1 <0>        -0.6258
     24 S1         -1.7169   -9.2567    4.2134 S.o2      1 <0>         2.6516
     25 O2         -0.7025   -8.8662    3.2982 O.2       1 <0>        -0.9898
     26 O3         -1.7935  -10.5698    4.7511 O.2       1 <0>        -1.0044
     27 N4         -3.1659   -8.9659    3.4662 N.2       1 <0>        -1.0592
     28 C20        -3.5468   -9.7144    2.4682 C.2       1 <0>         0.5664
     29 O4         -2.8046  -10.7859    2.1042 O.3       1 <0>        -0.6887
     30 C21        -4.7822   -9.3941    1.7390 C.2       1 <0>        -0.1426
     31 C22        -5.4057  -10.1019    0.7263 C.2       1 <0>        -0.0866
     32 C23        -6.5642   -9.5454    0.2330 C.2       1 <0>        -0.1730
     33 C24        -7.0062   -8.3763    0.7544 C.2       1 <0>        -0.2680
     34 S2         -5.8718   -7.9967    1.9339 S.3       1 <0>         0.2053
     35 C25        -4.8514  -11.3994    0.1967 C.3       1 <0>        -0.0987
     36 C26        -4.0932   -0.7576   -0.1455 C.ar      1 <0>         0.2367
     37 C27        -4.9729   -0.8765   -1.2139 C.ar      1 <0>        -0.1102
     38 C28        -6.0872   -0.0639   -1.2825 C.ar      1 <0>        -0.0717
     39 C29        -6.3279    0.8677   -0.2889 C.ar      1 <0>        -0.1201
     40 C30        -5.4539    0.9889    0.7756 C.ar      1 <0>        -0.0629
     41 C31        -4.3405    0.1751    0.8531 C.ar      1 <0>        -0.1794
     42 C32        -3.3918    0.3035    2.0169 C.3       1 <0>         0.5095
     43 F1         -3.9115    1.2133    2.9440 F         1 <0>        -0.1809
     44 F2         -3.2315   -0.9447    2.6279 F         1 <0>        -0.1731
     45 F3         -2.1515    0.7613    1.5592 F         1 <0>        -0.1591
     46 H1          4.2448    0.6974    0.4940 H         1 <0>         0.0533
     47 H2          2.8575    1.2210   -0.4906 H         1 <0>         0.0538
     48 H3          2.7283    1.1910    1.2844 H         1 <0>         0.0547
     49 H4          3.0853   -1.2480   -0.5158 H         1 <0>         0.0634
     50 H5          2.9561   -1.2780    1.2592 H         1 <0>         0.0645
     51 H6          0.7005   -0.2585    1.1122 H         1 <0>         0.0745
     52 H7          0.8298   -0.2284   -0.6628 H         1 <0>         0.0730
     53 H8          1.0576   -2.6974   -0.6880 H         1 <0>         0.1005
     54 H9          0.9283   -2.7275    1.0870 H         1 <0>         0.1019
     55 H10        -1.8238   -5.3149   -0.6479 H         1 <0>         0.1047
     56 H11        -0.1639   -4.7473   -0.3466 H         1 <0>         0.1055
     57 H12         0.6467   -4.4710    1.9645 H         1 <0>         0.1177
     58 H13         0.5422   -5.3540    4.2584 H         1 <0>         0.1197
     59 H14        -3.3083   -7.0348    3.4186 H         1 <0>         0.1764
     60 H15        -3.1918   -6.1353    1.1317 H         1 <0>         0.1259
     61 H16        -1.2661   -4.8604    6.3020 H         1 <0>         0.1275
     62 H17        -1.3803   -5.7562    8.5902 H         1 <0>         0.1259
     63 H18        -1.6357   -8.1757    8.9571 H         1 <0>         0.1272
     64 H19        -1.7767   -9.7107    7.0399 H         1 <0>         0.1405
     65 H20        -7.1125  -10.0339   -0.5588 H         1 <0>         0.1230
     66 H21        -7.8883   -7.8178    0.4780 H         1 <0>         0.1756
     67 H22        -5.2641  -12.2309    0.7680 H         1 <0>         0.0625
     68 H23        -5.1236  -11.5092   -0.8530 H         1 <0>         0.0495
     69 H24        -3.7656  -11.3965    0.2922 H         1 <0>         0.0980
     70 H25        -4.7854   -1.6035   -1.9902 H         1 <0>         0.1390
     71 H26        -6.7714   -0.1556   -2.1131 H         1 <0>         0.1414
     72 H27        -7.2001    1.5021   -0.3449 H         1 <0>         0.1406
     73 H28        -5.6444    1.7175    1.5497 H         1 <0>         0.1452
@<TRIPOS>BOND
     1    1    2 1
     2    1   46 1
     3    1   47 1
     4    1   48 1
     5    2    3 1
     6    2   49 1
     7    2   50 1
     8    3    4 1
     9    3   51 1
    10    3   52 1
    11    4    5 1
    12    4   53 1
    13    4   54 1
    14    5   10 1
    15    5    6 2
    16    6    7 1
    17    7    8 am
    18    7   36 1
    19    8    9 2
    20    8   10 am
    21   10   11 1
    22   11   12 1
    23   11   55 1
    24   11   56 1
    25   12   17 ar
    26   12   13 ar
    27   13   14 ar
    28   13   57 1
    29   14   15 ar
    30   14   58 1
    31   15   16 ar
    32   15   18 1
    33   16   17 ar
    34   16   59 1
    35   17   60 1
    36   18   23 ar
    37   18   19 ar
    38   19   20 ar
    39   19   61 1
    40   20   21 ar
    41   20   62 1
    42   21   22 ar
    43   21   63 1
    44   22   23 ar
    45   22   64 1
    46   23   24 1
    47   24   25 2
    48   24   26 2
    49   24   27 1
    50   27   28 2
    51   28   29 1
    52   28   30 1
    53   30   34 1
    54   30   31 2
    55   31   32 1
    56   31   35 1
    57   32   33 2
    58   32   65 1
    59   33   34 1
    60   33   66 1
    61   35   67 1
    62   35   68 1
    63   35   69 1
    64   36   41 ar
    65   36   37 ar
    66   37   38 ar
    67   37   70 1
    68   38   39 ar
    69   38   71 1
    70   39   40 ar
    71   39   72 1
    72   40   41 ar
    73   40   73 1
    74   41   42 1
    75   42   43 1
    76   42   44 1
    77   42   45 1
