@<TRIPOS>MOLECULE
ZINC04097291
   13    13     0     0     0
SMALL
USER_CHARGES
nitrosobenzene
@<TRIPOS>ATOM
      1 C1         -0.0126    1.0758    0.0080 C.ar      1 <0>        -0.0485
      2 C2         -1.2260    1.7469    0.0174 C.ar      1 <0>        -0.1433
      3 C3         -1.2578    3.1173    0.0308 C.ar      1 <0>        -0.0522
      4 C4         -0.0501    3.8444    0.0232 C.ar      1 <0>        -0.1156
      5 C5          1.1768    3.1504    0.0077 C.ar      1 <0>        -0.0174
      6 C6          1.1822    1.7796    0.0003 C.ar      1 <0>        -0.1458
      7 N1         -0.0683    5.1816    0.0301 N.2       1 <0>        -0.3574
      8 O1         -1.1312    5.7761    0.0434 O.2       1 <0>         0.1739
      9 H1          0.0021   -0.0041    0.0020 H         1 <0>         0.1380
     10 H2         -2.1498    1.1875    0.0184 H         1 <0>         0.1391
     11 H3         -2.2041    3.6377    0.0427 H         1 <0>         0.1519
     12 H4          2.1086    3.6964    0.0014 H         1 <0>         0.1372
     13 H5          2.1208    1.2456   -0.0119 H         1 <0>         0.1401
@<TRIPOS>BOND
     1    1    6 ar
     2    1    2 ar
     3    1    9 1
     4    2    3 ar
     5    2   10 1
     6    3    4 ar
     7    3   11 1
     8    4    5 ar
     9    4    7 1
    10    5    6 ar
    11    5   12 1
    12    6   13 1
    13    7    8 2
