@<TRIPOS>MOLECULE
ZINC38141758
   32    32     0     0     0
SMALL
USER_CHARGES

@<TRIPOS>ATOM
      1 C1         -0.0187    1.5258    0.0104 C.3       1 <0>        -0.1171
      2 C2          0.0021   -0.0041    0.0020 C.3       1 <0>        -0.1346
      3 H1          0.5123   -0.3556   -0.8948 H         1 <0>         0.0688
      4 C3         -1.4117   -0.5257    0.0127 C.ar      1 <0>        -0.0283
      5 C4         -2.2591   -0.2043    1.0565 C.ar      1 <0>        -0.0789
      6 C5         -3.5560   -0.6827    1.0663 C.ar      1 <0>        -0.1224
      7 C6         -4.0056   -1.4823    0.0321 C.ar      1 <0>        -0.1045
      8 C7         -3.1585   -1.8029   -1.0121 C.ar      1 <0>        -0.1215
      9 C8         -1.8629   -1.3209   -1.0241 C.ar      1 <0>        -0.1299
     10 C9         -5.4191   -2.0047    0.0433 C.3       1 <0>        -0.0688
     11 C10        -6.3366   -1.0086   -0.6687 C.3       1 <0>        -0.0917
     12 C11        -5.9482   -0.9236   -2.1461 C.3       1 <0>        -0.1490
     13 C12        -7.7883   -1.4770   -0.5491 C.3       1 <0>        -0.1463
     14 C13         0.7309   -0.5033    1.2229 C.2       1 <0>         0.5000
     15 O1          0.1557   -1.2165    2.0272 O.co2     1 <0>        -0.6863
     16 O2          1.8959   -0.1939    1.4064 O.co2     1 <0>        -0.6999
     17 H2          1.0039    1.9031    0.0027 H         1 <0>         0.0588
     18 H3         -0.5459    1.8868   -0.8726 H         1 <0>         0.0394
     19 H4         -0.5289    1.8773    0.9072 H         1 <0>         0.0469
     20 H5         -1.9079    0.4204    1.8645 H         1 <0>         0.1152
     21 H6         -4.2179   -0.4322    1.8822 H         1 <0>         0.1106
     22 H7         -3.5096   -2.4278   -1.8199 H         1 <0>         0.1100
     23 H8         -1.2022   -1.5684   -1.8418 H         1 <0>         0.1111
     24 H9         -5.4557   -2.9647   -0.4717 H         1 <0>         0.0650
     25 H10        -5.7512   -2.1322    1.0737 H         1 <0>         0.0658
     26 H11        -6.2328   -0.0260   -0.2086 H         1 <0>         0.0696
     27 H12        -6.6019   -0.2140   -2.6534 H         1 <0>         0.0477
     28 H13        -4.9140   -0.5899   -2.2313 H         1 <0>         0.0635
     29 H14        -6.0521   -1.9062   -2.6062 H         1 <0>         0.0505
     30 H15        -8.0650   -1.5376    0.5035 H         1 <0>         0.0526
     31 H16        -8.4419   -0.7674   -1.0563 H         1 <0>         0.0514
     32 H17        -7.8921   -2.4596   -1.0092 H         1 <0>         0.0524
@<TRIPOS>BOND
     1    1    2 1
     2    1   17 1
     3    1   18 1
     4    1   19 1
     5    2    3 1
     6    2    4 1
     7    2   14 1
     8    4    9 ar
     9    4    5 ar
    10    5    6 ar
    11    5   20 1
    12    6    7 ar
    13    6   21 1
    14    7    8 ar
    15    7   10 1
    16    8    9 ar
    17    8   22 1
    18    9   23 1
    19   10   11 1
    20   10   24 1
    21   10   25 1
    22   11   12 1
    23   11   13 1
    24   11   26 1
    25   12   27 1
    26   12   28 1
    27   12   29 1
    28   13   30 1
    29   13   31 1
    30   13   32 1
    31   14   15 2
    32   14   16 1
@<TRIPOS>MOLECULE
ZINC38141759
   32    32     0     0     0
SMALL
USER_CHARGES

@<TRIPOS>ATOM
      1 C1         -0.0187    1.5258    0.0104 C.3       1 <0>        -0.1161
      2 C2          0.0021   -0.0041    0.0020 C.3       1 <0>        -0.1322
      3 H1          0.5123   -0.3556   -0.8948 H         1 <0>         0.0665
      4 C3          0.7309   -0.5033    1.2229 C.ar      1 <0>        -0.0395
      5 C4          0.2630   -0.1872    2.4847 C.ar      1 <0>        -0.1030
      6 C5          0.9315   -0.6452    3.6046 C.ar      1 <0>        -0.1208
      7 C6          2.0678   -1.4195    3.4627 C.ar      1 <0>        -0.1043
      8 C7          2.5353   -1.7363    2.2010 C.ar      1 <0>        -0.1200
      9 C8          1.8643   -1.2820    1.0811 C.ar      1 <0>        -0.1243
     10 C9          2.7973   -1.9179    4.6836 C.3       1 <0>        -0.0680
     11 C10         2.2317   -3.2785    5.0956 C.3       1 <0>        -0.0934
     12 C11         2.5261   -4.3059    4.0007 C.3       1 <0>        -0.1501
     13 C12         2.8845   -3.7270    6.4047 C.3       1 <0>        -0.1454
     14 C13        -1.4117   -0.5257    0.0127 C.2       1 <0>         0.5043
     15 O1         -1.7102   -1.4919   -0.6684 O.co2     1 <0>        -0.6985
     16 O2         -2.2571    0.0185    0.7025 O.co2     1 <0>        -0.6908
     17 H2          1.0039    1.9031    0.0027 H         1 <0>         0.0363
     18 H3         -0.5459    1.8868   -0.8726 H         1 <0>         0.0472
     19 H4         -0.5289    1.8773    0.9072 H         1 <0>         0.0598
     20 H5         -0.6248    0.4177    2.5955 H         1 <0>         0.1300
     21 H6          0.5663   -0.3977    4.5903 H         1 <0>         0.1130
     22 H7          3.4233   -2.3410    2.0902 H         1 <0>         0.1123
     23 H8          2.2274   -1.5326    0.0953 H         1 <0>         0.1149
     24 H9          3.8586   -2.0192    4.4567 H         1 <0>         0.0652
     25 H10         2.6665   -1.2077    5.5001 H         1 <0>         0.0657
     26 H11         1.1540   -3.1964    5.2365 H         1 <0>         0.0710
     27 H12         2.1232   -5.2752    4.2942 H         1 <0>         0.0494
     28 H13         2.0610   -3.9864    3.0682 H         1 <0>         0.0643
     29 H14         3.6038   -4.3880    3.8598 H         1 <0>         0.0501
     30 H15         2.6748   -2.9951    7.1847 H         1 <0>         0.0522
     31 H16         2.4816   -4.6963    6.6982 H         1 <0>         0.0523
     32 H17         3.9623   -3.8091    6.2637 H         1 <0>         0.0520
@<TRIPOS>BOND
     1    1    2 1
     2    1   17 1
     3    1   18 1
     4    1   19 1
     5    2    3 1
     6    2    4 1
     7    2   14 1
     8    4    9 ar
     9    4    5 ar
    10    5    6 ar
    11    5   20 1
    12    6    7 ar
    13    6   21 1
    14    7    8 ar
    15    7   10 1
    16    8    9 ar
    17    8   22 1
    18    9   23 1
    19   10   11 1
    20   10   24 1
    21   10   25 1
    22   11   12 1
    23   11   13 1
    24   11   26 1
    25   12   27 1
    26   12   28 1
    27   12   29 1
    28   13   30 1
    29   13   31 1
    30   13   32 1
    31   14   15 2
    32   14   16 1
