@<TRIPOS>MOLECULE
ZINC28769301
   49    49     0     0     0
SMALL
USER_CHARGES
(2R,5S)-5-amino-8-guanidino-2-[(4-hydroxyphenyl)methyl]-4-oxo-octanoic acid
@<TRIPOS>ATOM
      1 C1          0.7205   -2.7933   -0.7802 C.ar      1 <0>         0.0125
      2 C2          0.5062   -4.1573   -0.8261 C.ar      1 <0>        -0.1689
      3 C3         -0.6174   -4.6605   -1.4658 C.ar      1 <0>         0.1518
      4 C4         -1.5259   -3.7918   -2.0529 C.ar      1 <0>        -0.2332
      5 C5         -1.3098   -2.4284   -1.9993 C.ar      1 <0>        -0.0812
      6 C6         -0.1893   -1.9294   -1.3612 C.ar      1 <0>        -0.1208
      7 C7          0.0438   -0.4416   -1.3042 C.3       1 <0>        -0.0486
      8 C8         -0.6130    0.1297   -0.0460 C.3       1 <0>        -0.1275
      9 H1         -1.6748   -0.1560   -0.0157 H         1 <0>         0.0778
     10 C9         -0.4843    1.6543   -0.0510 C.3       1 <0>        -0.1395
     11 C10        -1.2364    2.2257    1.1232 C.2       1 <0>         0.3547
     12 O1         -1.8155    1.4896    1.8854 O.2       1 <0>        -0.4023
     13 C11        -1.2658    3.7159    1.3463 C.3       1 <0>        -0.0085
     14 H2         -1.4990    4.2285    0.4014 H         1 <0>         0.1603
     15 C12         0.0845    4.1754    1.8998 C.3       1 <0>        -0.1393
     16 C13         0.0982    5.7015    2.0090 C.3       1 <0>        -0.1503
     17 C14         1.4485    6.1610    2.5625 C.3       1 <0>         0.0966
     18 N1          1.4617    7.6222    2.6670 N.pl3     1 <0>        -0.6885
     19 C15         1.5799    8.1911    3.8338 C.cat     1 <0>         0.7375
     20 N2          1.8217    7.4261    4.9502 N.pl3     1 <0>        -0.8534
     21 N3          1.4629    9.5562    3.9480 N.pl3     1 <0>        -0.8490
     22 N4         -2.3269    4.0463    2.3069 N.4       1 <0>        -0.6811
     23 C16         0.0713   -0.4281    1.1753 C.2       1 <0>         0.4711
     24 O2          0.6068    0.3173    1.9611 O.co2     1 <0>        -0.6619
     25 O3          0.0857   -1.7530    1.3902 O.co2     1 <0>        -0.7250
     26 O4         -0.8279   -6.0021   -1.5168 O.3       1 <0>        -0.5142
     27 H3          1.5974   -2.4013   -0.2865 H         1 <0>         0.1210
     28 H4          1.2149   -4.8315   -0.3683 H         1 <0>         0.1195
     29 H5         -2.4015   -4.1811   -2.5511 H         1 <0>         0.1166
     30 H6         -2.0170   -1.7517   -2.4558 H         1 <0>         0.1099
     31 H7          1.1249   -0.2406   -1.2769 H         1 <0>         0.0643
     32 H8         -0.3949    0.0327   -2.1945 H         1 <0>         0.0597
     33 H9          0.5773    1.9329    0.0228 H         1 <0>         0.1102
     34 H10        -0.9043    2.0547   -0.9855 H         1 <0>         0.0955
     35 H11         0.2416    3.7351    2.8955 H         1 <0>         0.1046
     36 H12         0.8883    3.8489    1.2235 H         1 <0>         0.1295
     37 H13        -0.0590    6.1418    1.0133 H         1 <0>         0.0985
     38 H14        -0.7056    6.0280    2.6853 H         1 <0>         0.0687
     39 H15         1.6056    5.7207    3.5582 H         1 <0>         0.0971
     40 H16         2.2523    5.8345    1.8863 H         1 <0>         0.1197
     41 H17         1.9215    7.9062    5.9349 H         1 <0>         0.4641
     42 H18         1.9154    6.3339    4.8588 H         1 <0>         0.4580
     43 H19         1.5626   10.0363    4.9327 H         1 <0>         0.4657
     44 H20         1.2695   10.1683    3.0547 H         1 <0>         0.4631
     45 H21        -2.3484    5.1340    2.4698 H         1 <0>         0.4451
     46 H22        -2.1292    3.5365    3.2613 H         1 <0>         0.4623
     47 H23        -1.7190   -6.4001   -2.0242 H         1 <0>         0.4250
     48 H24         1.3719    8.2393    1.7608 H         1 <0>         0.4682
     49 H25        -3.2977    3.7159    1.9089 H         1 <0>         0.4645
@<TRIPOS>BOND
     1    1    6 ar
     2    1    2 ar
     3    1   27 1
     4    2    3 ar
     5    2   28 1
     6    3    4 ar
     7    3   26 1
     8    4    5 ar
     9    4   29 1
    10    5    6 ar
    11    5   30 1
    12    6    7 1
    13    7    8 1
    14    7   31 1
    15    7   32 1
    16    8    9 1
    17    8   10 1
    18    8   23 1
    19   10   11 1
    20   10   33 1
    21   10   34 1
    22   11   12 2
    23   11   13 1
    24   13   14 1
    25   13   15 1
    26   13   22 1
    27   15   16 1
    28   15   35 1
    29   15   36 1
    30   16   17 1
    31   16   37 1
    32   16   38 1
    33   17   18 1
    34   17   39 1
    35   17   40 1
    36   18   19 2
    37   18   48 1
    38   19   20 1
    39   19   21 1
    40   20   41 1
    41   20   42 1
    42   21   43 1
    43   21   44 1
    44   22   45 1
    45   22   46 1
    46   22   49 1
    47   23   24 2
    48   23   25 1
    49   26   47 1
@<TRIPOS>MOLECULE
ZINC28771884
   48    48     0     0     0
SMALL
USER_CHARGES
(2R,5S)-5-amino-2-benzyl-8-guanidino-4-oxo-octanoic acid
@<TRIPOS>ATOM
      1 C1          0.0298    4.4193   -4.0854 C.ar      1 <0>        -0.1244
      2 C2         -1.3283    4.5155   -3.8463 C.ar      1 <0>        -0.1379
      3 C3         -1.8360    4.1890   -2.6027 C.ar      1 <0>        -0.1248
      4 C4         -0.9856    3.7663   -1.5982 C.ar      1 <0>        -0.0855
      5 C5          0.3732    3.6751   -1.8358 C.ar      1 <0>        -0.0672
      6 C6          0.8802    3.9966   -3.0810 C.ar      1 <0>        -0.1353
      7 C7         -1.5390    3.4108   -0.2424 C.3       1 <0>        -0.0560
      8 C8         -1.8990    1.9241   -0.2123 C.3       1 <0>        -0.1268
      9 H1         -2.5762    1.6864   -1.0459 H         1 <0>         0.0776
     10 C9         -2.5752    1.5899    1.1189 C.3       1 <0>        -0.1315
     11 C10        -3.0398    0.1564    1.1004 C.2       1 <0>         0.3118
     12 O1         -2.8497   -0.5273    0.1234 O.2       1 <0>        -0.3352
     13 C11        -3.7416   -0.4237    2.3012 C.3       1 <0>        -0.0075
     14 H2         -4.5201    0.2717    2.6481 H         1 <0>         0.1568
     15 C12        -2.7195   -0.6974    3.4064 C.3       1 <0>        -0.1408
     16 C13        -3.4460   -1.1687    4.6677 C.3       1 <0>        -0.1504
     17 C14        -2.4240   -1.4424    5.7728 C.3       1 <0>         0.0964
     18 N1         -3.1197   -1.8937    6.9806 N.pl3     1 <0>        -0.6884
     19 C15        -2.9027   -3.0905    7.4489 C.cat     1 <0>         0.7375
     20 N2         -1.9283   -3.8819    6.8882 N.pl3     1 <0>        -0.8533
     21 N3         -3.6482   -3.5616    8.5036 N.pl3     1 <0>        -0.8489
     22 N4         -4.4018   -1.6802    1.9228 N.4       1 <0>        -0.6800
     23 C16        -0.6456    1.1006   -0.3597 C.2       1 <0>         0.4609
     24 O2          0.4253    1.6468   -0.4818 O.co2     1 <0>        -0.6140
     25 O3         -0.7193   -0.2397   -0.3609 O.co2     1 <0>        -0.7597
     26 H3          0.4265    4.6747   -5.0569 H         1 <0>         0.1147
     27 H4         -1.9927    4.8461   -4.6310 H         1 <0>         0.1143
     28 H5         -2.8970    4.2646   -2.4158 H         1 <0>         0.1101
     29 H6          1.0381    3.3490   -1.0497 H         1 <0>         0.1505
     30 H7          1.9413    3.9217   -3.2677 H         1 <0>         0.1161
     31 H8         -0.7831    3.6207    0.5287 H         1 <0>         0.0728
     32 H9         -2.4400    4.0103   -0.0454 H         1 <0>         0.0571
     33 H10        -1.8578    1.7323    1.9405 H         1 <0>         0.0971
     34 H11        -3.4396    2.2536    1.2679 H         1 <0>         0.0936
     35 H12        -2.0194   -1.4777    3.0733 H         1 <0>         0.1031
     36 H13        -2.1624    0.2250    3.6272 H         1 <0>         0.1253
     37 H14        -4.1461   -0.3883    5.0008 H         1 <0>         0.0982
     38 H15        -4.0032   -2.0911    4.4469 H         1 <0>         0.0693
     39 H16        -1.7239   -2.2228    5.4397 H         1 <0>         0.0969
     40 H17        -1.8668   -0.5200    5.9936 H         1 <0>         0.1188
     41 H18        -1.7452   -4.8920    7.2835 H         1 <0>         0.4641
     42 H19        -1.3318   -3.5050    6.0443 H         1 <0>         0.4579
     43 H20        -3.4650   -4.5717    8.8988 H         1 <0>         0.4657
     44 H21        -4.4278   -2.9285    8.9523 H         1 <0>         0.4631
     45 H22        -4.9141   -2.1036    2.7993 H         1 <0>         0.4430
     46 H23        -3.6491   -2.3943    1.5575 H         1 <0>         0.4628
     47 H24        -3.8252   -1.2225    7.4922 H         1 <0>         0.4682
     48 H25        -5.1366   -1.4835    1.1282 H         1 <0>         0.4640
@<TRIPOS>BOND
     1    1    6 ar
     2    1    2 ar
     3    1   26 1
     4    2    3 ar
     5    2   27 1
     6    3    4 ar
     7    3   28 1
     8    4    5 ar
     9    4    7 1
    10    5    6 ar
    11    5   29 1
    12    6   30 1
    13    7    8 1
    14    7   31 1
    15    7   32 1
    16    8    9 1
    17    8   10 1
    18    8   23 1
    19   10   11 1
    20   10   33 1
    21   10   34 1
    22   11   12 2
    23   11   13 1
    24   13   14 1
    25   13   15 1
    26   13   22 1
    27   15   16 1
    28   15   35 1
    29   15   36 1
    30   16   17 1
    31   16   37 1
    32   16   38 1
    33   17   18 1
    34   17   39 1
    35   17   40 1
    36   18   19 2
    37   18   47 1
    38   19   20 1
    39   19   21 1
    40   20   41 1
    41   20   42 1
    42   21   43 1
    43   21   44 1
    44   22   45 1
    45   22   46 1
    46   22   48 1
    47   23   24 2
    48   23   25 1
@<TRIPOS>MOLECULE
ZINC01542895
   46    46     0     0     0
SMALL
USER_CHARGES

@<TRIPOS>ATOM
      1 C1         -1.4921   -0.2802   -0.1168 C.3       1 <0>        -0.1480
      2 C2          0.0168   -0.0902    0.0502 C.3       1 <0>        -0.0946
      3 C3          0.4965   -0.8703    1.2758 C.3       1 <0>        -0.1503
      4 C4          0.7370   -0.6066   -1.1970 C.3       1 <0>        -0.1084
      5 C5          2.2304   -0.2918   -1.0907 C.3       1 <0>         0.0678
      6 H1          2.6270   -0.7186   -0.1695 H         1 <0>         0.0947
      7 C6          2.9543   -0.8853   -2.2717 C.2       1 <0>         0.4976
      8 O1          3.4188   -0.1561   -3.1314 O.co2     1 <0>        -0.7136
      9 O2          3.0754   -2.0947   -2.3676 O.co2     1 <0>        -0.6706
     10 N1          2.4237    1.1604   -1.0789 N.am      1 <0>        -0.6768
     11 C7          3.5233    1.6892   -0.5064 C.2       1 <0>         0.4501
     12 O3          4.3528    0.9629   -0.0011 O.2       1 <0>        -0.5167
     13 C8          3.7222    3.1829   -0.4943 C.3       1 <0>         0.0771
     14 H2          2.8536    3.6614   -0.0419 H         1 <0>         0.1637
     15 C9          3.8924    3.6865   -1.9290 C.3       1 <0>         0.0050
     16 H3          2.9682    3.5231   -2.4834 H         1 <0>         0.1563
     17 C10         4.2180    5.1813   -1.9096 C.3       1 <0>        -0.0899
     18 C11         4.2645    5.7037   -3.3224 C.ar      1 <0>        -0.1239
     19 C12         5.4532    5.6842   -4.0277 C.ar      1 <0>        -0.1395
     20 C13         5.4959    6.1633   -5.3236 C.ar      1 <0>        -0.1080
     21 C14         4.3497    6.6615   -5.9144 C.ar      1 <0>        -0.1065
     22 C15         3.1608    6.6802   -5.2094 C.ar      1 <0>        -0.1069
     23 C16         3.1172    6.1971   -3.9150 C.ar      1 <0>        -0.1039
     24 N2          4.9886    2.9549   -2.5779 N.4       1 <0>        -0.6381
     25 O4          4.8906    3.5018    0.2642 O.3       1 <0>        -0.5140
     26 H4         -1.8485    0.3439   -0.9363 H         1 <0>         0.0522
     27 H5         -1.7043   -1.3262   -0.3379 H         1 <0>         0.0571
     28 H6         -1.9986    0.0063    0.8049 H         1 <0>         0.0532
     29 H7          0.2370    0.9689    0.1845 H         1 <0>         0.0619
     30 H8          0.2764   -1.9293    1.1415 H         1 <0>         0.0580
     31 H9          1.5715   -0.7349    1.3948 H         1 <0>         0.0554
     32 H10        -0.0165   -0.5023    2.1644 H         1 <0>         0.0512
     33 H11         0.5977   -1.6848   -1.2767 H         1 <0>         0.0865
     34 H12         0.3253   -0.1207   -2.0817 H         1 <0>         0.0633
     35 H13         1.7603    1.7412   -1.4830 H         1 <0>         0.3944
     36 H14         3.4484    5.7136   -1.3505 H         1 <0>         0.1229
     37 H15         5.1859    5.3362   -1.4329 H         1 <0>         0.1051
     38 H16         6.3487    5.2949   -3.5661 H         1 <0>         0.1226
     39 H17         6.4247    6.1488   -5.8744 H         1 <0>         0.1304
     40 H18         4.3832    7.0365   -6.9267 H         1 <0>         0.1298
     41 H19         2.2654    7.0697   -5.6709 H         1 <0>         0.1308
     42 H20         2.1875    6.2082   -3.3654 H         1 <0>         0.1303
     43 H21         4.7738    1.9691   -2.5907 H         1 <0>         0.4538
     44 H22         5.1008    3.2870   -3.5240 H         1 <0>         0.4364
     45 H23         5.7035    3.1085   -0.0817 H         1 <0>         0.3783
     46 H24         5.8440    3.1062   -2.0647 H         1 <0>         0.4236
@<TRIPOS>BOND
     1    1    2 1
     2    1   26 1
     3    1   27 1
     4    1   28 1
     5    2    3 1
     6    2    4 1
     7    2   29 1
     8    3   30 1
     9    3   31 1
    10    3   32 1
    11    4    5 1
    12    4   33 1
    13    4   34 1
    14    5    6 1
    15    5    7 1
    16    5   10 1
    17    7    8 2
    18    7    9 1
    19   10   11 am
    20   10   35 1
    21   11   12 2
    22   11   13 1
    23   13   14 1
    24   13   15 1
    25   13   25 1
    26   15   16 1
    27   15   17 1
    28   15   24 1
    29   17   18 1
    30   17   36 1
    31   17   37 1
    32   18   23 ar
    33   18   19 ar
    34   19   20 ar
    35   19   38 1
    36   20   21 ar
    37   20   39 1
    38   21   22 ar
    39   21   40 1
    40   22   23 ar
    41   22   41 1
    42   23   42 1
    43   24   43 1
    44   24   44 1
    45   24   46 1
    46   25   45 1
@<TRIPOS>MOLECULE
ZINC01542895
   45    45     0     0     0
SMALL
USER_CHARGES

@<TRIPOS>ATOM
      1 C1          0.6528   -0.2592    1.3564 C.3       1 <0>        -0.1445
      2 C2          0.0386   -0.0894   -0.0345 C.3       1 <0>        -0.0966
      3 C3          0.8796   -0.8522   -1.0600 C.3       1 <0>        -0.1471
      4 C4         -1.3882   -0.6419   -0.0329 C.3       1 <0>        -0.1047
      5 C5         -2.0504   -0.3483   -1.3805 C.3       1 <0>         0.0724
      6 H1         -1.4402   -0.7627   -2.1831 H         1 <0>         0.0844
      7 C6         -3.4197   -0.9765   -1.4149 C.2       1 <0>         0.4903
      8 O1         -4.4145   -0.2719   -1.3899 O.co2     1 <0>        -0.6843
      9 O2         -3.5329   -2.1893   -1.4677 O.co2     1 <0>        -0.6968
     10 N1         -2.1732    1.1006   -1.5589 N.am      1 <0>        -0.6848
     11 C7         -2.2403    1.6236   -2.7993 C.2       1 <0>         0.4808
     12 O3         -2.1991    0.8947   -3.7678 O.2       1 <0>        -0.5425
     13 C8         -2.3666    3.1140   -2.9828 C.3       1 <0>         0.0531
     14 H2         -1.5529    3.6150   -2.4584 H         1 <0>         0.1189
     15 C9         -3.7065    3.5861   -2.4146 C.3       1 <0>         0.0778
     16 H3         -3.7206    3.4261   -1.3365 H         1 <0>         0.0933
     17 C10        -3.8900    5.0758   -2.7116 C.3       1 <0>        -0.0675
     18 C11        -5.1496    5.5690   -2.0473 C.ar      1 <0>        -0.0627
     19 C12        -6.3538    5.5169   -2.7241 C.ar      1 <0>        -0.0897
     20 C13        -7.5092    5.9693   -2.1148 C.ar      1 <0>        -0.1228
     21 C14        -7.4604    6.4734   -0.8286 C.ar      1 <0>        -0.1293
     22 C15        -6.2564    6.5247   -0.1515 C.ar      1 <0>        -0.1239
     23 C16        -5.1017    6.0683   -0.7592 C.ar      1 <0>        -0.1216
     24 N2         -4.7978    2.8247   -3.0370 N.3       1 <0>        -0.8349
     25 O4         -2.3018    3.4298   -4.3750 O.3       1 <0>        -0.5371
     26 H4          1.6967    0.0535    1.3333 H         1 <0>         0.0492
     27 H5          0.1057    0.3539    2.0726 H         1 <0>         0.0514
     28 H6          0.5937   -1.3060    1.6544 H         1 <0>         0.0539
     29 H7          0.0183    0.9685   -0.2960 H         1 <0>         0.0646
     30 H8          0.8999   -1.9102   -0.7985 H         1 <0>         0.0544
     31 H9          0.4420   -0.7313   -2.0510 H         1 <0>         0.0576
     32 H10         1.8961   -0.4587   -1.0612 H         1 <0>         0.0469
     33 H11        -1.3606   -1.7191    0.1314 H         1 <0>         0.0795
     34 H12        -1.9606   -0.1674    0.7642 H         1 <0>         0.0604
     35 H13        -2.2061    1.6836   -0.7844 H         1 <0>         0.3898
     36 H14        -3.0347    5.6310   -2.3264 H         1 <0>         0.0744
     37 H15        -3.9648    5.2250   -3.7887 H         1 <0>         0.0776
     38 H16        -6.3919    5.1230   -3.7290 H         1 <0>         0.1198
     39 H17        -8.4499    5.9293   -2.6438 H         1 <0>         0.1166
     40 H18        -8.3630    6.8275   -0.3528 H         1 <0>         0.1149
     41 H19        -6.2182    6.9188    0.8533 H         1 <0>         0.1159
     42 H20        -4.1616    6.1049   -0.2288 H         1 <0>         0.1168
     43 H21        -4.8061    2.9566   -4.0373 H         1 <0>         0.3280
     44 H22        -2.9976    3.0171   -4.9047 H         1 <0>         0.3769
     45 H23        -4.7354    1.8455   -2.8019 H         1 <0>         0.3711
@<TRIPOS>BOND
     1    1    2 1
     2    1   26 1
     3    1   27 1
     4    1   28 1
     5    2    3 1
     6    2    4 1
     7    2   29 1
     8    3   30 1
     9    3   31 1
    10    3   32 1
    11    4    5 1
    12    4   33 1
    13    4   34 1
    14    5    6 1
    15    5    7 1
    16    5   10 1
    17    7    8 2
    18    7    9 1
    19   10   11 am
    20   10   35 1
    21   11   12 2
    22   11   13 1
    23   13   14 1
    24   13   15 1
    25   13   25 1
    26   15   16 1
    27   15   17 1
    28   15   24 1
    29   17   18 1
    30   17   36 1
    31   17   37 1
    32   18   23 ar
    33   18   19 ar
    34   19   20 ar
    35   19   38 1
    36   20   21 ar
    37   20   39 1
    38   21   22 ar
    39   21   40 1
    40   22   23 ar
    41   22   41 1
    42   23   42 1
    43   24   43 1
    44   24   45 1
    45   25   44 1
@<TRIPOS>MOLECULE
ZINC00403015
   24    23     0     0     0
SMALL
USER_CHARGES
2-amino-4-methyl-pentane-1-thiol
@<TRIPOS>ATOM
      1 C1         -2.1182    0.7317    3.7681 C.3       1 <0>        -0.1655
      2 C2         -0.7725    1.4597    3.7620 C.3       1 <0>        -0.1031
      3 C3          0.0273    1.0635    5.0048 C.3       1 <0>        -0.1554
      4 C4          0.0111    1.0724    2.5063 C.3       1 <0>        -0.1388
      5 C5         -0.7288    1.5792    1.2668 C.3       1 <0>         0.0538
      6 H1         -1.7514    1.2020    1.2746 H         1 <0>         0.1544
      7 C6         -0.0127    1.0858    0.0080 C.3       1 <0>        -0.1122
      8 S1         -0.8901    1.6867   -1.4616 S.3       1 <0>        -0.2562
      9 H2         -2.6765    1.0076    4.6627 H         1 <0>         0.0712
     10 H3         -2.6880    1.0139    2.8828 H         1 <0>         0.0542
     11 H4         -1.9488   -0.3451    3.7632 H         1 <0>         0.0696
     12 H5         -0.9419    2.5364    3.7670 H         1 <0>         0.0660
     13 H6          0.9860    1.5821    5.0004 H         1 <0>         0.0615
     14 H7         -0.5310    1.3394    5.8993 H         1 <0>         0.0685
     15 H8          0.1966   -0.0132    4.9998 H         1 <0>         0.0657
     16 H9          0.1037   -0.0125    2.4560 H         1 <0>         0.1166
     17 H10         1.0041    1.5203    2.5452 H         1 <0>         0.0941
     18 H11         0.0021   -0.0041    0.0020 H         1 <0>         0.1317
     19 H12         1.0099    1.4631    0.0003 H         1 <0>         0.1114
     20 H13        -0.1764    1.1953   -2.4903 H         1 <0>         0.1403
     21 H14        -1.2723    3.3983    2.0632 H         1 <0>         0.4384
     22 H15         0.1882    3.4225    1.2680 H         1 <0>         0.4360
     23 N1         -0.7608    3.0524    1.2530 N.4       1 <0>        -0.6458
     24 H16        -1.2315    3.3718    0.3982 H         1 <0>         0.4436
@<TRIPOS>BOND
     1    1    2 1
     2    1    9 1
     3    1   10 1
     4    1   11 1
     5    2    3 1
     6    2    4 1
     7    2   12 1
     8    3   13 1
     9    3   14 1
    10    3   15 1
    11    4    5 1
    12    4   16 1
    13    4   17 1
    14    5    6 1
    15    5    7 1
    16    5   23 1
    17    7    8 1
    18    7   18 1
    19    7   19 1
    20    8   20 1
    21   21   23 1
    22   22   23 1
    23   23   24 1
