@<TRIPOS>MOLECULE
ZINC01656226
   24    24     0     0     0
SMALL
USER_CHARGES
[(1S)-1-amino-2-phenyl-ethyl]phosphonic acid
@<TRIPOS>ATOM
      1 C1          1.1750    1.7832    0.0004 C.ar      1 <0>        -0.1100
      2 C2         -0.0126    1.0758    0.0080 C.ar      1 <0>        -0.1548
      3 C3         -1.2190    1.7507    0.0173 C.ar      1 <0>        -0.1120
      4 C4         -1.2377    3.1328    0.0303 C.ar      1 <0>        -0.1130
      5 C5         -0.0501    3.8402    0.0223 C.ar      1 <0>         0.0043
      6 C6          1.1563    3.1654    0.0076 C.ar      1 <0>        -0.1154
      7 C7         -2.5528    3.8685    0.0469 C.3       1 <0>        -0.0643
      8 C8         -3.0120    4.1248   -1.3898 C.3       1 <0>        -0.5531
      9 H1         -3.1344    3.1733   -1.9074 H         1 <0>         0.1166
     10 P1         -1.7634    5.1316   -2.2563 P.3       1 <0>         2.1130
     11 O1         -1.5092    6.3708   -1.4881 O.2       1 <0>        -1.1097
     12 H2          2.1175    1.2560   -0.0115 H         1 <0>         0.1092
     13 H3          0.0021   -0.0041    0.0020 H         1 <0>         0.1067
     14 H4         -2.1469    1.1980    0.0188 H         1 <0>         0.0990
     15 H5         -0.0647    4.9201    0.0280 H         1 <0>         0.1329
     16 H6          2.0841    3.7181    0.0014 H         1 <0>         0.1148
     17 H7         -3.2994    3.2665    0.5650 H         1 <0>         0.0535
     18 H8         -2.4304    4.8199    0.5645 H         1 <0>         0.0876
     19 H9         -4.2067    5.7280   -0.8990 H         1 <0>         0.4286
     20 H10        -4.6504    4.9665   -2.3093 H         1 <0>         0.4336
     21 N1         -4.3080    4.8255   -1.3604 N.4       1 <0>        -0.6069
     22 H11        -4.9870    4.2576   -0.8401 H         1 <0>         0.3950
     23 O2         -0.3958    4.2926   -2.3895 O.3       1 <0>        -1.1039
     24 O3         -2.3050    5.5117   -3.7241 O.3       1 <0>        -1.1520
@<TRIPOS>BOND
     1    1    6 ar
     2    1    2 ar
     3    1   12 1
     4    2    3 ar
     5    2   13 1
     6    3    4 ar
     7    3   14 1
     8    4    5 ar
     9    4    7 1
    10    5    6 ar
    11    5   15 1
    12    6   16 1
    13    7    8 1
    14    7   17 1
    15    7   18 1
    16    8    9 1
    17    8   10 1
    18    8   21 1
    19   10   11 2
    20   10   23 1
    21   10   24 1
    22   19   21 1
    23   20   21 1
    24   21   22 1
@<TRIPOS>MOLECULE
ZINC03953934
   24    24     0     0     0
SMALL
USER_CHARGES

@<TRIPOS>ATOM
      1 C1         -0.0167    1.3781    0.0096 C.ar      1 <0>        -0.1079
      2 C2          1.1709    2.0855    0.0021 C.ar      1 <0>        -0.1617
      3 C3          2.3773    1.4107   -0.0130 C.ar      1 <0>        -0.1104
      4 C4          2.3960    0.0285   -0.0201 C.ar      1 <0>        -0.1203
      5 C5          1.2084   -0.6789   -0.0117 C.ar      1 <0>         0.0234
      6 C6          0.0021   -0.0041    0.0020 C.ar      1 <0>        -0.1237
      7 C7          3.7112   -0.7071   -0.0376 C.3       1 <0>        -0.0626
      8 C8          4.1714   -0.9633    1.3989 C.3       1 <0>        -0.5584
      9 H1          4.2941   -0.0118    1.9163 H         1 <0>         0.1185
     10 N1          5.4533   -1.6804    1.3819 N.4       1 <0>        -0.5998
     11 P1          2.9234   -1.9700    2.2664 P.3       1 <0>         2.1064
     12 O1          1.5562   -1.2052    2.2846 O.2       1 <0>        -1.0867
     13 O2          2.7470   -3.3376    1.5228 O.3       1 <0>        -1.1302
     14 O3          3.3946   -2.2323    3.7373 O.3       1 <0>        -1.1371
     15 H2         -0.9591    1.9053    0.0259 H         1 <0>         0.1082
     16 H3          1.1563    3.1654    0.0076 H         1 <0>         0.1056
     17 H4          3.3051    1.9634   -0.0196 H         1 <0>         0.0981
     18 H5          1.2231   -1.7588   -0.0176 H         1 <0>         0.1305
     19 H6         -0.9258   -0.5567    0.0082 H         1 <0>         0.1140
     20 H7          3.5884   -1.6586   -0.5549 H         1 <0>         0.0871
     21 H8          4.4573   -0.1052   -0.5563 H         1 <0>         0.0537
     22 H9          5.7568   -1.8493    2.3292 H         1 <0>         0.4314
     23 H10         5.3397   -2.5612    0.9030 H         1 <0>         0.4288
     24 H11         6.1440   -1.1232    0.9018 H         1 <0>         0.3930
@<TRIPOS>BOND
     1    1    6 ar
     2    1    2 ar
     3    1   15 1
     4    2    3 ar
     5    2   16 1
     6    3    4 ar
     7    3   17 1
     8    4    5 ar
     9    4    7 1
    10    5    6 ar
    11    5   18 1
    12    6   19 1
    13    7    8 1
    14    7   20 1
    15    7   21 1
    16    8    9 1
    17    8   10 1
    18    8   11 1
    19   10   22 1
    20   10   23 1
    21   10   24 1
    22   11   12 2
    23   11   13 1
    24   11   14 1
@<TRIPOS>MOLECULE
ZINC03953934
   25    25     0     0     0
SMALL
USER_CHARGES

@<TRIPOS>ATOM
      1 C1         -0.0167    1.3781    0.0096 C.ar      1 <0>        -0.1023
      2 C2          1.1709    2.0855    0.0021 C.ar      1 <0>        -0.1404
      3 C3          2.3773    1.4107   -0.0130 C.ar      1 <0>        -0.1091
      4 C4          2.3960    0.0285   -0.0201 C.ar      1 <0>        -0.1279
      5 C5          1.2084   -0.6789   -0.0117 C.ar      1 <0>        -0.0221
      6 C6          0.0021   -0.0041    0.0020 C.ar      1 <0>        -0.1092
      7 C7          3.7112   -0.7071   -0.0376 C.3       1 <0>        -0.0685
      8 C8          4.1714   -0.9633    1.3989 C.3       1 <0>        -0.5614
      9 H1          4.2941   -0.0118    1.9163 H         1 <0>         0.1421
     10 N1          5.4533   -1.6804    1.3819 N.4       1 <0>        -0.6152
     11 P1          2.9234   -1.9700    2.2664 P.3       1 <0>         2.1819
     12 O1          2.6575   -3.2637    1.4648 O.2       1 <0>        -1.0430
     13 O2          3.4660   -2.3499    3.7338 O.3       1 <0>        -0.9054
     14 O3          1.6111   -1.1649    2.3950 O.3       1 <0>        -1.0141
     15 H2         -0.9591    1.9053    0.0259 H         1 <0>         0.1180
     16 H3          1.1563    3.1654    0.0076 H         1 <0>         0.1155
     17 H4          3.3051    1.9634   -0.0196 H         1 <0>         0.1062
     18 H5          1.2231   -1.7588   -0.0176 H         1 <0>         0.1343
     19 H6         -0.9258   -0.5567    0.0082 H         1 <0>         0.1222
     20 H7          3.5884   -1.6586   -0.5549 H         1 <0>         0.1008
     21 H8          4.4573   -0.1052   -0.5563 H         1 <0>         0.0776
     22 H9          6.1440   -1.1232    0.9018 H         1 <0>         0.4188
     23 H10         5.7568   -1.8493    2.3292 H         1 <0>         0.4315
     24 H11         5.3397   -2.5612    0.9030 H         1 <0>         0.4366
     25 H12         2.8519   -2.8864    4.2535 H         1 <0>         0.4332
@<TRIPOS>BOND
     1    1    6 ar
     2    1    2 ar
     3    1   15 1
     4    2    3 ar
     5    2   16 1
     6    3    4 ar
     7    3   17 1
     8    4    5 ar
     9    4    7 1
    10    5    6 ar
    11    5   18 1
    12    6   19 1
    13    7    8 1
    14    7   20 1
    15    7   21 1
    16    8    9 1
    17    8   10 1
    18    8   11 1
    19   10   22 1
    20   10   23 1
    21   10   24 1
    22   11   12 2
    23   11   13 1
    24   11   14 1
    25   13   25 1
@<TRIPOS>MOLECULE
ZINC03872462
   70    69     0     0     0
SMALL
USER_CHARGES
2-[2-[2-(3-amino-2-hydroxy-5-methyl-hexanoyl)amino-3-methyl-butanoyl]amino-3-methyl-butanoyl]aminobutanedioic acid
@<TRIPOS>ATOM
      1 C1          2.6284   -2.3298   -2.5474 C.3       1 <0>        -0.1667
      2 C2          1.1170   -2.5192   -2.6918 C.3       1 <0>        -0.1047
      3 C3          0.8041   -4.0063   -2.8694 C.3       1 <0>        -0.1525
      4 C4          0.4153   -1.9968   -1.4366 C.3       1 <0>        -0.1348
      5 C5          0.6067   -0.4820   -1.3384 C.3       1 <0>        -0.0054
      6 H1          1.6705   -0.2471   -1.3733 H         1 <0>         0.1610
      7 C6          0.0159    0.0224   -0.0203 C.3       1 <0>         0.0823
      8 H2          0.5805   -0.3942    0.8139 H         1 <0>         0.1685
      9 C7          0.0937    1.5268    0.0220 C.2       1 <0>         0.4540
     10 O1         -0.9239    2.1866    0.0289 O.2       1 <0>        -0.5036
     11 N1          1.2940    2.1391    0.0466 N.am      1 <0>        -0.6909
     12 C8          1.3696    3.6016    0.0878 C.3       1 <0>         0.1285
     13 H3          0.5514    4.0242   -0.4953 H         1 <0>         0.1188
     14 C9          1.2613    4.0772    1.5379 C.3       1 <0>        -0.1082
     15 C10        -0.0744    3.6188    2.1266 C.3       1 <0>        -0.1348
     16 C11         2.4098    3.4840    2.3564 C.3       1 <0>        -0.1503
     17 C12         2.6853    4.0531   -0.4921 C.2       1 <0>         0.5122
     18 O2          3.4814    3.2339   -0.8996 O.2       1 <0>        -0.5479
     19 N2          2.9772    5.3672   -0.5578 N.am      1 <0>        -0.6797
     20 C13         4.2562    5.8061   -1.1215 C.3       1 <0>         0.1324
     21 H4          5.0326    5.0851   -0.8657 H         1 <0>         0.1118
     22 C14         4.1351    5.9067   -2.6434 C.3       1 <0>        -0.1001
     23 C15         3.7680    4.5369   -3.2175 C.3       1 <0>        -0.1278
     24 C16         3.0453    6.9188   -3.0025 C.3       1 <0>        -0.1529
     25 C17         4.6177    7.1554   -0.5561 C.2       1 <0>         0.5177
     26 O3          3.8797    7.6971    0.2394 O.2       1 <0>        -0.5589
     27 N3          5.7612    7.7602   -0.9344 N.am      1 <0>        -0.6580
     28 C18         6.1127    9.0719   -0.3847 C.3       1 <0>         0.1244
     29 H5          5.7774    9.1337    0.6506 H         1 <0>         0.0884
     30 C19         7.6302    9.2587   -0.4414 C.3       1 <0>        -0.1520
     31 C20         8.2940    8.2552    0.4661 C.2       1 <0>         0.4632
     32 O4          7.6223    7.4712    1.0938 O.co2     1 <0>        -0.6385
     33 C21         5.4430   10.1519   -1.1948 C.2       1 <0>         0.4642
     34 O5          4.7440    9.8562   -2.1349 O.co2     1 <0>        -0.6422
     35 O6         -1.3497   -0.3870    0.0772 O.3       1 <0>        -0.5084
     36 H6          2.9823   -2.8821   -1.6768 H         1 <0>         0.0705
     37 H7          3.1283   -2.7020   -3.4416 H         1 <0>         0.0704
     38 H8          2.8513   -1.2704   -2.4208 H         1 <0>         0.0575
     39 H9          0.7632   -1.9670   -3.5623 H         1 <0>         0.0626
     40 H10        -0.2722   -4.1407   -2.9776 H         1 <0>         0.0602
     41 H11         1.3083   -4.3798   -3.7607 H         1 <0>         0.0665
     42 H12         1.1532   -4.5579   -1.9965 H         1 <0>         0.0659
     43 H13         0.8433   -2.4749   -0.5554 H         1 <0>         0.1186
     44 H14        -0.6488   -2.2257   -1.4933 H         1 <0>         0.0986
     45 H15         2.1079    1.6114    0.0371 H         1 <0>         0.4138
     46 H16         1.3175    5.1654    1.5685 H         1 <0>         0.0978
     47 H17        -0.8926    4.0415    1.5435 H         1 <0>         0.0638
     48 H18        -0.1307    2.5307    2.0960 H         1 <0>         0.0468
     49 H19        -0.1516    3.9577    3.1597 H         1 <0>         0.0580
     50 H20         3.3614    3.8106    1.9370 H         1 <0>         0.0643
     51 H21         2.3326    3.8229    3.3895 H         1 <0>         0.0663
     52 H22         2.3536    2.3959    2.3258 H         1 <0>         0.0498
     53 H23         2.3404    6.0224   -0.2319 H         1 <0>         0.4127
     54 H24         5.0867    6.2333   -3.0628 H         1 <0>         0.0888
     55 H25         3.6818    4.6085   -4.3017 H         1 <0>         0.0453
     56 H26         4.5444    3.8158   -2.9616 H         1 <0>         0.0609
     57 H27         2.8164    4.2103   -2.7981 H         1 <0>         0.0415
     58 H28         3.3068    7.8948   -2.5935 H         1 <0>         0.0911
     59 H29         2.9590    6.9905   -4.0867 H         1 <0>         0.0510
     60 H30         2.0937    6.5923   -2.5831 H         1 <0>         0.0409
     61 H31         6.3515    7.3270   -1.5707 H         1 <0>         0.3879
     62 H32         7.9767    9.1089   -1.4639 H         1 <0>         0.0602
     63 H33         7.8845   10.2673   -0.1156 H         1 <0>         0.0884
     64 H34        -1.9125   -0.0521   -0.6343 H         1 <0>         0.3777
     65 H35        -1.0646   -0.0309   -2.4528 H         1 <0>         0.4322
     66 H36         0.0890    1.1670   -2.4570 H         1 <0>         0.4405
     67 O7          9.6315    8.2325    0.5771 O.co2     1 <0>        -0.7861
     68 O8          5.6232   11.4423   -0.8721 O.co2     1 <0>        -0.7700
     69 N4         -0.0645    0.1603   -2.4823 N.4       1 <0>        -0.6478
     70 H37         0.3229   -0.2158   -3.3556 H         1 <0>         0.4442
@<TRIPOS>BOND
     1    1    2 1
     2    1   36 1
     3    1   37 1
     4    1   38 1
     5    2    3 1
     6    2    4 1
     7    2   39 1
     8    3   40 1
     9    3   41 1
    10    3   42 1
    11    4    5 1
    12    4   43 1
    13    4   44 1
    14    5    6 1
    15    5    7 1
    16    5   69 1
    17    7    8 1
    18    7    9 1
    19    7   35 1
    20    9   10 2
    21    9   11 am
    22   11   12 1
    23   11   45 1
    24   12   13 1
    25   12   14 1
    26   12   17 1
    27   14   15 1
    28   14   16 1
    29   14   46 1
    30   15   47 1
    31   15   48 1
    32   15   49 1
    33   16   50 1
    34   16   51 1
    35   16   52 1
    36   17   18 2
    37   17   19 am
    38   19   20 1
    39   19   53 1
    40   20   21 1
    41   20   22 1
    42   20   25 1
    43   22   23 1
    44   22   24 1
    45   22   54 1
    46   23   55 1
    47   23   56 1
    48   23   57 1
    49   24   58 1
    50   24   59 1
    51   24   60 1
    52   25   26 2
    53   25   27 am
    54   27   28 1
    55   27   61 1
    56   28   29 1
    57   28   30 1
    58   28   33 1
    59   30   31 1
    60   30   62 1
    61   30   63 1
    62   31   32 2
    63   31   67 1
    64   33   34 2
    65   33   68 1
    66   35   64 1
    67   65   69 1
    68   66   69 1
    69   69   70 1
@<TRIPOS>MOLECULE
ZINC01720912
   17    16     0     0     0
SMALL
USER_CHARGES
[(1S)-1-aminopropyl]phosphonic acid
@<TRIPOS>ATOM
      1 C1         -0.7527    1.5927   -1.2315 C.3       1 <0>        -0.1814
      2 C2         -0.0127    1.0858    0.0080 C.3       1 <0>        -0.1094
      3 C3         -0.7288    1.5792    1.2668 C.3       1 <0>        -0.5590
      4 H1         -1.7514    1.2020    1.2746 H         1 <0>         0.1151
      5 P1         -0.7536    3.4020    1.2768 P.3       1 <0>         2.1231
      6 O1          0.6284    3.9149    1.1448 O.2       1 <0>        -1.1095
      7 H2         -0.2425    1.2411   -2.1283 H         1 <0>         0.0476
      8 H3         -1.7753    1.2154   -1.2238 H         1 <0>         0.0477
      9 H4         -0.7675    2.6825   -1.2255 H         1 <0>         0.1312
     10 H5          0.0021   -0.0041    0.0020 H         1 <0>         0.0392
     11 H6          1.0099    1.4631    0.0003 H         1 <0>         0.0799
     12 H7          0.9328    1.4290    2.4730 H         1 <0>         0.4287
     13 H8         -0.5075    1.3508    3.3008 H         1 <0>         0.4328
     14 N1         -0.0194    1.0677    2.4527 N.4       1 <0>        -0.6060
     15 H9          0.0122    0.0422    2.4108 H         1 <0>         0.3945
     16 O2         -1.6433    3.9335    0.0447 O.3       1 <0>        -1.1244
     17 O3         -1.3891    3.9225    2.6615 O.3       1 <0>        -1.1500
@<TRIPOS>BOND
     1    1    2 1
     2    1    7 1
     3    1    8 1
     4    1    9 1
     5    2    3 1
     6    2   10 1
     7    2   11 1
     8    3    4 1
     9    3    5 1
    10    3   14 1
    11    5    6 2
    12    5   16 1
    13    5   17 1
    14   12   14 1
    15   13   14 1
    16   14   15 1
@<TRIPOS>MOLECULE
ZINC02146774
   17    16     0     0     0
SMALL
USER_CHARGES
[(1R)-1-aminopropyl]phosphonic acid
@<TRIPOS>ATOM
      1 C1         -0.0127    1.0858    0.0080 C.3       1 <0>        -0.1814
      2 C2         -0.7288    1.5792    1.2668 C.3       1 <0>        -0.1094
      3 C3          0.0111    1.0724    2.5063 C.3       1 <0>        -0.5589
      4 H1          0.0259   -0.0175    2.5003 H         1 <0>         0.1150
      5 P1          1.7214    1.7034    2.4934 P.3       1 <0>         2.1231
      6 O1          1.7020    3.1789    2.3799 O.2       1 <0>        -1.1095
      7 H2          0.0021   -0.0041    0.0020 H         1 <0>         0.0477
      8 H3          1.0099    1.4631    0.0003 H         1 <0>         0.1312
      9 H4         -0.5399    1.4469   -0.8751 H         1 <0>         0.0476
     10 H5         -0.7436    2.6691    1.2728 H         1 <0>         0.0799
     11 H6         -1.7514    1.2020    1.2746 H         1 <0>         0.0392
     12 H7         -0.2449    1.1719    4.5467 H         1 <0>         0.4328
     13 H8         -0.7034    2.5544    3.7439 H         1 <0>         0.4287
     14 N1         -0.6994    1.5362    3.7110 N.4       1 <0>        -0.6061
     15 H9         -1.6685    1.1982    3.6825 H         1 <0>         0.3945
     16 O2          2.4600    1.2799    3.8599 O.3       1 <0>        -1.1500
     17 O3          2.5143    1.0790    1.2390 O.3       1 <0>        -1.1244
@<TRIPOS>BOND
     1    1    2 1
     2    1    7 1
     3    1    8 1
     4    1    9 1
     5    2    3 1
     6    2   10 1
     7    2   11 1
     8    3    4 1
     9    3    5 1
    10    3   14 1
    11    5    6 2
    12    5   16 1
    13    5   17 1
    14   12   14 1
    15   13   14 1
    16   14   15 1
@<TRIPOS>MOLECULE
ZINC01542895
   46    46     0     0     0
SMALL
USER_CHARGES

@<TRIPOS>ATOM
      1 C1         -1.4921   -0.2802   -0.1168 C.3       1 <0>        -0.1480
      2 C2          0.0168   -0.0902    0.0502 C.3       1 <0>        -0.0946
      3 C3          0.4965   -0.8703    1.2758 C.3       1 <0>        -0.1503
      4 C4          0.7370   -0.6066   -1.1970 C.3       1 <0>        -0.1084
      5 C5          2.2304   -0.2918   -1.0907 C.3       1 <0>         0.0678
      6 H1          2.6270   -0.7186   -0.1695 H         1 <0>         0.0947
      7 C6          2.9543   -0.8853   -2.2717 C.2       1 <0>         0.4976
      8 O1          3.4188   -0.1561   -3.1314 O.co2     1 <0>        -0.7136
      9 O2          3.0754   -2.0947   -2.3676 O.co2     1 <0>        -0.6706
     10 N1          2.4237    1.1604   -1.0789 N.am      1 <0>        -0.6768
     11 C7          3.5233    1.6892   -0.5064 C.2       1 <0>         0.4501
     12 O3          4.3528    0.9629   -0.0011 O.2       1 <0>        -0.5167
     13 C8          3.7222    3.1829   -0.4943 C.3       1 <0>         0.0771
     14 H2          2.8536    3.6614   -0.0419 H         1 <0>         0.1637
     15 C9          3.8924    3.6865   -1.9290 C.3       1 <0>         0.0050
     16 H3          2.9682    3.5231   -2.4834 H         1 <0>         0.1563
     17 C10         4.2180    5.1813   -1.9096 C.3       1 <0>        -0.0899
     18 C11         4.2645    5.7037   -3.3224 C.ar      1 <0>        -0.1239
     19 C12         5.4532    5.6842   -4.0277 C.ar      1 <0>        -0.1395
     20 C13         5.4959    6.1633   -5.3236 C.ar      1 <0>        -0.1080
     21 C14         4.3497    6.6615   -5.9144 C.ar      1 <0>        -0.1065
     22 C15         3.1608    6.6802   -5.2094 C.ar      1 <0>        -0.1069
     23 C16         3.1172    6.1971   -3.9150 C.ar      1 <0>        -0.1039
     24 N2          4.9886    2.9549   -2.5779 N.4       1 <0>        -0.6381
     25 O4          4.8906    3.5018    0.2642 O.3       1 <0>        -0.5140
     26 H4         -1.8485    0.3439   -0.9363 H         1 <0>         0.0522
     27 H5         -1.7043   -1.3262   -0.3379 H         1 <0>         0.0571
     28 H6         -1.9986    0.0063    0.8049 H         1 <0>         0.0532
     29 H7          0.2370    0.9689    0.1845 H         1 <0>         0.0619
     30 H8          0.2764   -1.9293    1.1415 H         1 <0>         0.0580
     31 H9          1.5715   -0.7349    1.3948 H         1 <0>         0.0554
     32 H10        -0.0165   -0.5023    2.1644 H         1 <0>         0.0512
     33 H11         0.5977   -1.6848   -1.2767 H         1 <0>         0.0865
     34 H12         0.3253   -0.1207   -2.0817 H         1 <0>         0.0633
     35 H13         1.7603    1.7412   -1.4830 H         1 <0>         0.3944
     36 H14         3.4484    5.7136   -1.3505 H         1 <0>         0.1229
     37 H15         5.1859    5.3362   -1.4329 H         1 <0>         0.1051
     38 H16         6.3487    5.2949   -3.5661 H         1 <0>         0.1226
     39 H17         6.4247    6.1488   -5.8744 H         1 <0>         0.1304
     40 H18         4.3832    7.0365   -6.9267 H         1 <0>         0.1298
     41 H19         2.2654    7.0697   -5.6709 H         1 <0>         0.1308
     42 H20         2.1875    6.2082   -3.3654 H         1 <0>         0.1303
     43 H21         4.7738    1.9691   -2.5907 H         1 <0>         0.4538
     44 H22         5.1008    3.2870   -3.5240 H         1 <0>         0.4364
     45 H23         5.7035    3.1085   -0.0817 H         1 <0>         0.3783
     46 H24         5.8440    3.1062   -2.0647 H         1 <0>         0.4236
@<TRIPOS>BOND
     1    1    2 1
     2    1   26 1
     3    1   27 1
     4    1   28 1
     5    2    3 1
     6    2    4 1
     7    2   29 1
     8    3   30 1
     9    3   31 1
    10    3   32 1
    11    4    5 1
    12    4   33 1
    13    4   34 1
    14    5    6 1
    15    5    7 1
    16    5   10 1
    17    7    8 2
    18    7    9 1
    19   10   11 am
    20   10   35 1
    21   11   12 2
    22   11   13 1
    23   13   14 1
    24   13   15 1
    25   13   25 1
    26   15   16 1
    27   15   17 1
    28   15   24 1
    29   17   18 1
    30   17   36 1
    31   17   37 1
    32   18   23 ar
    33   18   19 ar
    34   19   20 ar
    35   19   38 1
    36   20   21 ar
    37   20   39 1
    38   21   22 ar
    39   21   40 1
    40   22   23 ar
    41   22   41 1
    42   23   42 1
    43   24   43 1
    44   24   44 1
    45   24   46 1
    46   25   45 1
@<TRIPOS>MOLECULE
ZINC01542895
   45    45     0     0     0
SMALL
USER_CHARGES

@<TRIPOS>ATOM
      1 C1          0.6528   -0.2592    1.3564 C.3       1 <0>        -0.1445
      2 C2          0.0386   -0.0894   -0.0345 C.3       1 <0>        -0.0966
      3 C3          0.8796   -0.8522   -1.0600 C.3       1 <0>        -0.1471
      4 C4         -1.3882   -0.6419   -0.0329 C.3       1 <0>        -0.1047
      5 C5         -2.0504   -0.3483   -1.3805 C.3       1 <0>         0.0724
      6 H1         -1.4402   -0.7627   -2.1831 H         1 <0>         0.0844
      7 C6         -3.4197   -0.9765   -1.4149 C.2       1 <0>         0.4903
      8 O1         -4.4145   -0.2719   -1.3899 O.co2     1 <0>        -0.6843
      9 O2         -3.5329   -2.1893   -1.4677 O.co2     1 <0>        -0.6968
     10 N1         -2.1732    1.1006   -1.5589 N.am      1 <0>        -0.6848
     11 C7         -2.2403    1.6236   -2.7993 C.2       1 <0>         0.4808
     12 O3         -2.1991    0.8947   -3.7678 O.2       1 <0>        -0.5425
     13 C8         -2.3666    3.1140   -2.9828 C.3       1 <0>         0.0531
     14 H2         -1.5529    3.6150   -2.4584 H         1 <0>         0.1189
     15 C9         -3.7065    3.5861   -2.4146 C.3       1 <0>         0.0778
     16 H3         -3.7206    3.4261   -1.3365 H         1 <0>         0.0933
     17 C10        -3.8900    5.0758   -2.7116 C.3       1 <0>        -0.0675
     18 C11        -5.1496    5.5690   -2.0473 C.ar      1 <0>        -0.0627
     19 C12        -6.3538    5.5169   -2.7241 C.ar      1 <0>        -0.0897
     20 C13        -7.5092    5.9693   -2.1148 C.ar      1 <0>        -0.1228
     21 C14        -7.4604    6.4734   -0.8286 C.ar      1 <0>        -0.1293
     22 C15        -6.2564    6.5247   -0.1515 C.ar      1 <0>        -0.1239
     23 C16        -5.1017    6.0683   -0.7592 C.ar      1 <0>        -0.1216
     24 N2         -4.7978    2.8247   -3.0370 N.3       1 <0>        -0.8349
     25 O4         -2.3018    3.4298   -4.3750 O.3       1 <0>        -0.5371
     26 H4          1.6967    0.0535    1.3333 H         1 <0>         0.0492
     27 H5          0.1057    0.3539    2.0726 H         1 <0>         0.0514
     28 H6          0.5937   -1.3060    1.6544 H         1 <0>         0.0539
     29 H7          0.0183    0.9685   -0.2960 H         1 <0>         0.0646
     30 H8          0.8999   -1.9102   -0.7985 H         1 <0>         0.0544
     31 H9          0.4420   -0.7313   -2.0510 H         1 <0>         0.0576
     32 H10         1.8961   -0.4587   -1.0612 H         1 <0>         0.0469
     33 H11        -1.3606   -1.7191    0.1314 H         1 <0>         0.0795
     34 H12        -1.9606   -0.1674    0.7642 H         1 <0>         0.0604
     35 H13        -2.2061    1.6836   -0.7844 H         1 <0>         0.3898
     36 H14        -3.0347    5.6310   -2.3264 H         1 <0>         0.0744
     37 H15        -3.9648    5.2250   -3.7887 H         1 <0>         0.0776
     38 H16        -6.3919    5.1230   -3.7290 H         1 <0>         0.1198
     39 H17        -8.4499    5.9293   -2.6438 H         1 <0>         0.1166
     40 H18        -8.3630    6.8275   -0.3528 H         1 <0>         0.1149
     41 H19        -6.2182    6.9188    0.8533 H         1 <0>         0.1159
     42 H20        -4.1616    6.1049   -0.2288 H         1 <0>         0.1168
     43 H21        -4.8061    2.9566   -4.0373 H         1 <0>         0.3280
     44 H22        -2.9976    3.0171   -4.9047 H         1 <0>         0.3769
     45 H23        -4.7354    1.8455   -2.8019 H         1 <0>         0.3711
@<TRIPOS>BOND
     1    1    2 1
     2    1   26 1
     3    1   27 1
     4    1   28 1
     5    2    3 1
     6    2    4 1
     7    2   29 1
     8    3   30 1
     9    3   31 1
    10    3   32 1
    11    4    5 1
    12    4   33 1
    13    4   34 1
    14    5    6 1
    15    5    7 1
    16    5   10 1
    17    7    8 2
    18    7    9 1
    19   10   11 am
    20   10   35 1
    21   11   12 2
    22   11   13 1
    23   13   14 1
    24   13   15 1
    25   13   25 1
    26   15   16 1
    27   15   17 1
    28   15   24 1
    29   17   18 1
    30   17   36 1
    31   17   37 1
    32   18   23 ar
    33   18   19 ar
    34   19   20 ar
    35   19   38 1
    36   20   21 ar
    37   20   39 1
    38   21   22 ar
    39   21   40 1
    40   22   23 ar
    41   22   41 1
    42   23   42 1
    43   24   43 1
    44   24   45 1
    45   25   44 1
@<TRIPOS>MOLECULE
ZINC13798353
   67    69     0     0     0
SMALL
USER_CHARGES
(2S)-1-[(2S)-1-[(2S,3R)-3-amino-2-hydroxy-4-phenyl-butanoyl]pyrrolidine-2-carbonyl]-N-[(1S)-2-amino-1-methyl-2-oxo-ethyl]pyrrolidine-2-carboxamide
@<TRIPOS>ATOM
      1 C1          1.8460    3.5107   -1.1647 C.3       1 <0>        -0.1571
      2 C2          1.4795    2.2507   -0.3779 C.3       1 <0>         0.1281
      3 H1          1.2569    2.5192    0.6548 H         1 <0>         0.1150
      4 C3          0.2693    1.6038   -1.0008 C.2       1 <0>         0.5128
      5 O1          0.3394    0.4705   -1.4270 O.2       1 <0>        -0.5323
      6 N1         -0.8893    2.2866   -1.0892 N.am      1 <0>        -0.8465
      7 N2          2.6042    1.3124   -0.4070 N.am      1 <0>        -0.7118
      8 C4          3.6014    1.4276    0.4923 C.2       1 <0>         0.5294
      9 O2          3.5677    2.3081    1.3256 O.2       1 <0>        -0.5231
     10 C5          4.7583    0.4624    0.4623 C.3       1 <0>         0.1189
     11 H2          4.9248    0.1023   -0.5529 H         1 <0>         0.1003
     12 C6          4.4935   -0.7265    1.4194 C.3       1 <0>        -0.1230
     13 C7          5.9366   -1.2055    1.7279 C.3       1 <0>        -0.1305
     14 C8          6.7393    0.1122    1.7578 C.3       1 <0>         0.0914
     15 N3          5.9767    1.1054    0.9873 N.am      1 <0>        -0.5957
     16 C9          6.3328    2.3906    0.7926 C.2       1 <0>         0.5441
     17 O3          5.5864    3.1443    0.2046 O.2       1 <0>        -0.5382
     18 C10         7.6585    2.8911    1.3055 C.3       1 <0>         0.1215
     19 H3          8.4697    2.3174    0.8573 H         1 <0>         0.1110
     20 C11         7.7099    2.7604    2.8423 C.3       1 <0>        -0.1278
     21 C12         8.4561    4.0534    3.2738 C.3       1 <0>        -0.1299
     22 C13         7.9327    5.0781    2.2366 C.3       1 <0>         0.0816
     23 N4          7.8147    4.3163    0.9800 N.am      1 <0>        -0.5952
     24 C14         7.8458    4.8396   -0.2617 C.2       1 <0>         0.4790
     25 O4          7.7397    4.1146   -1.2281 O.2       1 <0>        -0.4901
     26 C15         8.0123    6.3256   -0.4492 C.3       1 <0>         0.0858
     27 H4          8.9104    6.6590    0.0707 H         1 <0>         0.1692
     28 C16         6.7928    7.0515    0.1226 C.3       1 <0>         0.0018
     29 H5          6.7523    6.8997    1.2012 H         1 <0>         0.1544
     30 C17         6.9027    8.5477   -0.1781 C.3       1 <0>        -0.0910
     31 C18         5.7665    9.2789    0.4894 C.ar      1 <0>        -0.1303
     32 C19         4.5764    9.4715   -0.1869 C.ar      1 <0>        -0.1417
     33 C20         3.5328   10.1388    0.4268 C.ar      1 <0>        -0.1065
     34 C21         3.6823   10.6207    1.7138 C.ar      1 <0>        -0.1024
     35 C22         4.8743   10.4328    2.3881 C.ar      1 <0>        -0.1049
     36 C23         5.9165    9.7621    1.7759 C.ar      1 <0>        -0.1037
     37 O5          8.1316    6.6195   -1.8425 O.3       1 <0>        -0.5060
     38 H6          2.7213    3.9786   -0.7142 H         1 <0>         0.0688
     39 H7          2.0686    3.2423   -2.1975 H         1 <0>         0.0659
     40 H8          1.0092    4.2088   -1.1431 H         1 <0>         0.0718
     41 H9         -1.6672    1.8716   -1.4937 H         1 <0>         0.4103
     42 H10        -0.9454    3.1930   -0.7482 H         1 <0>         0.4036
     43 H11         2.6312    0.6082   -1.0736 H         1 <0>         0.4115
     44 H12         3.9902   -0.3929    2.3269 H         1 <0>         0.0863
     45 H13         3.9202   -1.5086    0.9216 H         1 <0>         0.0990
     46 H14         5.9786   -1.7047    2.6959 H         1 <0>         0.0953
     47 H15         6.3022   -1.8619    0.9381 H         1 <0>         0.0868
     48 H16         6.8563    0.4517    2.7869 H         1 <0>         0.0800
     49 H17         7.7186   -0.0399    1.3041 H         1 <0>         0.0791
     50 H18         6.7039    2.7382    3.2613 H         1 <0>         0.0897
     51 H19         8.2705    1.8728    3.1354 H         1 <0>         0.1024
     52 H20         9.5352    3.9266    3.1875 H         1 <0>         0.0902
     53 H21         8.1790    4.3464    4.2865 H         1 <0>         0.0996
     54 H22         8.6437    5.8959    2.1191 H         1 <0>         0.0904
     55 H23         6.9591    5.4634    2.5395 H         1 <0>         0.0771
     56 H24         7.8515    8.9260    0.2022 H         1 <0>         0.1262
     57 H25         6.8538    8.7063   -1.2554 H         1 <0>         0.1082
     58 H26         4.4608    9.0979   -1.1936 H         1 <0>         0.1226
     59 H27         2.6017   10.2860   -0.1002 H         1 <0>         0.1322
     60 H28         2.8680   11.1445    2.1923 H         1 <0>         0.1326
     61 H29         4.9912   10.8096    3.3935 H         1 <0>         0.1332
     62 H30         6.8478    9.6152    2.3027 H         1 <0>         0.1307
     63 H31         5.5846    6.6454   -1.4941 H         1 <0>         0.4304
     64 H32         5.4421    5.5446   -0.2556 H         1 <0>         0.4464
     65 H33         7.3663    6.3495   -2.3684 H         1 <0>         0.3804
     66 N5          5.5539    6.5314   -0.4823 N.4       1 <0>        -0.6495
     67 H34         4.7518    7.0535   -0.1105 H         1 <0>         0.4422
@<TRIPOS>BOND
     1    1    2 1
     2    1   38 1
     3    1   39 1
     4    1   40 1
     5    2    3 1
     6    2    4 1
     7    2    7 1
     8    4    5 2
     9    4    6 am
    10    6   41 1
    11    6   42 1
    12    7    8 am
    13    7   43 1
    14    8    9 2
    15    8   10 1
    16   10   11 1
    17   10   15 1
    18   10   12 1
    19   12   13 1
    20   12   44 1
    21   12   45 1
    22   13   14 1
    23   13   46 1
    24   13   47 1
    25   14   15 1
    26   14   48 1
    27   14   49 1
    28   15   16 am
    29   16   17 2
    30   16   18 1
    31   18   19 1
    32   18   23 1
    33   18   20 1
    34   20   21 1
    35   20   50 1
    36   20   51 1
    37   21   22 1
    38   21   52 1
    39   21   53 1
    40   22   23 1
    41   22   54 1
    42   22   55 1
    43   23   24 am
    44   24   25 2
    45   24   26 1
    46   26   27 1
    47   26   28 1
    48   26   37 1
    49   28   29 1
    50   28   30 1
    51   28   66 1
    52   30   31 1
    53   30   56 1
    54   30   57 1
    55   31   36 ar
    56   31   32 ar
    57   32   33 ar
    58   32   58 1
    59   33   34 ar
    60   33   59 1
    61   34   35 ar
    62   34   60 1
    63   35   36 ar
    64   35   61 1
    65   36   62 1
    66   37   65 1
    67   63   66 1
    68   64   66 1
    69   66   67 1
@<TRIPOS>MOLECULE
ZINC02047807
   23    22     0     0     0
SMALL
USER_CHARGES
[(1R)-1-amino-3-methyl-butyl]phosphonic acid
@<TRIPOS>ATOM
      1 C1         -0.1342    1.6149    4.4856 C.3       1 <0>        -0.1469
      2 C2          0.3883    1.1640    3.1200 C.3       1 <0>        -0.1049
      3 C3         -0.5867    1.6097    2.0284 C.3       1 <0>        -0.1529
      4 C4          1.7601    1.7921    2.8661 C.3       1 <0>        -0.1105
      5 C5          2.3412    1.2386    1.5635 C.3       1 <0>        -0.5568
      6 H1          1.6286    1.3928    0.7533 H         1 <0>         0.1192
      7 P1          3.8981    2.1043    1.1764 P.3       1 <0>         2.1204
      8 O1          4.8150    2.0122    2.3346 O.2       1 <0>        -1.1097
      9 H2         -0.2237    2.7011    4.4998 H         1 <0>         0.0623
     10 H3         -1.1115    1.1674    4.6665 H         1 <0>         0.0528
     11 H4          0.5604    1.2974    5.2633 H         1 <0>         0.0569
     12 H5          0.4778    0.0778    3.1059 H         1 <0>         0.0503
     13 H6         -0.2675    1.2040    1.0684 H         1 <0>         0.0508
     14 H7         -1.5865    1.2443    2.2629 H         1 <0>         0.0538
     15 H8         -0.6007    2.6984    1.9762 H         1 <0>         0.0662
     16 H9          2.4283    1.5520    3.6931 H         1 <0>         0.0835
     17 H10         1.6551    2.8741    2.7862 H         1 <0>         0.1059
     18 H11         3.2634   -0.3677    2.4624 H         1 <0>         0.4275
     19 H12         1.7482   -0.7092    1.8680 H         1 <0>         0.3905
     20 N1          2.6151   -0.2034    1.6940 N.4       1 <0>        -0.6075
     21 H13         3.0346   -0.5475    0.8224 H         1 <0>         0.4364
     22 O2          3.5872    3.6520    0.8599 O.3       1 <0>        -1.1378
     23 O3          4.5867    1.4215   -0.1088 O.3       1 <0>        -1.1493
@<TRIPOS>BOND
     1    1    2 1
     2    1    9 1
     3    1   10 1
     4    1   11 1
     5    2    3 1
     6    2    4 1
     7    2   12 1
     8    3   13 1
     9    3   14 1
    10    3   15 1
    11    4    5 1
    12    4   16 1
    13    4   17 1
    14    5    6 1
    15    5    7 1
    16    5   20 1
    17    7    8 2
    18    7   22 1
    19    7   23 1
    20   18   20 1
    21   19   20 1
    22   20   21 1
@<TRIPOS>MOLECULE
ZINC02569900
   26    25     0     0     0
SMALL
USER_CHARGES
[(1S)-1-aminohexyl]phosphonic acid
@<TRIPOS>ATOM
      1 C1         -0.0604    1.1126   -4.9886 C.3       1 <0>        -0.1495
      2 C2         -0.7766    1.6061   -3.7298 C.3       1 <0>        -0.1265
      3 C3         -0.0366    1.0992   -2.4903 C.3       1 <0>        -0.1102
      4 C4         -0.7527    1.5927   -1.2315 C.3       1 <0>        -0.1520
      5 C5         -0.0127    1.0858    0.0080 C.3       1 <0>        -0.1015
      6 C6         -0.7288    1.5792    1.2668 C.3       1 <0>        -0.5621
      7 H1         -1.7514    1.2020    1.2746 H         1 <0>         0.1152
      8 P1         -0.7536    3.4020    1.2768 P.3       1 <0>         2.1210
      9 O1          0.6284    3.9149    1.1448 O.2       1 <0>        -1.1087
     10 H2         -0.0456    0.0228   -4.9946 H         1 <0>         0.0460
     11 H3         -0.5876    1.4737   -5.8717 H         1 <0>         0.0507
     12 H4          0.9622    1.4899   -4.9964 H         1 <0>         0.0522
     13 H5         -1.7991    1.2288   -3.7221 H         1 <0>         0.0581
     14 H6         -0.7913    2.6960   -3.7239 H         1 <0>         0.0729
     15 H7          0.9860    1.4765   -2.4981 H         1 <0>         0.0596
     16 H8         -0.0218    0.0093   -2.4963 H         1 <0>         0.0431
     17 H9         -1.7753    1.2154   -1.2238 H         1 <0>         0.0546
     18 H10        -0.7675    2.6825   -1.2255 H         1 <0>         0.1408
     19 H11         0.0021   -0.0041    0.0020 H         1 <0>         0.0392
     20 H12         1.0099    1.4631    0.0003 H         1 <0>         0.0792
     21 H13        -0.0466    0.0853    2.5082 H         1 <0>         0.3932
     22 H14         0.9328    1.4290    2.4730 H         1 <0>         0.4280
     23 N1         -0.0324    1.1033    2.4750 N.4       1 <0>        -0.6077
     24 H15        -0.5087    1.4723    3.3065 H         1 <0>         0.4364
     25 O2         -1.6432    3.9335    0.0447 O.3       1 <0>        -1.1221
     26 O3         -1.3891    3.9225    2.6615 O.3       1 <0>        -1.1502
@<TRIPOS>BOND
     1    1    2 1
     2    1   10 1
     3    1   11 1
     4    1   12 1
     5    2    3 1
     6    2   13 1
     7    2   14 1
     8    3    4 1
     9    3   15 1
    10    3   16 1
    11    4    5 1
    12    4   17 1
    13    4   18 1
    14    5    6 1
    15    5   19 1
    16    5   20 1
    17    6    7 1
    18    6    8 1
    19    6   23 1
    20    8    9 2
    21    8   25 1
    22    8   26 1
    23   21   23 1
    24   22   23 1
    25   23   24 1
@<TRIPOS>MOLECULE
ZINC02569901
   26    25     0     0     0
SMALL
USER_CHARGES
[(1R)-1-aminohexyl]phosphonic acid
@<TRIPOS>ATOM
      1 C1          0.0111    1.0724    2.5063 C.3       1 <0>        -0.1495
      2 C2         -0.7288    1.5792    1.2668 C.3       1 <0>        -0.1265
      3 C3         -0.0127    1.0858    0.0080 C.3       1 <0>        -0.1102
      4 C4         -0.7527    1.5927   -1.2315 C.3       1 <0>        -0.1520
      5 C5         -0.0366    1.0992   -2.4903 C.3       1 <0>        -0.1015
      6 C6         -0.7766    1.6061   -3.7298 C.3       1 <0>        -0.5620
      7 H1         -1.7991    1.2288   -3.7221 H         1 <0>         0.1152
      8 P1         -0.8013    3.4289   -3.7198 P.3       1 <0>         2.1210
      9 O1          0.5831    3.9404   -3.6087 O.2       1 <0>        -1.1087
     10 H2          0.0259   -0.0175    2.5003 H         1 <0>         0.0460
     11 H3          1.0337    1.4497    2.4986 H         1 <0>         0.0522
     12 H4         -0.4990    1.4239    3.4031 H         1 <0>         0.0507
     13 H5         -0.7436    2.6691    1.2728 H         1 <0>         0.0729
     14 H6         -1.7514    1.2020    1.2746 H         1 <0>         0.0581
     15 H7          0.0021   -0.0041    0.0020 H         1 <0>         0.0431
     16 H8          1.0099    1.4631    0.0003 H         1 <0>         0.0596
     17 H9         -1.7753    1.2154   -1.2238 H         1 <0>         0.0546
     18 H10        -0.7675    2.6825   -1.2255 H         1 <0>         0.1408
     19 H11         0.9860    1.4765   -2.4981 H         1 <0>         0.0792
     20 H12        -0.0218    0.0093   -2.4963 H         1 <0>         0.0393
     21 H13         0.8617    1.4689   -4.9690 H         1 <0>         0.4280
     22 H14        -0.1183    0.1256   -5.0000 H         1 <0>         0.3932
     23 N1         -0.1034    1.1432   -4.9562 N.4       1 <0>        -0.6077
     24 H15        -0.5954    1.5210   -5.7744 H         1 <0>         0.4364
     25 O2         -1.4631    3.9641   -5.0864 O.3       1 <0>        -1.1502
     26 O3         -1.6672    3.9470   -2.4653 O.3       1 <0>        -1.1221
@<TRIPOS>BOND
     1    1    2 1
     2    1   10 1
     3    1   11 1
     4    1   12 1
     5    2    3 1
     6    2   13 1
     7    2   14 1
     8    3    4 1
     9    3   15 1
    10    3   16 1
    11    4    5 1
    12    4   17 1
    13    4   18 1
    14    5    6 1
    15    5   19 1
    16    5   20 1
    17    6    7 1
    18    6    8 1
    19    6   23 1
    20    8    9 2
    21    8   25 1
    22    8   26 1
    23   21   23 1
    24   22   23 1
    25   23   24 1
@<TRIPOS>MOLECULE
ZINC01707644
   20    19     0     0     0
SMALL
USER_CHARGES
[(1S)-1-amino-2-methyl-propyl]phosphonic acid
@<TRIPOS>ATOM
      1 C1         -0.0127    1.0858    0.0080 C.3       1 <0>        -0.1750
      2 C2         -0.7288    1.5792    1.2668 C.3       1 <0>        -0.0891
      3 C3         -0.7496    3.1091    1.2752 C.3       1 <0>        -0.1599
      4 C4          0.0111    1.0724    2.5063 C.3       1 <0>        -0.5506
      5 H1          1.0337    1.4497    2.4986 H         1 <0>         0.1152
      6 P1          0.0359   -0.7504    2.4963 P.3       1 <0>         2.1248
      7 O1         -1.3485   -1.2620    2.3851 O.2       1 <0>        -1.1102
      8 H2          0.0021   -0.0041    0.0020 H         1 <0>         0.1309
      9 H3          1.0099    1.4631    0.0003 H         1 <0>         0.0479
     10 H4         -0.5399    1.4469   -0.8751 H         1 <0>         0.0470
     11 H5         -1.7514    1.2020    1.2746 H         1 <0>         0.0890
     12 H6         -1.2768    3.4701    0.3922 H         1 <0>         0.0673
     13 H7         -1.2598    3.4606    2.1720 H         1 <0>         0.0363
     14 H8          0.2730    3.4864    1.2675 H         1 <0>         0.0565
     15 H9         -1.6271    1.2095    3.7455 H         1 <0>         0.4282
     16 H10        -0.1713    1.2790    4.5465 H         1 <0>         0.4323
     17 N1         -0.6754    1.5711    3.7110 N.4       1 <0>        -0.6075
     18 H11        -0.7078    2.5969    3.6807 H         1 <0>         0.3927
     19 O2          0.9018   -1.2685    1.2418 O.3       1 <0>        -1.1247
     20 O3          0.6977   -1.2857    3.8629 O.3       1 <0>        -1.1509
@<TRIPOS>BOND
     1    1    2 1
     2    1    8 1
     3    1    9 1
     4    1   10 1
     5    2    3 1
     6    2    4 1
     7    2   11 1
     8    3   12 1
     9    3   13 1
    10    3   14 1
    11    4    5 1
    12    4    6 1
    13    4   17 1
    14    6    7 2
    15    6   19 1
    16    6   20 1
    17   15   17 1
    18   16   17 1
    19   17   18 1
@<TRIPOS>MOLECULE
ZINC02569589
   20    19     0     0     0
SMALL
USER_CHARGES
[(1R)-1-amino-2-methyl-propyl]phosphonic acid
@<TRIPOS>ATOM
      1 C1          1.4227    1.6154   -0.0028 C.3       1 <0>        -0.1615
      2 C2         -0.0127    1.0858    0.0080 C.3       1 <0>        -0.0902
      3 C3         -0.7527    1.5927   -1.2315 C.3       1 <0>        -0.1737
      4 C4         -0.7288    1.5792    1.2668 C.3       1 <0>        -0.5502
      5 H1         -0.8222    2.6646    1.2299 H         1 <0>         0.1151
      6 P1         -2.3881    0.8293    1.3554 P.3       1 <0>         2.1245
      7 O1         -2.2679   -0.6441    1.2840 O.2       1 <0>        -1.1103
      8 H2          1.9329    1.2639   -0.8996 H         1 <0>         0.0686
      9 H3          1.4079    2.7053    0.0031 H         1 <0>         0.0563
     10 H4          1.9499    1.2543    0.8802 H         1 <0>         0.0372
     11 H5          0.0021   -0.0041    0.0020 H         1 <0>         0.0920
     12 H6         -0.2425    1.2411   -2.1283 H         1 <0>         0.0488
     13 H7         -1.7753    1.2154   -1.2238 H         1 <0>         0.1290
     14 H8         -0.7675    2.6825   -1.2255 H         1 <0>         0.0460
     15 H9         -0.3718    1.5643    3.2943 H         1 <0>         0.4321
     16 H10         0.1471    0.1922    2.5107 H         1 <0>         0.4281
     17 N1          0.0684    1.2059    2.4485 N.4       1 <0>        -0.6078
     18 H11         1.0084    1.6103    2.3629 H         1 <0>         0.3929
     19 O2         -3.0909    1.2438    2.7433 O.3       1 <0>        -1.1509
     20 O3         -3.2812    1.3552    0.1235 O.3       1 <0>        -1.1259
@<TRIPOS>BOND
     1    1    2 1
     2    1    8 1
     3    1    9 1
     4    1   10 1
     5    2    3 1
     6    2    4 1
     7    2   11 1
     8    3   12 1
     9    3   13 1
    10    3   14 1
    11    4    5 1
    12    4    6 1
    13    4   17 1
    14    6    7 2
    15    6   19 1
    16    6   20 1
    17   15   17 1
    18   16   17 1
    19   17   18 1
@<TRIPOS>MOLECULE
ZINC05759774
   22    21     0     0     0
SMALL
USER_CHARGES
2-amino-4-methyl-pentanal
@<TRIPOS>ATOM
      1 C1         -0.8580    3.1071    0.7729 C.3       1 <0>        -0.1661
      2 C2         -0.7667    1.6413    1.2020 C.3       1 <0>        -0.1031
      3 C3          0.0643    0.8618    0.1808 C.3       1 <0>        -0.1559
      4 C4         -2.1730    1.0435    1.2779 C.3       1 <0>        -0.1421
      5 C5         -2.9599    1.7314    2.3954 C.3       1 <0>        -0.0226
      6 H1         -2.9766    2.7179    2.2328 H         1 <0>         0.1506
      7 C6         -4.3735    1.2095    2.4090 C.2       1 <0>         0.3404
      8 O1         -4.8049    0.6601    3.3941 O.2       1 <0>        -0.4292
      9 H2         -1.3330    3.1701   -0.2061 H         1 <0>         0.0723
     10 H3          0.1439    3.5329    0.7188 H         1 <0>         0.0729
     11 H4         -1.4500    3.6624    1.5004 H         1 <0>         0.0527
     12 H5         -0.2917    1.5782    2.1810 H         1 <0>         0.0648
     13 H6         -0.4546    0.8512   -0.7777 H         1 <0>         0.0680
     14 H7          1.0365    1.3402    0.0624 H         1 <0>         0.0705
     15 H8          0.2029   -0.1613    0.5302 H         1 <0>         0.0627
     16 H9         -2.6841    1.1952    0.3272 H         1 <0>         0.1244
     17 H10        -2.1033   -0.0240    1.4867 H         1 <0>         0.0980
     18 H11        -5.0009    1.3269    1.5378 H         1 <0>         0.1556
     19 H12        -2.7846    1.9457    4.4354 H         1 <0>         0.4430
     20 H13        -2.2986    0.4583    3.8721 H         1 <0>         0.4412
     21 N1         -2.2985    1.4594    3.6838 N.4       1 <0>        -0.6404
     22 H14        -1.3281    1.7924    3.6420 H         1 <0>         0.4421
@<TRIPOS>BOND
     1    1    2 1
     2    1    9 1
     3    1   10 1
     4    1   11 1
     5    2    3 1
     6    2    4 1
     7    2   12 1
     8    3   13 1
     9    3   14 1
    10    3   15 1
    11    4    5 1
    12    4   16 1
    13    4   17 1
    14    5    6 1
    15    5    7 1
    16    5   21 1
    17    7    8 2
    18    7   18 1
    19   19   21 1
    20   20   21 1
    21   21   22 1
@<TRIPOS>MOLECULE
ZINC06364594
   22    21     0     0     0
SMALL
USER_CHARGES
2-amino-4-methyl-pentanal
@<TRIPOS>ATOM
      1 C1          1.4421    1.7845   -0.0097 C.3       1 <0>        -0.1561
      2 C2         -0.0350    1.3858   -0.0154 C.3       1 <0>        -0.1030
      3 C3         -0.6966    1.8981   -1.2963 C.3       1 <0>        -0.1654
      4 C4         -0.7334    1.9991    1.1999 C.3       1 <0>        -0.1388
      5 C5         -2.1734    1.4872    1.2728 C.3       1 <0>        -0.0217
      6 H1         -2.6411    1.6838    0.4110 H         1 <0>         0.1505
      7 C6         -2.8940    2.1739    2.4042 C.2       1 <0>         0.3389
      8 O1         -3.3542    1.5223    3.3108 O.2       1 <0>        -0.4300
      9 H2          1.9583    1.2781   -0.8253 H         1 <0>         0.0695
     10 H3          1.5278    2.8633   -0.1399 H         1 <0>         0.0678
     11 H4          1.8927    1.4963    0.9400 H         1 <0>         0.0625
     12 H5         -0.1183    0.2998    0.0274 H         1 <0>         0.0658
     13 H6         -0.1990    1.4611   -2.1620 H         1 <0>         0.0724
     14 H7         -1.7490    1.6140   -1.3003 H         1 <0>         0.0525
     15 H8         -0.6133    2.9840   -1.3390 H         1 <0>         0.0717
     16 H9         -0.2004    1.7148    2.1072 H         1 <0>         0.0975
     17 H10        -0.7382    3.0851    1.1065 H         1 <0>         0.1245
     18 H11        -2.9990    3.2488    2.4042 H         1 <0>         0.1546
     19 H12        -1.7780   -0.4545    0.7142 H         1 <0>         0.4412
     20 H13        -1.6678   -0.1911    2.3526 H         1 <0>         0.4411
     21 N1         -2.1911    0.0326    1.5078 N.4       1 <0>        -0.6406
     22 H14        -3.1627   -0.2789    1.6232 H         1 <0>         0.4453
@<TRIPOS>BOND
     1    1    2 1
     2    1    9 1
     3    1   10 1
     4    1   11 1
     5    2    3 1
     6    2    4 1
     7    2   12 1
     8    3   13 1
     9    3   14 1
    10    3   15 1
    11    4    5 1
    12    4   16 1
    13    4   17 1
    14    5    6 1
    15    5    7 1
    16    5   21 1
    17    7    8 2
    18    7   18 1
    19   19   21 1
    20   20   21 1
    21   21   22 1
@<TRIPOS>MOLECULE
ZINC01707645
   23    22     0     0     0
SMALL
USER_CHARGES
[(1S)-1-amino-3-methyl-butyl]phosphonic acid
@<TRIPOS>ATOM
      1 C1          0.0021   -0.0041    0.0020 C.3       1 <0>        -0.1309
      2 C2         -0.0187    1.5258    0.0104 C.3       1 <0>        -0.1416
      3 C3          1.4167    2.0553   -0.0004 C.3       1 <0>        -0.1371
      4 C4         -0.7348    2.0192    1.2692 C.3       1 <0>        -0.0957
      5 C5         -2.2039    1.5947    1.2197 C.3       1 <0>        -0.5645
      6 H1         -2.2665    0.5077    1.1685 H         1 <0>         0.1184
      7 P1         -2.9964    2.3191   -0.2536 P.3       1 <0>         2.1228
      8 O1         -2.8061    3.7868   -0.2448 O.2       1 <0>        -1.1097
      9 H2          0.5123   -0.3556   -0.8948 H         1 <0>         0.0560
     10 H3          0.5293   -0.3651    0.8851 H         1 <0>         0.0288
     11 H4         -1.0205   -0.3814    0.0098 H         1 <0>         0.0533
     12 H5         -0.5459    1.8868   -0.8726 H         1 <0>         0.1562
     13 H6          1.9269    1.7038   -0.8972 H         1 <0>         0.0559
     14 H7          1.4019    3.1452    0.0056 H         1 <0>         0.0535
     15 H8          1.9439    1.6943    0.8826 H         1 <0>         0.0358
     16 H9         -0.2610    1.5861    2.1502 H         1 <0>         0.0395
     17 H10        -0.6722    3.1062    1.3204 H         1 <0>         0.0784
     18 H11        -2.5124    1.6312    3.2549 H         1 <0>         0.3932
     19 H12        -2.8475    3.0741    2.4987 H         1 <0>         0.4276
     20 N1         -2.9150    2.0604    2.4234 N.4       1 <0>        -0.6080
     21 H13        -3.9044    1.7948    2.3549 H         1 <0>         0.4361
     22 O2         -2.3290    1.6993   -1.5813 O.3       1 <0>        -1.1176
     23 O3         -4.5706    1.9819   -0.2367 O.3       1 <0>        -1.1504
@<TRIPOS>BOND
     1    1    2 1
     2    1    9 1
     3    1   10 1
     4    1   11 1
     5    2    3 1
     6    2    4 1
     7    2   12 1
     8    3   13 1
     9    3   14 1
    10    3   15 1
    11    4    5 1
    12    4   16 1
    13    4   17 1
    14    5    6 1
    15    5    7 1
    16    5   20 1
    17    7    8 2
    18    7   22 1
    19    7   23 1
    20   18   20 1
    21   19   20 1
    22   20   21 1
