@<TRIPOS>MOLECULE
ZINC28112619
   18    19     0     0     0
SMALL
USER_CHARGES
N-thiazol-2-ylthiazole-4-carboxamide
@<TRIPOS>ATOM
      1 C1          2.1821    1.0808   -0.0130 C.2       1 <0>         0.0586
      2 C2          1.7767   -0.2125   -0.0160 C.2       1 <0>        -0.2329
      3 S1          0.0021   -0.0041    0.0020 S.3       1 <0>         0.0517
      4 C3         -0.0215    1.7323    0.0116 C.2       1 <0>         0.3121
      5 N1          1.2640    2.0274    0.0009 N.2       1 <0>        -0.5210
      6 N2         -1.1138    2.5902    0.0217 N.am      1 <0>        -0.6201
      7 C4         -0.9228    3.9244    0.0280 C.2       1 <0>         0.5936
      8 O1          0.2061    4.3771    0.0248 O.2       1 <0>        -0.4675
      9 C5         -2.0806    4.8337    0.0387 C.2       1 <0>        -0.0119
     10 C6         -1.9154    6.1956    0.0506 C.2       1 <0>        -0.1605
     11 S2         -3.5616    6.7440    0.0572 S.3       1 <0>         0.1515
     12 C7         -4.3394    5.1942    0.0529 C.2       1 <0>         0.0512
     13 N3         -3.3291    4.3639    0.0429 N.2       1 <0>        -0.4855
     14 H1          3.2329    1.3304   -0.0217 H         1 <0>         0.1733
     15 H2          2.3640   -1.1187   -0.0268 H         1 <0>         0.2001
     16 H3         -2.1347    2.1807    0.0246 H         1 <0>         0.4641
     17 H4         -1.0029    6.7732    0.0535 H         1 <0>         0.2112
     18 H5         -5.3959    4.9703    0.0577 H         1 <0>         0.2320
@<TRIPOS>BOND
     1    1    5 1
     2    1    2 2
     3    1   14 1
     4    2    3 1
     5    2   15 1
     6    3    4 1
     7    4    5 2
     8    4    6 1
     9    6    7 am
    10    6   16 1
    11    7    8 2
    12    7    9 1
    13    9   13 1
    14    9   10 2
    15   10   11 1
    16   10   17 1
    17   11   12 1
    18   12   13 2
    19   12   18 1
@<TRIPOS>MOLECULE
ZINC13521891
   21    22     0     0     0
SMALL
USER_CHARGES

@<TRIPOS>ATOM
      1 C1         -0.0167    1.3830    0.0096 C.ar      1 <0>        -0.1028
      2 C2         -1.2306    2.0468    0.0190 C.ar      1 <0>        -0.2227
      3 C3         -2.4003    1.2905    0.0205 C.ar      1 <0>         0.2746
      4 C4         -2.3034   -0.1056    0.0124 C.ar      1 <0>        -0.1127
      5 N1         -1.1141   -0.6975    0.0040 N.ar      1 <0>        -0.4237
      6 C5          0.0021   -0.0041    0.0020 C.ar      1 <0>        -0.0474
      7 C6         -3.5321   -0.9268    0.0138 C.2       1 <0>         0.5729
      8 O1         -4.6224   -0.3892    0.0219 O.2       1 <0>        -0.4464
      9 N2         -3.4438   -2.2716    0.0061 N.am      1 <0>        -0.6187
     10 C7         -4.5985   -3.0433    0.0074 C.2       1 <0>         0.3118
     11 N3         -5.8510   -2.6406    0.0097 N.2       1 <0>        -0.5375
     12 C8         -6.8464   -3.5076    0.0100 C.2       1 <0>         0.0760
     13 C9         -6.5178   -4.8230    0.0077 C.2       1 <0>        -0.2756
     14 S1         -4.7353   -4.7207   -0.0011 S.3       1 <0>         0.0648
     15 O2         -3.6135    1.8973    0.0300 O.3       1 <0>        -0.6555
     16 H1          0.9085    1.9401    0.0038 H         1 <0>         0.1089
     17 H2         -1.2703    3.1260    0.0254 H         1 <0>         0.1134
     18 H3          0.9495   -0.5225   -0.0098 H         1 <0>         0.1327
     19 H4         -2.5738   -2.7005   -0.0004 H         1 <0>         0.4273
     20 H5         -7.8767   -3.1836    0.0122 H         1 <0>         0.1690
     21 H6         -7.1579   -5.6929    0.0075 H         1 <0>         0.1916
@<TRIPOS>BOND
     1    1    6 ar
     2    1   16 1
     3    1    2 ar
     4    2    3 ar
     5    2   17 1
     6    3   15 1
     7    3    4 ar
     8    4    7 1
     9    4    5 ar
    10    5    6 ar
    11    6   18 1
    12    7    8 2
    13    7    9 am
    14    9   10 1
    15    9   19 1
    16   10   14 1
    17   10   11 2
    18   11   12 1
    19   12   13 2
    20   12   20 1
    21   13   14 1
    22   13   21 1
@<TRIPOS>MOLECULE
ZINC13521891
   22    23     0     0     0
SMALL
USER_CHARGES

@<TRIPOS>ATOM
      1 C1         -0.0167    1.3830    0.0096 C.ar      1 <0>        -0.1021
      2 C2         -1.2306    2.0468    0.0190 C.ar      1 <0>        -0.1055
      3 C3         -2.4003    1.2905    0.0205 C.ar      1 <0>         0.2943
      4 C4         -2.3034   -0.1056    0.0124 C.ar      1 <0>        -0.1090
      5 N1         -1.1141   -0.6975    0.0040 N.ar      1 <0>        -0.3745
      6 C5          0.0021   -0.0041    0.0020 C.ar      1 <0>         0.0325
      7 C6         -3.5321   -0.9268    0.0138 C.2       1 <0>         0.5533
      8 O1         -4.6224   -0.3892    0.0219 O.2       1 <0>        -0.3971
      9 N2         -3.4438   -2.2716    0.0061 N.am      1 <0>        -0.6339
     10 C7         -4.5985   -3.0433    0.0074 C.2       1 <0>         0.2725
     11 N3         -5.8510   -2.6406    0.0097 N.2       1 <0>        -0.5176
     12 C8         -6.8464   -3.5076    0.0100 C.2       1 <0>         0.0651
     13 C9         -6.5178   -4.8230    0.0077 C.2       1 <0>        -0.2392
     14 S1         -4.7353   -4.7207   -0.0011 S.3       1 <0>         0.1057
     15 O2         -3.6135    1.8973    0.0300 O.3       1 <0>        -0.5652
     16 H1          0.9085    1.9401    0.0038 H         1 <0>         0.1640
     17 H2         -1.2703    3.1260    0.0254 H         1 <0>         0.1564
     18 H3          0.9495   -0.5225   -0.0098 H         1 <0>         0.1894
     19 H4         -2.5738   -2.7005   -0.0004 H         1 <0>         0.4102
     20 H5         -7.8767   -3.1836    0.0122 H         1 <0>         0.1792
     21 H6         -7.1579   -5.6929    0.0075 H         1 <0>         0.2018
     22 H7         -1.0685   -1.6664   -0.0008 H         1 <0>         0.4199
@<TRIPOS>BOND
     1    1    6 ar
     2    1   16 1
     3    1    2 ar
     4    2    3 ar
     5    2   17 1
     6    3   15 1
     7    3    4 ar
     8    4    7 1
     9    4    5 ar
    10    5   22 1
    11    5    6 ar
    12    6   18 1
    13    7    8 2
    14    7    9 am
    15    9   10 1
    16    9   19 1
    17   10   14 1
    18   10   11 2
    19   11   12 1
    20   12   13 2
    21   12   20 1
    22   13   14 1
    23   13   21 1
@<TRIPOS>MOLECULE
ZINC13521891
   22    23     0     0     0
SMALL
USER_CHARGES

@<TRIPOS>ATOM
      1 C1         -0.0167    1.3830    0.0096 C.ar      1 <0>        -0.1235
      2 C2         -1.2306    2.0468    0.0190 C.ar      1 <0>        -0.1095
      3 C3         -2.4003    1.2905    0.0205 C.ar      1 <0>         0.1306
      4 C4         -2.3034   -0.1056    0.0124 C.ar      1 <0>         0.0437
      5 N1         -1.1141   -0.6975    0.0040 N.ar      1 <0>        -0.4456
      6 C5          0.0021   -0.0041    0.0020 C.ar      1 <0>         0.0919
      7 C6         -3.5321   -0.9268    0.0138 C.2       1 <0>         0.5682
      8 O1         -4.6224   -0.3892    0.0219 O.2       1 <0>        -0.4442
      9 N2         -3.4438   -2.2716    0.0061 N.am      1 <0>        -0.6079
     10 C7         -4.5985   -3.0433    0.0074 C.2       1 <0>         0.2715
     11 N3         -5.8510   -2.6406    0.0097 N.2       1 <0>        -0.5242
     12 C8         -6.8464   -3.5076    0.0100 C.2       1 <0>         0.0632
     13 C9         -6.5178   -4.8230    0.0077 C.2       1 <0>        -0.2453
     14 S1         -4.7353   -4.7207   -0.0011 S.3       1 <0>         0.1134
     15 O2         -3.6135    1.8973    0.0300 O.3       1 <0>        -0.4702
     16 H1          0.9085    1.9401    0.0038 H         1 <0>         0.1497
     17 H2         -1.2703    3.1260    0.0254 H         1 <0>         0.1526
     18 H3          0.9495   -0.5225   -0.0098 H         1 <0>         0.1715
     19 H4         -2.5738   -2.7005   -0.0004 H         1 <0>         0.4349
     20 H5         -7.8767   -3.1836    0.0122 H         1 <0>         0.1770
     21 H6         -7.1579   -5.6929    0.0075 H         1 <0>         0.2002
     22 H7         -3.9696    2.0783   -0.8506 H         1 <0>         0.4019
@<TRIPOS>BOND
     1    1    6 ar
     2    1   16 1
     3    1    2 ar
     4    2    3 ar
     5    2   17 1
     6    3   15 1
     7    3    4 ar
     8    4    7 1
     9    4    5 ar
    10    5    6 ar
    11    6   18 1
    12    7    8 2
    13    7    9 am
    14    9   10 1
    15    9   19 1
    16   10   14 1
    17   10   11 2
    18   11   12 1
    19   12   13 2
    20   12   20 1
    21   13   14 1
    22   13   21 1
    23   15   22 1
@<TRIPOS>MOLECULE
ZINC28349959
   23    24     0     0     0
SMALL
USER_CHARGES
5-amino-N-thiazol-2-yl-pyridine-2-carboxamide
@<TRIPOS>ATOM
      1 C1         -2.4276    0.9397    0.0187 C.ar      1 <0>        -0.1790
      2 C2         -3.6102    1.6556    0.0287 C.ar      1 <0>        -0.0443
      3 C3         -3.5608    3.0500    0.0365 C.ar      1 <0>        -0.0020
      4 N1         -2.3951    3.6880    0.0348 N.ar      1 <0>        -0.4172
      5 C4         -1.2534    3.0394    0.0304 C.ar      1 <0>         0.0236
      6 C5         -1.2248    1.6448    0.0168 C.ar      1 <0>         0.2114
      7 N2         -0.0111    0.9658    0.0074 N.pl3     1 <0>        -0.8775
      8 C6         -4.8185    3.8258    0.0472 C.2       1 <0>         0.5809
      9 O1         -5.8886    3.2489    0.0491 O.2       1 <0>        -0.4744
     10 N3         -4.7792    5.1730    0.0548 N.am      1 <0>        -0.6216
     11 C7         -5.9612    5.9021    0.0648 C.2       1 <0>         0.3166
     12 N4         -7.2053    5.4639    0.0626 N.2       1 <0>        -0.5227
     13 C8         -8.2243    6.3006    0.0783 C.2       1 <0>         0.0599
     14 C9         -7.9673    7.6316    0.0848 C.2       1 <0>        -0.2363
     15 S1         -6.1805    7.6247    0.0759 S.3       1 <0>         0.0459
     16 H1         -2.4352   -0.1402    0.0128 H         1 <0>         0.1406
     17 H2         -4.5604    1.1421    0.0300 H         1 <0>         0.1479
     18 H3         -0.3257    3.5922    0.0331 H         1 <0>         0.1608
     19 H4          0.9340    1.5286    0.0060 H         1 <0>         0.4267
     20 H5          0.0038   -0.1341    0.0014 H         1 <0>         0.4260
     21 H6         -3.8110    5.6950    0.0531 H         1 <0>         0.4636
     22 H7         -9.2402    5.9341    0.0813 H         1 <0>         0.1722
     23 H8         -8.6531    8.4658    0.0927 H         1 <0>         0.1989
@<TRIPOS>BOND
     1    1    6 ar
     2    1    2 ar
     3    1   16 1
     4    2    3 ar
     5    2   17 1
     6    3    4 ar
     7    3    8 1
     8    4    5 ar
     9    5    6 ar
    10    5   18 1
    11    6    7 1
    12    7   19 1
    13    7   20 1
    14    8    9 2
    15    8   10 am
    16   10   11 1
    17   10   21 1
    18   11   15 1
    19   11   12 2
    20   12   13 1
    21   13   14 2
    22   13   22 1
    23   14   15 1
    24   14   23 1
@<TRIPOS>MOLECULE
ZINC00777985
   21    22     0     0     0
SMALL
USER_CHARGES

@<TRIPOS>ATOM
      1 C1         -0.0167    1.3815    0.0096 C.ar      1 <0>        -0.0782
      2 C2          1.1926    2.0594    0.0017 C.ar      1 <0>        -0.1426
      3 C3          2.3755    1.3381   -0.0134 C.ar      1 <0>         0.1016
      4 N1          2.3648    0.0229   -0.0204 N.ar      1 <0>        -0.4631
      5 C4          1.2291   -0.6642   -0.0132 C.ar      1 <0>         0.0754
      6 C5          0.0021   -0.0041    0.0020 C.ar      1 <0>        -0.1043
      7 C6          1.2665   -2.1448   -0.0220 C.2       1 <0>         0.5711
      8 O1          0.2297   -2.7788   -0.0156 O.2       1 <0>        -0.4593
      9 N2          2.4502   -2.7889   -0.0373 N.am      1 <0>        -0.6064
     10 C7          2.4853   -4.1772   -0.0455 C.2       1 <0>         0.2695
     11 N3          1.4754   -5.0205   -0.0463 N.2       1 <0>        -0.5241
     12 C8          1.6761   -6.3252   -0.0552 C.2       1 <0>         0.0627
     13 C9          2.9635   -6.7506   -0.0634 C.2       1 <0>        -0.2445
     14 S1          3.8298   -5.1894   -0.0644 S.3       1 <0>         0.1158
     15 H1         -0.9521    1.9211    0.0259 H         1 <0>         0.1472
     16 H2          1.2124    3.1392    0.0070 H         1 <0>         0.1455
     17 H3          3.3193    1.8630   -0.0200 H         1 <0>         0.1680
     18 H4         -0.9212   -0.5644    0.0082 H         1 <0>         0.1516
     19 H5          3.2777   -2.2828   -0.0424 H         1 <0>         0.4361
     20 H6          0.8516   -7.0227   -0.0555 H         1 <0>         0.1773
     21 H7          3.3565   -7.7565   -0.0713 H         1 <0>         0.2005
@<TRIPOS>BOND
     1    1    6 ar
     2    1    2 ar
     3    1   15 1
     4    2    3 ar
     5    2   16 1
     6    3    4 ar
     7    3   17 1
     8    4    5 ar
     9    5    6 ar
    10    5    7 1
    11    6   18 1
    12    7    8 2
    13    7    9 am
    14    9   10 1
    15    9   19 1
    16   10   14 1
    17   10   11 2
    18   11   12 1
    19   12   13 2
    20   12   20 1
    21   13   14 1
    22   13   21 1
@<TRIPOS>MOLECULE
ZINC13521829
   25    26     0     0     0
SMALL
USER_CHARGES
3-formamido-N-thiazol-2-yl-pyridine-2-carboxamide
@<TRIPOS>ATOM
      1 C1          0.3432    1.1011   -0.0640 C.ar      1 <0>        -0.1139
      2 C2          1.4553    1.9232   -0.0394 C.ar      1 <0>        -0.0992
      3 C3          1.2600    3.3029    0.0078 C.ar      1 <0>         0.1732
      4 C4         -0.0492    3.8007    0.0285 C.ar      1 <0>         0.0271
      5 N1         -1.0850    2.9696    0.0035 N.ar      1 <0>        -0.4392
      6 C5         -0.9237    1.6664   -0.0469 C.ar      1 <0>         0.0806
      7 C6         -0.2793    5.2595    0.0781 C.2       1 <0>         0.5833
      8 O1          0.6614    6.0261    0.0051 O.2       1 <0>        -0.4749
      9 N2         -1.5321    5.7402    0.2042 N.am      1 <0>        -0.6000
     10 C7         -1.7485    7.1112    0.2507 C.2       1 <0>         0.2994
     11 N3         -0.8679    8.0915    0.1933 N.2       1 <0>        -0.5141
     12 C8         -1.2461    9.3536    0.2470 C.2       1 <0>         0.0560
     13 C9         -2.5676    9.6270    0.3755 C.2       1 <0>        -0.2281
     14 S1         -3.2470    7.9746    0.4071 S.3       1 <0>         0.0651
     15 N4          2.3484    4.1717    0.0336 N.am      1 <0>        -0.6633
     16 C10         3.5332    3.7829   -0.4779 C.2       1 <0>         0.4948
     17 O2          3.6270    2.7165   -1.0478 O.2       1 <0>        -0.5315
     18 H1          0.4601    0.0281   -0.1006 H         1 <0>         0.1494
     19 H2          2.4514    1.5062   -0.0561 H         1 <0>         0.1656
     20 H3         -1.7919    1.0244   -0.0706 H         1 <0>         0.1701
     21 H4         -2.2827    5.1285    0.2624 H         1 <0>         0.4384
     22 H5         -0.5195   10.1508    0.1949 H         1 <0>         0.1751
     23 H6         -3.0709   10.5803    0.4411 H         1 <0>         0.2015
     24 H7          2.2537    5.0565    0.4196 H         1 <0>         0.4295
     25 H8          4.3990    4.4211   -0.3804 H         1 <0>         0.1551
@<TRIPOS>BOND
     1    1    6 ar
     2    1    2 ar
     3    1   18 1
     4    2    3 ar
     5    2   19 1
     6    3    4 ar
     7    3   15 1
     8    4    5 ar
     9    4    7 1
    10    5    6 ar
    11    6   20 1
    12    7    8 2
    13    7    9 am
    14    9   10 1
    15    9   21 1
    16   10   14 1
    17   10   11 2
    18   11   12 1
    19   12   13 2
    20   12   22 1
    21   13   14 1
    22   13   23 1
    23   15   16 am
    24   15   24 1
    25   16   17 2
    26   16   25 1
