@<TRIPOS>MOLECULE
ZINC13819928
   40    42     0     0     0
SMALL
USER_CHARGES
1-[(5R)-3-(2-hydroxyphenyl)-5-(m-tolyl)-4,5-dihydropyrazol-1-yl]ethanone
@<TRIPOS>ATOM
      1 C1          3.7112   -0.7073   -0.0378 C.3       1 <0>        -0.1155
      2 C2          2.3961    0.0283   -0.0212 C.ar      1 <0>        -0.0827
      3 C3          2.3773    1.4107   -0.0141 C.ar      1 <0>        -0.1153
      4 C4          1.1711    2.0854    0.0021 C.ar      1 <0>        -0.1130
      5 C5         -0.0167    1.3779    0.0096 C.ar      1 <0>        -0.1076
      6 C6          0.0021   -0.0041    0.0020 C.ar      1 <0>        -0.0866
      7 C7          1.2086   -0.6790   -0.0136 C.ar      1 <0>        -0.1008
      8 C8         -1.2926   -0.7753    0.0103 C.3       1 <0>         0.1483
      9 H1         -1.1293   -1.8003   -0.3226 H         1 <0>         0.1013
     10 C9         -1.9289   -0.7521    1.4142 C.3       1 <0>        -0.1242
     11 C10        -3.2557   -0.0590    1.2014 C.2       1 <0>         0.1354
     12 N1         -3.3815    0.2577   -0.0411 N.2       1 <0>        -0.2135
     13 N2         -2.2970   -0.1101   -0.8349 N.am      1 <0>        -0.4682
     14 C11        -2.1861    0.1073   -2.1604 C.2       1 <0>         0.5499
     15 O1         -1.1930   -0.2574   -2.7539 O.2       1 <0>        -0.5166
     16 C12        -3.2960    0.8035   -2.9051 C.3       1 <0>        -0.1592
     17 C13        -4.2518    0.2122    2.2532 C.ar      1 <0>        -0.0641
     18 C14        -4.0084   -0.1845    3.5701 C.ar      1 <0>        -0.0741
     19 C15        -4.9424    0.0769    4.5504 C.ar      1 <0>        -0.1305
     20 C16        -6.1259    0.7214    4.2330 C.ar      1 <0>        -0.0848
     21 C17        -6.3811    1.1139    2.9326 C.ar      1 <0>        -0.1495
     22 C18        -5.4513    0.8643    1.9365 C.ar      1 <0>         0.1454
     23 O2         -5.7012    1.2496    0.6584 O.3       1 <0>        -0.4799
     24 H2          4.0184   -0.8792   -1.0694 H         1 <0>         0.0720
     25 H3          4.4677   -0.1107    0.4720 H         1 <0>         0.0675
     26 H4          3.5987   -1.6642    0.4720 H         1 <0>         0.0670
     27 H5          3.3052    1.9634   -0.0204 H         1 <0>         0.1234
     28 H6          1.1565    3.1653    0.0081 H         1 <0>         0.1230
     29 H7         -0.9592    1.9051    0.0170 H         1 <0>         0.1136
     30 H8          1.2233   -1.7589   -0.0196 H         1 <0>         0.1226
     31 H9         -2.0822   -1.7669    1.7813 H         1 <0>         0.1079
     32 H10        -1.3074   -0.1839    2.1063 H         1 <0>         0.1072
     33 H11        -3.4458    1.7988   -2.4866 H         1 <0>         0.0936
     34 H12        -3.0290    0.8888   -3.9585 H         1 <0>         0.0913
     35 H13        -4.2158    0.2267   -2.8089 H         1 <0>         0.0922
     36 H14        -3.0884   -0.6915    3.8210 H         1 <0>         0.1329
     37 H15        -4.7516   -0.2261    5.5694 H         1 <0>         0.1325
     38 H16        -6.8537    0.9190    5.0061 H         1 <0>         0.1315
     39 H17        -7.3066    1.6162    2.6928 H         1 <0>         0.1349
     40 H18        -6.1554    0.5809    0.1277 H         1 <0>         0.3927
@<TRIPOS>BOND
     1    1    2 1
     2    1   24 1
     3    1   25 1
     4    1   26 1
     5    2    7 ar
     6    2    3 ar
     7    3    4 ar
     8    3   27 1
     9    4    5 ar
    10    4   28 1
    11    5    6 ar
    12    5   29 1
    13    6    7 ar
    14    6    8 1
    15    7   30 1
    16    8    9 1
    17    8   13 1
    18    8   10 1
    19   10   11 1
    20   10   31 1
    21   10   32 1
    22   11   12 2
    23   11   17 1
    24   12   13 1
    25   13   14 am
    26   14   15 2
    27   14   16 1
    28   16   33 1
    29   16   34 1
    30   16   35 1
    31   17   22 ar
    32   17   18 ar
    33   18   19 ar
    34   18   36 1
    35   19   20 ar
    36   19   37 1
    37   20   21 ar
    38   20   38 1
    39   21   22 ar
    40   21   39 1
    41   22   23 1
    42   23   40 1
@<TRIPOS>MOLECULE
ZINC13819930
   40    42     0     0     0
SMALL
USER_CHARGES
1-[(5S)-3-(2-hydroxyphenyl)-5-(m-tolyl)-4,5-dihydropyrazol-1-yl]ethanone
@<TRIPOS>ATOM
      1 C1          1.2290   -2.1858   -0.0219 C.3       1 <0>        -0.1158
      2 C2          1.2086   -0.6790   -0.0136 C.ar      1 <0>        -0.0819
      3 C3          0.0021   -0.0041    0.0020 C.ar      1 <0>        -0.1158
      4 C4         -0.0167    1.3779    0.0096 C.ar      1 <0>        -0.1129
      5 C5          1.1711    2.0854    0.0021 C.ar      1 <0>        -0.1079
      6 C6          2.3773    1.4107   -0.0141 C.ar      1 <0>        -0.0851
      7 C7          2.3961    0.0283   -0.0212 C.ar      1 <0>        -0.1018
      8 C8          3.6720    2.1819   -0.0223 C.3       1 <0>         0.1473
      9 H1          4.4857    1.5591   -0.3940 H         1 <0>         0.1009
     10 C9          3.9960    2.7131    1.3880 C.3       1 <0>        -0.1233
     11 C10         4.0109    4.2184    1.2119 C.2       1 <0>         0.1357
     12 N1          3.7578    4.5112   -0.0170 N.2       1 <0>        -0.2142
     13 N2          3.5423    3.4028   -0.8335 N.am      1 <0>        -0.4673
     14 C11         3.2607    3.4425   -2.1509 C.2       1 <0>         0.5503
     15 O1          3.0907    2.4109   -2.7662 O.2       1 <0>        -0.5174
     16 C12         3.1569    4.7684   -2.8596 C.3       1 <0>        -0.1619
     17 C13         4.2760    5.1966    2.2819 C.ar      1 <0>        -0.0640
     18 C14         4.5397    4.7606    3.5824 C.ar      1 <0>        -0.0740
     19 C15         4.7870    5.6811    4.5790 C.ar      1 <0>        -0.1304
     20 C16         4.7745    7.0364    4.2963 C.ar      1 <0>        -0.0846
     21 C17         4.5153    7.4804    3.0135 C.ar      1 <0>        -0.1495
     22 C18         4.2706    6.5692    1.9991 C.ar      1 <0>         0.1454
     23 O2          4.0209    7.0045    0.7371 O.3       1 <0>        -0.4797
     24 H2          1.2237   -2.5436   -1.0515 H         1 <0>         0.0721
     25 H3          2.1290   -2.5397    0.4811 H         1 <0>         0.0671
     26 H4          0.3492   -2.5640    0.4987 H         1 <0>         0.0676
     27 H5         -0.9258   -0.5567    0.0079 H         1 <0>         0.1234
     28 H6         -0.9592    1.9051    0.0170 H         1 <0>         0.1228
     29 H7          1.1565    3.1653    0.0081 H         1 <0>         0.1129
     30 H8          3.3386   -0.4989   -0.0331 H         1 <0>         0.1228
     31 H9          3.2210    2.4177    2.0953 H         1 <0>         0.1076
     32 H10         4.9716    2.3549    1.7167 H         1 <0>         0.1077
     33 H11         4.1359    5.0514   -3.2463 H         1 <0>         0.0966
     34 H12         2.4504    4.6846   -3.6855 H         1 <0>         0.0926
     35 H13         2.8092    5.5283   -2.1598 H         1 <0>         0.0906
     36 H14         4.5497    3.7043    3.8072 H         1 <0>         0.1330
     37 H15         4.9908    5.3433    5.5844 H         1 <0>         0.1325
     38 H16         4.9688    7.7506    5.0827 H         1 <0>         0.1315
     39 H17         4.5076    8.5392    2.8007 H         1 <0>         0.1349
     40 H18         3.0850    7.1647    0.5543 H         1 <0>         0.3922
@<TRIPOS>BOND
     1    1    2 1
     2    1   24 1
     3    1   25 1
     4    1   26 1
     5    2    7 ar
     6    2    3 ar
     7    3    4 ar
     8    3   27 1
     9    4    5 ar
    10    4   28 1
    11    5    6 ar
    12    5   29 1
    13    6    7 ar
    14    6    8 1
    15    7   30 1
    16    8    9 1
    17    8   13 1
    18    8   10 1
    19   10   11 1
    20   10   31 1
    21   10   32 1
    22   11   12 2
    23   11   17 1
    24   12   13 1
    25   13   14 am
    26   14   15 2
    27   14   16 1
    28   16   33 1
    29   16   34 1
    30   16   35 1
    31   17   22 ar
    32   17   18 ar
    33   18   19 ar
    34   18   36 1
    35   19   20 ar
    36   19   37 1
    37   20   21 ar
    38   20   38 1
    39   21   22 ar
    40   21   39 1
    41   22   23 1
    42   23   40 1
@<TRIPOS>MOLECULE
ZINC13493579
   30    31     0     0     0
SMALL
USER_CHARGES
N-[(4-fluorophenyl)methyl]-1-methyl-pyrrole-2-carboxamide
@<TRIPOS>ATOM
      1 C1          2.4182    1.2294   -0.0291 C.3       1 <0>         0.0633
      2 N1          1.0550    1.7653   -0.0069 N.pl3     1 <0>        -0.4101
      3 C2         -0.0837    1.0303   -0.0223 C.2       1 <0>         0.0180
      4 C3         -1.1469    1.8691    0.0047 C.2       1 <0>        -0.2071
      5 C4         -0.6591    3.1789    0.0469 C.2       1 <0>        -0.1391
      6 C5          0.7173    3.0990    0.0392 C.2       1 <0>        -0.0584
      7 C6          1.6516    4.2292    0.0738 C.2       1 <0>         0.5915
      8 O1          2.8479    4.0270    0.1676 O.2       1 <0>        -0.5476
      9 N2          1.1851    5.4916    0.0016 N.am      1 <0>        -0.7170
     10 C7          2.1218    6.6152   -0.0771 C.3       1 <0>         0.1661
     11 C8          1.3506    7.9080   -0.1478 C.ar      1 <0>        -0.1241
     12 C9          0.9894    8.4305   -1.3757 C.ar      1 <0>        -0.0689
     13 C10         0.2780    9.6135   -1.4416 C.ar      1 <0>        -0.1553
     14 C11        -0.0637   10.2809   -0.2777 C.ar      1 <0>         0.1093
     15 C12         0.3032    9.7595    0.9513 C.ar      1 <0>        -0.1553
     16 C13         1.0100    8.5736    1.0150 C.ar      1 <0>        -0.0689
     17 F1         -0.7550   11.4399   -0.3411 F         1 <0>        -0.1365
     18 H1          2.7338    0.9966    0.9879 H         1 <0>         0.0773
     19 H2          2.4423    0.3226   -0.6335 H         1 <0>         0.0831
     20 H3          3.0929    1.9701   -0.4583 H         1 <0>         0.1037
     21 H4         -0.1349   -0.0480   -0.0535 H         1 <0>         0.1705
     22 H5         -2.1869    1.5778   -0.0007 H         1 <0>         0.1442
     23 H6         -1.2492    4.0828    0.0795 H         1 <0>         0.1430
     24 H7          0.2292    5.6561    0.0018 H         1 <0>         0.4052
     25 H8          2.7587    6.6200    0.8075 H         1 <0>         0.0819
     26 H9          2.7396    6.5114   -0.9691 H         1 <0>         0.0806
     27 H10         1.2596    7.9118   -2.2837 H         1 <0>         0.1361
     28 H11        -0.0077   10.0193   -2.4009 H         1 <0>         0.1392
     29 H12         0.0369   10.2791    1.8599 H         1 <0>         0.1392
     30 H13         1.2960    8.1665    1.9736 H         1 <0>         0.1362
@<TRIPOS>BOND
     1    1    2 1
     2    1   18 1
     3    1   19 1
     4    1   20 1
     5    2    6 1
     6    2    3 1
     7    3    4 2
     8    3   21 1
     9    4    5 1
    10    4   22 1
    11    5    6 2
    12    5   23 1
    13    6    7 1
    14    7    8 2
    15    7    9 am
    16    9   10 1
    17    9   24 1
    18   10   11 1
    19   10   25 1
    20   10   26 1
    21   11   16 ar
    22   11   12 ar
    23   12   13 ar
    24   12   27 1
    25   13   14 ar
    26   13   28 1
    27   14   15 ar
    28   14   17 1
    29   15   16 ar
    30   15   29 1
    31   16   30 1
@<TRIPOS>MOLECULE
ZINC13493583
   23    23     0     0     0
SMALL
USER_CHARGES

@<TRIPOS>ATOM
      1 C1         -0.0178    1.4648    0.0101 C.3       1 <0>         0.0197
      2 N1          0.0021   -0.0041    0.0020 N.3       1 <0>        -0.5347
      3 C2          0.7062   -0.5275    1.1802 C.3       1 <0>         0.1626
      4 C3         -0.0553   -0.1943    2.3951 C.1       1 <0>        -0.1866
      5 C4         -0.6627    0.0715    3.3640 C.1       1 <0>        -0.1893
      6 C5          0.5996   -0.5156   -1.2387 C.3       1 <0>         0.1244
      7 C6         -0.2863   -0.1627   -2.4056 C.2       1 <0>         0.0152
      8 C7         -1.2337   -0.9550   -2.9469 C.2       1 <0>        -0.1737
      9 C8         -1.8220   -0.2426   -4.0106 C.2       1 <0>        -0.2019
     10 C9         -1.2116    0.9579   -4.0788 C.2       1 <0>        -0.0111
     11 N2         -0.2721    1.0151   -3.0924 N.pl3     1 <0>        -0.5592
     12 H1          0.3117    1.7681   -2.9109 H         1 <0>         0.4098
     13 H2          1.0047    1.8421    0.0024 H         1 <0>         0.0271
     14 H3         -0.5450    1.8259   -0.8730 H         1 <0>         0.0688
     15 H4         -0.5280    1.8163    0.9069 H         1 <0>         0.0725
     16 H5          0.8004   -1.6101    1.0960 H         1 <0>         0.1011
     17 H6          1.6983   -0.0800    1.2392 H         1 <0>         0.0594
     18 H7         -1.2059    0.3092    4.2306 H         1 <0>         0.2183
     19 H8          1.5829   -0.0671   -1.3803 H         1 <0>         0.0430
     20 H9          0.7003   -1.5990   -1.1736 H         1 <0>         0.1009
     21 H10        -1.4936   -1.9525   -2.6246 H         1 <0>         0.1351
     22 H11        -2.6157   -0.5936   -4.6535 H         1 <0>         0.1354
     23 H12        -1.4319    1.7408   -4.7894 H         1 <0>         0.1632
@<TRIPOS>BOND
     1    1    2 1
     2    1   13 1
     3    1   14 1
     4    1   15 1
     5    2    3 1
     6    2    6 1
     7    3    4 1
     8    3   16 1
     9    3   17 1
    10    4    5 3
    11    5   18 1
    12    6    7 1
    13    6   19 1
    14    6   20 1
    15    7   11 1
    16    7    8 2
    17    8    9 1
    18    8   21 1
    19    9   10 2
    20    9   22 1
    21   10   11 1
    22   10   23 1
    23   11   12 1
@<TRIPOS>MOLECULE
ZINC14959102
   20    20     0     0     0
SMALL
USER_CHARGES

@<TRIPOS>ATOM
      1 C1          0.0180   -1.1779   -0.0044 C.1       1 <0>        -0.1851
      2 C2          0.0021   -0.0041    0.0020 C.1       1 <0>        -0.1947
      3 C3         -0.0179    1.4678    0.0101 C.3       1 <0>         0.1669
      4 N1          1.3603    1.9762   -0.0003 N.3       1 <0>        -0.6870
      5 C4          1.3795    3.4451    0.0074 C.3       1 <0>         0.1260
      6 C5          2.8068    3.9288   -0.0036 C.2       1 <0>         0.0137
      7 C6          3.5372    4.2614    1.0801 C.2       1 <0>        -0.1908
      8 C7          4.8102    4.6581    0.6251 C.2       1 <0>        -0.2027
      9 C8          4.8092    4.5529   -0.7193 C.2       1 <0>        -0.0096
     10 N2          3.5841    4.1001   -1.1106 N.pl3     1 <0>        -0.5473
     11 H1          3.3100    3.9304   -2.0254 H         1 <0>         0.4145
     12 H2          0.0322   -2.2278   -0.0102 H         1 <0>         0.2190
     13 H3         -0.5451    1.8289   -0.8729 H         1 <0>         0.0959
     14 H4         -0.5281    1.8193    0.9069 H         1 <0>         0.0578
     15 H5          1.8890    1.6036    0.7740 H         1 <0>         0.3512
     16 H6          0.8620    3.8199   -0.8757 H         1 <0>         0.0814
     17 H7          0.8790    3.8103    0.9042 H         1 <0>         0.0584
     18 H8          3.2069    4.2297    2.1078 H         1 <0>         0.1329
     19 H9          5.6351    4.9865    1.2400 H         1 <0>         0.1354
     20 H10         5.6374    4.7834   -1.3730 H         1 <0>         0.1642
@<TRIPOS>BOND
     1    1    2 3
     2    1   12 1
     3    2    3 1
     4    3    4 1
     5    3   13 1
     6    3   14 1
     7    4    5 1
     8    4   15 1
     9    5    6 1
    10    5   16 1
    11    5   17 1
    12    6   10 1
    13    6    7 2
    14    7    8 1
    15    7   18 1
    16    8    9 2
    17    8   19 1
    18    9   10 1
    19    9   20 1
    20   10   11 1
@<TRIPOS>MOLECULE
ZINC14959061
   33    34     0     0     0
SMALL
USER_CHARGES
N-methyl-N-[(1R)-1-phenylethyl]-1H-pyrrole-2-carboxamide
@<TRIPOS>ATOM
      1 C1          0.4262    1.7659   -0.5790 C.3       1 <0>        -0.1587
      2 C2          0.2319    0.2715   -0.3146 C.3       1 <0>         0.1774
      3 H1         -0.8183    0.0741   -0.0994 H         1 <0>         0.1128
      4 C3          1.0730   -0.1435    0.8650 C.ar      1 <0>        -0.0984
      5 C4          0.4658   -0.5869    2.0250 C.ar      1 <0>        -0.1041
      6 C5          1.2375   -0.9717    3.1054 C.ar      1 <0>        -0.1169
      7 C6          2.6161   -0.9044    3.0291 C.ar      1 <0>        -0.1173
      8 C7          3.2231   -0.4561    1.8709 C.ar      1 <0>        -0.1206
      9 C8          2.4516   -0.0754    0.7889 C.ar      1 <0>        -0.1169
     10 N1          0.6396   -0.4908   -1.4974 N.am      1 <0>        -0.6095
     11 C9          1.9688   -0.2862   -2.0783 C.3       1 <0>         0.0520
     12 C10        -0.2082   -1.3803   -2.0511 C.2       1 <0>         0.5933
     13 O1         -1.3459   -1.4795   -1.6307 O.2       1 <0>        -0.5246
     14 C11         0.2404   -2.2286   -3.1604 C.2       1 <0>        -0.0602
     15 C12        -0.5459   -3.0862   -3.9001 C.2       1 <0>        -0.1022
     16 C13         0.2845   -3.6882   -4.8505 C.2       1 <0>        -0.2104
     17 C14         1.5377   -3.2058   -4.6726 C.2       1 <0>         0.0197
     18 N2          1.5243   -2.3180   -3.6486 N.pl3     1 <0>        -0.5479
     19 H2          2.2917   -1.8270   -3.3155 H         1 <0>         0.4191
     20 H3          1.4763    1.9632   -0.7943 H         1 <0>         0.0612
     21 H4         -0.1822    2.0660   -1.4322 H         1 <0>         0.0665
     22 H5          0.1228    2.3330    0.3010 H         1 <0>         0.0750
     23 H6         -0.6113   -0.6359    2.0859 H         1 <0>         0.1248
     24 H7          0.7633   -1.3223    4.0102 H         1 <0>         0.1246
     25 H8          3.2189   -1.2025    3.8741 H         1 <0>         0.1228
     26 H9          4.3002   -0.4035    1.8112 H         1 <0>         0.1225
     27 H10         2.9259    0.2749   -0.1160 H         1 <0>         0.1222
     28 H11         2.6561   -1.0358   -1.6860 H         1 <0>         0.0620
     29 H12         1.9097   -0.3796   -3.1627 H         1 <0>         0.0761
     30 H13         2.3297    0.7089   -1.8184 H         1 <0>         0.0911
     31 H14        -1.6042   -3.2588   -3.7711 H         1 <0>         0.1481
     32 H15        -0.0185   -4.4130   -5.5916 H         1 <0>         0.1446
     33 H16         2.4058   -3.4837   -5.2517 H         1 <0>         0.1720
@<TRIPOS>BOND
     1    1    2 1
     2    1   20 1
     3    1   21 1
     4    1   22 1
     5    2    3 1
     6    2    4 1
     7    2   10 1
     8    4    9 ar
     9    4    5 ar
    10    5    6 ar
    11    5   23 1
    12    6    7 ar
    13    6   24 1
    14    7    8 ar
    15    7   25 1
    16    8    9 ar
    17    8   26 1
    18    9   27 1
    19   10   11 1
    20   10   12 am
    21   11   28 1
    22   11   29 1
    23   11   30 1
    24   12   13 2
    25   12   14 1
    26   14   18 1
    27   14   15 2
    28   15   16 1
    29   15   31 1
    30   16   17 2
    31   16   32 1
    32   17   18 1
    33   17   33 1
    34   18   19 1
@<TRIPOS>MOLECULE
ZINC14959065
   33    34     0     0     0
SMALL
USER_CHARGES
N-methyl-N-[(1S)-1-phenylethyl]-1H-pyrrole-2-carboxamide
@<TRIPOS>ATOM
      1 C1         -3.9663   -0.9455    1.9167 C.3       1 <0>        -0.1590
      2 C2         -3.5922   -1.2656    0.4681 C.3       1 <0>         0.1774
      3 H1         -3.2950   -2.3115    0.3922 H         1 <0>         0.1126
      4 C3         -4.7802   -1.0149   -0.4246 C.ar      1 <0>        -0.0984
      5 C4         -5.3059    0.2589   -0.5342 C.ar      1 <0>        -0.1160
      6 C5         -6.3929    0.4897   -1.3564 C.ar      1 <0>        -0.1208
      7 C6         -6.9602   -0.5552   -2.0617 C.ar      1 <0>        -0.1171
      8 C7         -6.4375   -1.8299   -1.9484 C.ar      1 <0>        -0.1172
      9 C8         -5.3478   -2.0598   -1.1295 C.ar      1 <0>        -0.1033
     10 N1         -2.4787   -0.4099    0.0509 N.am      1 <0>        -0.6083
     11 C9         -2.5800    1.0448    0.1917 C.3       1 <0>         0.0505
     12 C10        -1.3610   -0.9610   -0.4626 C.2       1 <0>         0.5926
     13 O1         -1.2811   -2.1686   -0.5896 O.2       1 <0>        -0.5247
     14 C11        -0.2410   -0.1051   -0.8682 C.2       1 <0>        -0.0595
     15 C12         1.0257   -0.5284   -1.2104 C.2       1 <0>        -0.1028
     16 C13         1.7685    0.6130   -1.5280 C.2       1 <0>        -0.2101
     17 C14         0.9605    1.6897   -1.3776 C.2       1 <0>         0.0189
     18 N2         -0.2633    1.2669   -0.9771 N.pl3     1 <0>        -0.5482
     19 H2         -1.0287    1.8360   -0.8005 H         1 <0>         0.4197
     20 H3         -3.1071   -1.1268    2.5624 H         1 <0>         0.0662
     21 H4         -4.2636    0.1004    1.9927 H         1 <0>         0.0613
     22 H5         -4.7948   -1.5822    2.2272 H         1 <0>         0.0752
     23 H6         -4.8652    1.0745    0.0200 H         1 <0>         0.1217
     24 H7         -6.8010    1.4856   -1.4452 H         1 <0>         0.1225
     25 H8         -7.8115   -0.3755   -2.7015 H         1 <0>         0.1228
     26 H9         -6.8807   -2.6462   -2.4994 H         1 <0>         0.1245
     27 H10        -4.9397   -3.0558   -1.0407 H         1 <0>         0.1248
     28 H11        -2.8983    1.4803   -0.7555 H         1 <0>         0.0627
     29 H12        -3.3094    1.2850    0.9654 H         1 <0>         0.0907
     30 H13        -1.6078    1.4515    0.4701 H         1 <0>         0.0769
     31 H14         1.3778   -1.5492   -1.2300 H         1 <0>         0.1480
     32 H15         2.8028    0.6326   -1.8381 H         1 <0>         0.1446
     33 H16         1.2450    2.7174   -1.5490 H         1 <0>         0.1720
@<TRIPOS>BOND
     1    1    2 1
     2    1   20 1
     3    1   21 1
     4    1   22 1
     5    2    3 1
     6    2    4 1
     7    2   10 1
     8    4    9 ar
     9    4    5 ar
    10    5    6 ar
    11    5   23 1
    12    6    7 ar
    13    6   24 1
    14    7    8 ar
    15    7   25 1
    16    8    9 ar
    17    8   26 1
    18    9   27 1
    19   10   11 1
    20   10   12 am
    21   11   28 1
    22   11   29 1
    23   11   30 1
    24   12   13 2
    25   12   14 1
    26   14   18 1
    27   14   15 2
    28   15   16 1
    29   15   31 1
    30   16   17 2
    31   16   32 1
    32   17   18 1
    33   17   33 1
    34   18   19 1
@<TRIPOS>MOLECULE
ZINC14959026
   33    34     0     0     0
SMALL
USER_CHARGES
N-methyl-N-phenethyl-1H-pyrrole-2-carboxamide
@<TRIPOS>ATOM
      1 C1         -1.5753    0.6206   -1.9132 C.3       1 <0>         0.0565
      2 N1         -0.6522    1.5204   -1.2171 N.am      1 <0>        -0.6192
      3 C2          0.0087    1.0820    0.0147 C.3       1 <0>         0.1231
      4 C3         -0.8582    1.4548    1.2190 C.3       1 <0>        -0.0950
      5 C4         -0.1783    1.0038    2.4861 C.ar      1 <0>        -0.0836
      6 C5         -0.4300   -0.2567    2.9946 C.ar      1 <0>        -0.1173
      7 C6          0.1973   -0.6721    4.1542 C.ar      1 <0>        -0.1192
      8 C7          1.0687    0.1767    4.8108 C.ar      1 <0>        -0.1223
      9 C8          1.3160    1.4394    4.3054 C.ar      1 <0>        -0.1172
     10 C9          0.6927    1.8529    3.1429 C.ar      1 <0>        -0.1123
     11 C10        -0.4111    2.7514   -1.7099 C.2       1 <0>         0.5899
     12 O1          0.3557    3.4988   -1.1317 O.2       1 <0>        -0.5224
     13 C11        -1.0728    3.1903   -2.9431 C.2       1 <0>        -0.0612
     14 C12        -0.7871    4.3336   -3.6588 C.2       1 <0>        -0.1027
     15 C13        -1.6502    4.3561   -4.7588 C.2       1 <0>        -0.2104
     16 C14        -2.4370    3.2555   -4.6922 C.2       1 <0>         0.0190
     17 N2         -2.0962    2.5388   -3.5935 N.pl3     1 <0>        -0.5489
     18 H1         -2.5052    1.7054   -3.3125 H         1 <0>         0.4199
     19 H2         -2.5987    0.8479   -1.6146 H         1 <0>         0.0619
     20 H3         -1.4723    0.7563   -2.9898 H         1 <0>         0.0762
     21 H4         -1.3417   -0.4118   -1.6532 H         1 <0>         0.0878
     22 H5          0.1476    0.0012   -0.0124 H         1 <0>         0.0811
     23 H6          0.9790    1.5711    0.1002 H         1 <0>         0.0900
     24 H7         -0.9972    2.5355    1.2461 H         1 <0>         0.0781
     25 H8         -1.8286    0.9657    1.1335 H         1 <0>         0.0726
     26 H9         -1.1139   -0.9184    2.4838 H         1 <0>         0.1201
     27 H10         0.0038   -1.6585    4.5493 H         1 <0>         0.1220
     28 H11         1.5559   -0.1464    5.7189 H         1 <0>         0.1218
     29 H12         1.9965    2.1027    4.8186 H         1 <0>         0.1230
     30 H13         0.8859    2.8393    2.7481 H         1 <0>         0.1239
     31 H14        -0.0364    5.0713   -3.4169 H         1 <0>         0.1480
     32 H15        -1.6862    5.1181   -5.5233 H         1 <0>         0.1447
     33 H16        -3.2100    2.9923   -5.3991 H         1 <0>         0.1722
@<TRIPOS>BOND
     1    1    2 1
     2    1   19 1
     3    1   20 1
     4    1   21 1
     5    2    3 1
     6    2   11 am
     7    3    4 1
     8    3   22 1
     9    3   23 1
    10    4    5 1
    11    4   24 1
    12    4   25 1
    13    5   10 ar
    14    5    6 ar
    15    6    7 ar
    16    6   26 1
    17    7    8 ar
    18    7   27 1
    19    8    9 ar
    20    8   28 1
    21    9   10 ar
    22    9   29 1
    23   10   30 1
    24   11   12 2
    25   11   13 1
    26   13   17 1
    27   13   14 2
    28   14   15 1
    29   14   31 1
    30   15   16 2
    31   15   32 1
    32   16   17 1
    33   16   33 1
    34   17   18 1
@<TRIPOS>MOLECULE
ZINC14959045
   32    33     0     0     0
SMALL
USER_CHARGES
2-phenyl-N-(1H-pyrrol-2-ylmethyl)ethanamine
@<TRIPOS>ATOM
      1 C1         -3.0787    5.0347   -4.3534 C.ar      1 <0>        -0.1037
      2 C2         -3.6964    4.7720   -3.1449 C.ar      1 <0>        -0.1144
      3 C3         -2.9588    4.2804   -2.0842 C.ar      1 <0>        -0.1105
      4 C4         -1.6035    4.0518   -2.2317 C.ar      1 <0>        -0.1102
      5 C5         -0.9847    4.3199   -3.4385 C.ar      1 <0>        -0.1096
      6 C6         -1.7233    4.8066   -4.5008 C.ar      1 <0>        -0.1140
      7 C7         -0.7993    3.5163   -1.0752 C.3       1 <0>        -0.1003
      8 C8         -0.8017    1.9868   -1.1173 C.3       1 <0>        -0.0030
      9 C9          0.0021   -0.0041    0.0020 C.3       1 <0>         0.0840
     10 C10         0.8136   -0.5019    1.1702 C.2       1 <0>        -0.0885
     11 C11         2.1179   -0.8429    1.1387 C.2       1 <0>        -0.1301
     12 C12         2.4791   -1.2491    2.4385 C.2       1 <0>        -0.2019
     13 C13         1.3797   -1.1489    3.2129 C.2       1 <0>         0.0407
     14 N1          0.3542   -0.6908    2.4399 N.pl3     1 <0>        -0.5537
     15 H1         -0.5523   -0.5261    2.7433 H         1 <0>         0.4192
     16 H2         -3.6550    5.4185   -5.1822 H         1 <0>         0.1300
     17 H3         -4.7552    4.9506   -3.0296 H         1 <0>         0.1295
     18 H4         -3.4414    4.0751   -1.1400 H         1 <0>         0.1235
     19 H5          0.0750    4.1455   -3.5524 H         1 <0>         0.1248
     20 H6         -1.2406    5.0122   -5.4448 H         1 <0>         0.1299
     21 H7         -1.2411    3.8547   -0.1379 H         1 <0>         0.0940
     22 H8          0.2257    3.8801   -1.1460 H         1 <0>         0.0960
     23 H9         -0.3600    1.6485   -2.0545 H         1 <0>         0.1345
     24 H10        -1.8268    1.6230   -1.0465 H         1 <0>         0.1316
     25 H11        -1.0174   -0.3817    0.0806 H         1 <0>         0.1329
     26 H12         0.4494   -0.3563   -0.9275 H         1 <0>         0.1496
     27 H13         2.7669   -0.8085    0.2761 H         1 <0>         0.1483
     28 H14         3.4559   -1.5836    2.7554 H         1 <0>         0.1505
     29 H15         1.3214   -1.3905    4.2639 H         1 <0>         0.1795
     30 N2         -0.0129    1.4709    0.0174 N.4       1 <0>        -0.5214
     31 H16        -0.4316    1.7962    0.8967 H         1 <0>         0.4277
     32 H17         0.9501    1.8201   -0.0529 H         1 <0>         0.4350
@<TRIPOS>BOND
     1    1    6 ar
     2    1    2 ar
     3    1   16 1
     4    2    3 ar
     5    2   17 1
     6    3    4 ar
     7    3   18 1
     8    4    5 ar
     9    4    7 1
    10    5    6 ar
    11    5   19 1
    12    6   20 1
    13    7    8 1
    14    7   21 1
    15    7   22 1
    16    8   23 1
    17    8   24 1
    18    8   30 1
    19    9   10 1
    20    9   25 1
    21    9   26 1
    22    9   30 1
    23   10   14 1
    24   10   11 2
    25   11   12 1
    26   11   27 1
    27   12   13 2
    28   12   28 1
    29   13   14 1
    30   13   29 1
    31   14   15 1
    32   30   31 1
    33   30   32 1
@<TRIPOS>MOLECULE
ZINC01679613
   29    30     0     0     0
SMALL
USER_CHARGES
1-phenyl-N-(1H-pyrrol-2-ylmethyl)methanamine
@<TRIPOS>ATOM
      1 C1         -0.0167    1.3781    0.0096 C.ar      1 <0>        -0.0823
      2 C2          1.1709    2.0855    0.0021 C.ar      1 <0>        -0.1149
      3 C3          2.3773    1.4107   -0.0141 C.ar      1 <0>        -0.0943
      4 C4          2.3960    0.0285   -0.0212 C.ar      1 <0>        -0.1687
      5 C5          1.2084   -0.6789   -0.0136 C.ar      1 <0>        -0.0923
      6 C6          0.0021   -0.0041    0.0020 C.ar      1 <0>        -0.1142
      7 C7          3.7112   -0.7071   -0.0378 C.3       1 <0>         0.0494
      8 C8          5.4064   -1.6554   -1.4834 C.3       1 <0>         0.0826
      9 C9          5.7978   -1.8743   -2.9221 C.2       1 <0>        -0.0876
     10 C10         5.5563   -2.9856   -3.6468 C.2       1 <0>        -0.1305
     11 C11         6.0836   -2.7715   -4.9356 C.2       1 <0>        -0.2019
     12 C12         6.6347   -1.5408   -4.9469 C.2       1 <0>         0.0402
     13 N1          6.4623   -0.9852   -3.7138 N.pl3     1 <0>        -0.5535
     14 H1          6.7626   -0.1031   -3.4444 H         1 <0>         0.4191
     15 H2         -0.9592    1.9054    0.0170 H         1 <0>         0.1363
     16 H3          1.1563    3.1654    0.0081 H         1 <0>         0.1360
     17 H4          3.3051    1.9634   -0.0204 H         1 <0>         0.1302
     18 H5          1.2231   -1.7588   -0.0196 H         1 <0>         0.1324
     19 H6         -0.9258   -0.5567    0.0079 H         1 <0>         0.1368
     20 H7          4.4677   -0.1105    0.4720 H         1 <0>         0.1361
     21 H8          3.5987   -1.6640    0.4720 H         1 <0>         0.1391
     22 H9          6.1746   -1.0653   -0.9836 H         1 <0>         0.1333
     23 H10         5.3056   -2.6188   -0.9836 H         1 <0>         0.1500
     24 H11         5.0496   -3.8753   -3.3031 H         1 <0>         0.1483
     25 H12         6.0555   -3.4670   -5.7614 H         1 <0>         0.1504
     26 H13         7.1280   -1.0757   -5.7876 H         1 <0>         0.1793
     27 N2          4.1196   -0.9356   -1.4367 N.4       1 <0>        -0.5200
     28 H14         4.2200   -0.0311   -1.9122 H         1 <0>         0.4267
     29 H15         3.4015   -1.4944   -1.9122 H         1 <0>         0.4339
@<TRIPOS>BOND
     1    1    6 ar
     2    1    2 ar
     3    1   15 1
     4    2    3 ar
     5    2   16 1
     6    3    4 ar
     7    3   17 1
     8    4    5 ar
     9    4    7 1
    10    5    6 ar
    11    5   18 1
    12    6   19 1
    13    7   20 1
    14    7   21 1
    15    7   27 1
    16    8    9 1
    17    8   22 1
    18    8   23 1
    19    8   27 1
    20    9   13 1
    21    9   10 2
    22   10   11 1
    23   10   24 1
    24   11   12 2
    25   11   25 1
    26   12   13 1
    27   12   26 1
    28   13   14 1
    29   27   28 1
    30   27   29 1
@<TRIPOS>MOLECULE
ZINC01414085
   38    40     0     0     0
SMALL
USER_CHARGES
5-(4-chlorophenyl)-N,N-bis[5-(4-chlorophenyl)-3-(p-tolyl)-4,5-dihydropyrazol-2-yl]-3-(p-tolyl)-4,5-dihydropyrazole-1-carbothioamide
@<TRIPOS>ATOM
      1 C1          2.4893    1.0412   -0.0161 C.3       1 <0>        -0.1229
      2 C2          1.1772    1.7823    0.0004 C.ar      1 <0>        -0.0584
      3 C3         -0.0126    1.0758    0.0080 C.ar      1 <0>        -0.1232
      4 C4         -1.2173    1.7475    0.0173 C.ar      1 <0>        -0.0768
      5 C5         -1.2342    3.1443    0.0303 C.ar      1 <0>        -0.0546
      6 C6         -0.0292    3.8508    0.0221 C.ar      1 <0>        -0.0704
      7 C7          1.1680    3.1659    0.0075 C.ar      1 <0>        -0.1252
      8 C8         -2.5183    3.8695    0.0459 C.2       1 <0>         0.1759
      9 N1         -2.6480    5.1510    0.0527 N.2       1 <0>        -0.2754
     10 N2         -3.9705    5.5894    0.0675 N.pl3     1 <0>        -0.4331
     11 C9         -4.8602    4.4172    0.0711 C.3       1 <0>         0.1672
     12 H1         -5.4714    4.4023    0.9735 H         1 <0>         0.1201
     13 C10        -3.8852    3.2233    0.0499 C.3       1 <0>        -0.1330
     14 C11        -5.7294    4.4073   -1.1600 C.ar      1 <0>        -0.0754
     15 C12        -5.2089    4.8079   -2.3764 C.ar      1 <0>        -0.0901
     16 C13        -6.0040    4.7936   -3.5069 C.ar      1 <0>        -0.1057
     17 C14        -7.3241    4.3890   -3.4188 C.ar      1 <0>        -0.0263
     18 C15        -7.8460    3.9936   -2.2000 C.ar      1 <0>        -0.1043
     19 C16        -7.0483    4.0030   -1.0713 C.ar      1 <0>        -0.0717
     20 Cl1        -8.3251    4.3770   -4.8371 Cl        1 <0>        -0.0688
     21 C17        -4.3697    6.8766    0.0773 C.2       1 <0>         0.6034
     22 S1         -6.0393    7.2550    0.0958 S.2       1 <0>        -0.5974
     23 N3         -3.4546    7.8660    0.0726 N.pl3     1 <0>        -0.7901
     24 H2          2.7958    0.8680   -1.0477 H         1 <0>         0.0766
     25 H3          3.2482    1.6347    0.4937 H         1 <0>         0.0705
     26 H4          2.3728    0.0848    0.4937 H         1 <0>         0.0711
     27 H5          0.0021   -0.0041    0.0020 H         1 <0>         0.1318
     28 H6         -2.1452    1.1949    0.0184 H         1 <0>         0.1318
     29 H7         -0.0350    4.9308    0.0276 H         1 <0>         0.1314
     30 H8          2.1003    3.7109    0.0011 H         1 <0>         0.1299
     31 H9         -4.0284    2.6260   -0.8506 H         1 <0>         0.1174
     32 H10        -4.0156    2.6100    0.9415 H         1 <0>         0.1184
     33 H11        -4.1796    5.1278   -2.4443 H         1 <0>         0.1161
     34 H12        -5.5960    5.1024   -4.4581 H         1 <0>         0.1315
     35 H13        -8.8763    3.6774   -2.1307 H         1 <0>         0.1362
     36 H14        -7.4555    3.6940   -0.1199 H         1 <0>         0.1349
     37 H15        -2.5086    7.6517    0.0621 H         1 <0>         0.4059
     38 H16        -3.7419    8.7925    0.0797 H         1 <0>         0.4329
@<TRIPOS>BOND
     1    1    2 1
     2    1   24 1
     3    1   25 1
     4    1   26 1
     5    2    7 ar
     6    2    3 ar
     7    3    4 ar
     8    3   27 1
     9    4    5 ar
    10    4   28 1
    11    5    6 ar
    12    5    8 1
    13    6    7 ar
    14    6   29 1
    15    7   30 1
    16    8   13 1
    17    8    9 2
    18    9   10 1
    19   10   11 1
    20   10   21 1
    21   11   12 1
    22   11   13 1
    23   11   14 1
    24   13   31 1
    25   13   32 1
    26   14   19 ar
    27   14   15 ar
    28   15   16 ar
    29   15   33 1
    30   16   17 ar
    31   16   34 1
    32   17   18 ar
    33   17   20 1
    34   18   19 ar
    35   18   35 1
    36   19   36 1
    37   21   22 2
    38   21   23 1
    39   23   37 1
    40   23   38 1
@<TRIPOS>MOLECULE
ZINC01414086
   38    40     0     0     0
SMALL
USER_CHARGES
5-(4-chlorophenyl)-N,N-bis[5-(4-chlorophenyl)-3-(p-tolyl)-4,5-dihydropyrazol-2-yl]-3-(p-tolyl)-4,5-dihydropyrazole-1-carbothioamide
@<TRIPOS>ATOM
      1 C1          2.4893    1.0412   -0.0151 C.3       1 <0>        -0.1229
      2 C2          1.1772    1.7823    0.0004 C.ar      1 <0>        -0.0584
      3 C3         -0.0126    1.0758    0.0080 C.ar      1 <0>        -0.1232
      4 C4         -1.2173    1.7475    0.0173 C.ar      1 <0>        -0.0768
      5 C5         -1.2342    3.1443    0.0298 C.ar      1 <0>        -0.0546
      6 C6         -0.0292    3.8508    0.0221 C.ar      1 <0>        -0.0704
      7 C7          1.1680    3.1659    0.0075 C.ar      1 <0>        -0.1252
      8 C8         -2.5183    3.8695    0.0450 C.2       1 <0>         0.1759
      9 N1         -2.6480    5.1510    0.0517 N.2       1 <0>        -0.2754
     10 N2         -3.9705    5.5894    0.0660 N.pl3     1 <0>        -0.4330
     11 C9         -4.8602    4.4172    0.0692 C.3       1 <0>         0.1670
     12 H1         -5.4904    4.4115   -0.8201 H         1 <0>         0.1195
     13 C10        -3.8852    3.2233    0.0484 C.3       1 <0>        -0.1329
     14 C11        -5.7057    4.3966    1.3166 C.ar      1 <0>        -0.0747
     15 C12        -5.1589    4.7760    2.5282 C.ar      1 <0>        -0.0906
     16 C13        -5.9354    4.7627    3.6716 C.ar      1 <0>        -0.1053
     17 C14        -7.2570    4.3588    3.6052 C.ar      1 <0>        -0.0264
     18 C15        -7.8021    3.9738    2.3933 C.ar      1 <0>        -0.1041
     19 C16        -7.0262    3.9930    1.2496 C.ar      1 <0>        -0.0719
     20 Cl1        -8.2307    4.3345    5.0422 Cl        1 <0>        -0.0688
     21 C17        -4.3697    6.8766    0.0757 C.2       1 <0>         0.6034
     22 S1         -6.0393    7.2550    0.0935 S.2       1 <0>        -0.5974
     23 N3         -3.4546    7.8660    0.0713 N.pl3     1 <0>        -0.7901
     24 H2          2.7962    0.8673   -1.0465 H         1 <0>         0.0766
     25 H3          3.2480    1.6350    0.4946 H         1 <0>         0.0705
     26 H4          2.3726    0.0852    0.4953 H         1 <0>         0.0711
     27 H5          0.0021   -0.0041    0.0020 H         1 <0>         0.1318
     28 H6         -2.1452    1.1949    0.0191 H         1 <0>         0.1318
     29 H7         -0.0350    4.9308    0.0272 H         1 <0>         0.1314
     30 H8          2.1003    3.7109    0.0011 H         1 <0>         0.1299
     31 H9         -4.0281    2.6260   -0.8521 H         1 <0>         0.1188
     32 H10        -4.0160    2.6100    0.9399 H         1 <0>         0.1170
     33 H11        -4.1259    5.0870    2.5807 H         1 <0>         0.1162
     34 H12        -5.5093    5.0632    4.6174 H         1 <0>         0.1315
     35 H13        -8.8336    3.6581    2.3409 H         1 <0>         0.1363
     36 H14        -7.4517    3.6928    0.3035 H         1 <0>         0.1349
     37 H15        -2.5086    7.6517    0.0612 H         1 <0>         0.4059
     38 H16        -3.7419    8.7925    0.0783 H         1 <0>         0.4329
@<TRIPOS>BOND
     1    1    2 1
     2    1   24 1
     3    1   25 1
     4    1   26 1
     5    2    7 ar
     6    2    3 ar
     7    3    4 ar
     8    3   27 1
     9    4    5 ar
    10    4   28 1
    11    5    6 ar
    12    5    8 1
    13    6    7 ar
    14    6   29 1
    15    7   30 1
    16    8   13 1
    17    8    9 2
    18    9   10 1
    19   10   11 1
    20   10   21 1
    21   11   12 1
    22   11   13 1
    23   11   14 1
    24   13   31 1
    25   13   32 1
    26   14   19 ar
    27   14   15 ar
    28   15   16 ar
    29   15   33 1
    30   16   17 ar
    31   16   34 1
    32   17   18 ar
    33   17   20 1
    34   18   19 ar
    35   18   35 1
    36   19   36 1
    37   21   22 2
    38   21   23 1
    39   23   37 1
    40   23   38 1
@<TRIPOS>MOLECULE
ZINC13675247
   29    31     0     0     0
SMALL
USER_CHARGES
(5R)-3,5-bis(2-thienyl)-4,5-dihydropyrazole-1-carbothioamide
@<TRIPOS>ATOM
      1 C1          2.2456    4.5468   -2.6300 C.2       1 <0>        -0.1536
      2 C2          1.9352    4.0342   -1.3844 C.2       1 <0>        -0.1198
      3 C3          1.8017    2.6931   -1.2401 C.2       1 <0>        -0.1530
      4 S1          2.1252    2.1095   -2.8960 S.3       1 <0>         0.0466
      5 C4          2.4074    3.6931   -3.6704 C.2       1 <0>        -0.1651
      6 C5          1.4723    1.8999   -0.0018 C.3       1 <0>         0.2169
      7 H1          1.7277    2.4640    0.8953 H         1 <0>         0.1308
      8 C6         -0.0184    1.5078    0.0103 C.3       1 <0>        -0.1323
      9 C7          0.0021   -0.0041    0.0020 C.2       1 <0>         0.2129
     10 N1          1.2249   -0.4180   -0.0119 N.2       1 <0>        -0.2621
     11 N2          2.1709    0.6050   -0.0154 N.pl3     1 <0>        -0.4343
     12 C8          3.5079    0.4360   -0.0295 C.2       1 <0>         0.6040
     13 S2          4.5432    1.7995   -0.0326 S.2       1 <0>        -0.5899
     14 N3          4.0300   -0.8065   -0.0411 N.pl3     1 <0>        -0.7880
     15 C9         -1.1840   -0.8671    0.0087 C.2       1 <0>        -0.1359
     16 C10        -1.2577   -2.2490   -0.0037 C.2       1 <0>        -0.0913
     17 C11        -2.5012   -2.8374    0.0102 C.2       1 <0>        -0.1677
     18 C12        -3.6088   -2.0511    0.0246 C.2       1 <0>        -0.1496
     19 S3         -2.9095   -0.4088    0.0270 S.3       1 <0>         0.1111
     20 H2          2.3572    5.6116   -2.7723 H         1 <0>         0.1358
     21 H3          1.8013    4.6925   -0.5387 H         1 <0>         0.1349
     22 H4          2.6485    3.9135   -4.6998 H         1 <0>         0.1856
     23 H5         -0.5210    1.8882   -0.8789 H         1 <0>         0.1203
     24 H6         -0.5039    1.8785    0.9131 H         1 <0>         0.1231
     25 H7          3.4435   -1.5791   -0.0393 H         1 <0>         0.4064
     26 H8          4.9923   -0.9282   -0.0512 H         1 <0>         0.4335
     27 H9         -0.3610   -2.8507   -0.0208 H         1 <0>         0.1425
     28 H10        -2.5959   -3.9132    0.0049 H         1 <0>         0.1435
     29 H11        -4.6481   -2.3448    0.0321 H         1 <0>         0.1949
@<TRIPOS>BOND
     1    1    5 2
     2    1    2 1
     3    1   20 1
     4    2    3 2
     5    2   21 1
     6    3    4 1
     7    3    6 1
     8    4    5 1
     9    5   22 1
    10    6    7 1
    11    6   11 1
    12    6    8 1
    13    8    9 1
    14    8   23 1
    15    8   24 1
    16    9   10 2
    17    9   15 1
    18   10   11 1
    19   11   12 1
    20   12   13 2
    21   12   14 1
    22   14   25 1
    23   14   26 1
    24   15   19 1
    25   15   16 2
    26   16   17 1
    27   16   27 1
    28   17   18 2
    29   17   28 1
    30   18   19 1
    31   18   29 1
@<TRIPOS>MOLECULE
ZINC13675249
   29    31     0     0     0
SMALL
USER_CHARGES
(5S)-3,5-bis(2-thienyl)-4,5-dihydropyrazole-1-carbothioamide
@<TRIPOS>ATOM
      1 C1          7.5966    2.0153    2.5765 C.2       1 <0>        -0.1538
      2 C2          6.9885    1.9943    1.3354 C.2       1 <0>        -0.1194
      3 C3          5.8050    1.3487    1.1941 C.2       1 <0>        -0.1533
      4 S1          5.5222    0.7307    2.8450 S.3       1 <0>         0.0462
      5 C4          6.9968    1.3807    3.6132 C.2       1 <0>        -0.1648
      6 C5          4.9524    1.1886   -0.0382 C.3       1 <0>         0.2170
      7 H1          5.5524    1.3134   -0.9396 H         1 <0>         0.1310
      8 C6          3.7825    2.1921   -0.0222 C.3       1 <0>        -0.1323
      9 C7          2.5504    1.3157   -0.0152 C.2       1 <0>         0.2128
     10 N1          2.9050    0.0743   -0.0196 N.2       1 <0>        -0.2621
     11 N2          4.2843   -0.1224   -0.0385 N.pl3     1 <0>        -0.4342
     12 C8          4.9052   -1.3185   -0.0503 C.2       1 <0>         0.6041
     13 S2          6.6154   -1.3951   -0.0666 S.2       1 <0>        -0.5900
     14 N3          4.1798   -2.4544   -0.0493 N.pl3     1 <0>        -0.7880
     15 C9          1.1662    1.8009    0.0006 C.2       1 <0>        -0.1359
     16 C10        -0.0126    1.0758    0.0080 C.2       1 <0>        -0.0913
     17 C11        -1.2035    1.7645    0.0172 C.2       1 <0>        -0.1677
     18 C12        -1.1862    3.1227    0.0292 C.2       1 <0>        -0.1496
     19 S3          0.5624    3.4811    0.0147 S.3       1 <0>         0.1110
     20 H2          8.5375    2.5265    2.7172 H         1 <0>         0.1358
     21 H3          7.4480    2.4872    0.4914 H         1 <0>         0.1349
     22 H4          7.3257    1.2913    4.6380 H         1 <0>         0.1856
     23 H5          3.8023    2.8165   -0.9154 H         1 <0>         0.1229
     24 H6          3.8177    2.8093    0.8754 H         1 <0>         0.1204
     25 H7          3.2108   -2.4111   -0.0401 H         1 <0>         0.4064
     26 H8          4.6267   -3.3153   -0.0578 H         1 <0>         0.4335
     27 H9          0.0021   -0.0041    0.0020 H         1 <0>         0.1425
     28 H10        -2.1424    1.2308    0.0190 H         1 <0>         0.1435
     29 H11        -2.0186    3.8107    0.0405 H         1 <0>         0.1949
@<TRIPOS>BOND
     1    1    5 2
     2    1    2 1
     3    1   20 1
     4    2    3 2
     5    2   21 1
     6    3    4 1
     7    3    6 1
     8    4    5 1
     9    5   22 1
    10    6    7 1
    11    6   11 1
    12    6    8 1
    13    8    9 1
    14    8   23 1
    15    8   24 1
    16    9   10 2
    17    9   15 1
    18   10   11 1
    19   11   12 1
    20   12   13 2
    21   12   14 1
    22   14   25 1
    23   14   26 1
    24   15   19 1
    25   15   16 2
    26   16   17 1
    27   16   27 1
    28   17   18 2
    29   17   28 1
    30   18   19 1
    31   18   29 1
@<TRIPOS>MOLECULE
ZINC13675244
   35    37     0     0     0
SMALL
USER_CHARGES
(5S)-5-(p-tolyl)-3-(2-thienyl)-4,5-dihydropyrazole-1-carbothioamide
@<TRIPOS>ATOM
      1 C1          9.4231    0.2797    4.6664 C.3       1 <0>        -0.1166
      2 C2          8.5749    0.0980    3.4341 C.ar      1 <0>        -0.0775
      3 C3          8.9626    0.6711    2.2375 C.ar      1 <0>        -0.1147
      4 C4          8.1846    0.5045    1.1071 C.ar      1 <0>        -0.0835
      5 C5          7.0192   -0.2361    1.1732 C.ar      1 <0>        -0.0851
      6 C6          6.6290   -0.8052    2.3710 C.ar      1 <0>        -0.0963
      7 C7          7.4093   -0.6422    3.5003 C.ar      1 <0>        -0.1153
      8 C8          6.1710   -0.4178   -0.0591 C.3       1 <0>         0.1696
      9 H1          6.7689   -0.2749   -0.9592 H         1 <0>         0.1190
     10 C9          4.9751    0.5545   -0.0425 C.3       1 <0>        -0.1312
     11 C10         3.7664   -0.3539   -0.0358 C.2       1 <0>         0.2112
     12 N1          4.1536   -1.5856   -0.0405 N.2       1 <0>        -0.2655
     13 N2          5.5375   -1.7459   -0.0602 N.pl3     1 <0>        -0.4302
     14 C11         6.1897   -2.9253   -0.0724 C.2       1 <0>         0.6031
     15 S1          7.9014   -2.9568   -0.0883 S.2       1 <0>        -0.5922
     16 N3          5.4945   -4.0799   -0.0720 N.pl3     1 <0>        -0.7908
     17 C12         2.3700    0.0947   -0.0201 C.2       1 <0>        -0.1348
     18 C13         1.2107   -0.6612   -0.0131 C.2       1 <0>        -0.0931
     19 C14         0.0021   -0.0041    0.0020 C.2       1 <0>        -0.1675
     20 C15        -0.0163    1.3542    0.0095 C.2       1 <0>        -0.1507
     21 S2          1.7222    1.7584   -0.0049 S.3       1 <0>         0.1106
     22 H2          9.1014    1.1739    5.2003 H         1 <0>         0.0706
     23 H3          9.3132   -0.5897    5.3146 H         1 <0>         0.0658
     24 H4         10.4682    0.3864    4.3757 H         1 <0>         0.0677
     25 H5          9.8733    1.2494    2.1857 H         1 <0>         0.1240
     26 H6          8.4874    0.9525    0.1722 H         1 <0>         0.1242
     27 H7          5.7162   -1.3801    2.4236 H         1 <0>         0.1052
     28 H8          7.1065   -1.0902    4.4352 H         1 <0>         0.1191
     29 H9          4.9783    1.1798   -0.9352 H         1 <0>         0.1183
     30 H10         4.9955    1.1702    0.8568 H         1 <0>         0.1181
     31 H11         4.5247   -4.0621   -0.0630 H         1 <0>         0.4057
     32 H12         5.9639   -4.9287   -0.0808 H         1 <0>         0.4328
     33 H13         1.2537   -1.7403   -0.0196 H         1 <0>         0.1421
     34 H14        -0.9224   -0.5623    0.0082 H         1 <0>         0.1432
     35 H15        -0.8666    2.0201    0.0174 H         1 <0>         0.1947
@<TRIPOS>BOND
     1    1    2 1
     2    1   22 1
     3    1   23 1
     4    1   24 1
     5    2    7 ar
     6    2    3 ar
     7    3    4 ar
     8    3   25 1
     9    4    5 ar
    10    4   26 1
    11    5    6 ar
    12    5    8 1
    13    6    7 ar
    14    6   27 1
    15    7   28 1
    16    8    9 1
    17    8   13 1
    18    8   10 1
    19   10   11 1
    20   10   29 1
    21   10   30 1
    22   11   12 2
    23   11   17 1
    24   12   13 1
    25   13   14 1
    26   14   15 2
    27   14   16 1
    28   16   31 1
    29   16   32 1
    30   17   21 1
    31   17   18 2
    32   18   19 1
    33   18   33 1
    34   19   20 2
    35   19   34 1
    36   20   21 1
    37   20   35 1
@<TRIPOS>MOLECULE
ZINC13675246
   35    37     0     0     0
SMALL
USER_CHARGES
(5R)-5-(p-tolyl)-3-(2-thienyl)-4,5-dihydropyrazole-1-carbothioamide
@<TRIPOS>ATOM
      1 C1          4.4141    9.3493   -4.7423 C.3       1 <0>        -0.1168
      2 C2          4.1655    8.5256   -3.5051 C.ar      1 <0>        -0.0771
      3 C3          3.8879    9.1499   -2.3034 C.ar      1 <0>        -0.1151
      4 C4          3.6603    8.3943   -1.1684 C.ar      1 <0>        -0.0832
      5 C5          3.7095    7.0145   -1.2353 C.ar      1 <0>        -0.0855
      6 C6          3.9919    6.3903   -2.4360 C.ar      1 <0>        -0.0954
      7 C7          4.2156    7.1458   -3.5718 C.ar      1 <0>        -0.1159
      8 C8          3.4614    6.1908    0.0020 C.3       1 <0>         0.1699
      9 H1          3.6571    6.7791    0.8985 H         1 <0>         0.1188
     10 C9          2.0180    5.6498    0.0129 C.3       1 <0>        -0.1313
     11 C10         2.1913    4.1478    0.0031 C.2       1 <0>         0.2113
     12 N1          3.4497    3.8597   -0.0054 N.2       1 <0>        -0.2656
     13 N2          4.2874    4.9731   -0.0125 N.pl3     1 <0>        -0.4303
     14 C11         5.6347    4.9402   -0.0251 C.2       1 <0>         0.6031
     15 S1          6.5267    6.4015   -0.0251 S.2       1 <0>        -0.5923
     16 N3          6.2798    3.7569   -0.0377 N.pl3     1 <0>        -0.7908
     17 C12         1.0986    3.1693    0.0086 C.2       1 <0>        -0.1348
     18 C13         1.1651    1.7870    0.0005 C.2       1 <0>        -0.0931
     19 C14        -0.0126    1.0758    0.0080 C.2       1 <0>        -0.1675
     20 C15        -1.1940    1.7461    0.0172 C.2       1 <0>        -0.1506
     21 S2         -0.6644    3.4507    0.0270 S.3       1 <0>         0.1105
     22 H2          5.4779    9.5734   -4.8220 H         1 <0>         0.0720
     23 H3          4.0938    8.7902   -5.6215 H         1 <0>         0.0653
     24 H4          3.8505   10.2801   -4.6784 H         1 <0>         0.0671
     25 H5          3.8492   10.2279   -2.2512 H         1 <0>         0.1240
     26 H6          3.4438    8.8821   -0.2294 H         1 <0>         0.1242
     27 H7          4.0346    5.3124   -2.4873 H         1 <0>         0.1053
     28 H8          4.4329    6.6581   -4.5106 H         1 <0>         0.1191
     29 H9          1.4799    5.9784   -0.8763 H         1 <0>         0.1180
     30 H10         1.4948    5.9684    0.9145 H         1 <0>         0.1184
     31 H11         5.7744    2.9290   -0.0377 H         1 <0>         0.4057
     32 H12         7.2495    3.7332   -0.0468 H         1 <0>         0.4328
     33 H13         2.1181    1.2790   -0.0110 H         1 <0>         0.1421
     34 H14         0.0021   -0.0041    0.0020 H         1 <0>         0.1432
     35 H15        -2.1983    1.3487    0.0197 H         1 <0>         0.1947
@<TRIPOS>BOND
     1    1    2 1
     2    1   22 1
     3    1   23 1
     4    1   24 1
     5    2    7 ar
     6    2    3 ar
     7    3    4 ar
     8    3   25 1
     9    4    5 ar
    10    4   26 1
    11    5    6 ar
    12    5    8 1
    13    6    7 ar
    14    6   27 1
    15    7   28 1
    16    8    9 1
    17    8   13 1
    18    8   10 1
    19   10   11 1
    20   10   29 1
    21   10   30 1
    22   11   12 2
    23   11   17 1
    24   12   13 1
    25   13   14 1
    26   14   15 2
    27   14   16 1
    28   16   31 1
    29   16   32 1
    30   17   21 1
    31   17   18 2
    32   18   19 1
    33   18   33 1
    34   19   20 2
    35   19   34 1
    36   20   21 1
    37   20   35 1
@<TRIPOS>MOLECULE
ZINC05187204
   36    38     0     0     0
SMALL
USER_CHARGES
1-[5-(4-chlorophenyl)-3-phenyl-4,5-dihydropyrazol-1-yl]ethanone
@<TRIPOS>ATOM
      1 C1         -2.4871    1.5163    0.0231 C.3       1 <0>        -0.1668
      2 C2         -1.1236    2.1582    0.0193 C.2       1 <0>         0.5506
      3 O1         -1.0223    3.3670    0.0249 O.2       1 <0>        -0.5164
      4 N1         -0.0168    1.3892    0.0097 N.am      1 <0>        -0.4657
      5 C3          1.3691    1.8838   -0.0009 C.3       1 <0>         0.1477
      6 H1          1.5752    2.4667    0.8968 H         1 <0>         0.1054
      7 C4          2.2131    0.5939   -0.0159 C.3       1 <0>        -0.1264
      8 C5          1.1846   -0.5144   -0.0120 C.2       1 <0>         0.1443
      9 N2          0.0021   -0.0041    0.0020 N.2       1 <0>        -0.2365
     10 C6          1.4886   -1.9575   -0.0222 C.ar      1 <0>        -0.0385
     11 C7          2.8150   -2.3951   -0.0426 C.ar      1 <0>        -0.0879
     12 C8          3.0919   -3.7464   -0.0468 C.ar      1 <0>        -0.1213
     13 C9          2.0594   -4.6675   -0.0419 C.ar      1 <0>        -0.1000
     14 C10         0.7431   -4.2413   -0.0275 C.ar      1 <0>        -0.1224
     15 C11         0.4514   -2.8932   -0.0174 C.ar      1 <0>        -0.0794
     16 C12         1.6304    2.7030   -1.2385 C.ar      1 <0>        -0.0869
     17 C13         1.0906    2.3150   -2.4506 C.ar      1 <0>        -0.0898
     18 C14         1.3253    3.0691   -3.5849 C.ar      1 <0>        -0.1071
     19 C15         2.1099    4.2061   -3.5093 C.ar      1 <0>        -0.0290
     20 C16         2.6545    4.5907   -2.2970 C.ar      1 <0>        -0.1065
     21 C17         2.4145    3.8390   -1.1623 C.ar      1 <0>        -0.0861
     22 Cl1         2.4104    5.1501   -4.9349 Cl        1 <0>        -0.0658
     23 H2         -2.3781    0.4318    0.0170 H         1 <0>         0.0910
     24 H3         -3.0301    1.8219    0.9175 H         1 <0>         0.0973
     25 H4         -3.0393    1.8309   -0.8624 H         1 <0>         0.0968
     26 H5          2.8400    0.5368    0.8740 H         1 <0>         0.1109
     27 H6          2.8245    0.5449   -0.9169 H         1 <0>         0.1094
     28 H7          3.6218   -1.6772   -0.0509 H         1 <0>         0.1290
     29 H8          4.1170   -4.0862   -0.0580 H         1 <0>         0.1297
     30 H9          2.2820   -5.7243   -0.0490 H         1 <0>         0.1270
     31 H10        -0.0578   -4.9658   -0.0238 H         1 <0>         0.1291
     32 H11        -0.5765   -2.5618   -0.0062 H         1 <0>         0.1330
     33 H12         0.4818    1.4250   -2.5103 H         1 <0>         0.1243
     34 H13         0.8999    2.7683   -4.5310 H         1 <0>         0.1349
     35 H14         3.2668    5.4784   -2.2373 H         1 <0>         0.1375
     36 H15         2.8393    4.1393   -0.2159 H         1 <0>         0.1346
@<TRIPOS>BOND
     1    1    2 1
     2    1   23 1
     3    1   24 1
     4    1   25 1
     5    2    3 2
     6    2    4 am
     7    4    9 1
     8    4    5 1
     9    5    6 1
    10    5    7 1
    11    5   16 1
    12    7    8 1
    13    7   26 1
    14    7   27 1
    15    8    9 2
    16    8   10 1
    17   10   15 ar
    18   10   11 ar
    19   11   12 ar
    20   11   28 1
    21   12   13 ar
    22   12   29 1
    23   13   14 ar
    24   13   30 1
    25   14   15 ar
    26   14   31 1
    27   15   32 1
    28   16   21 ar
    29   16   17 ar
    30   17   18 ar
    31   17   33 1
    32   18   19 ar
    33   18   34 1
    34   19   20 ar
    35   19   22 1
    36   20   21 ar
    37   20   35 1
    38   21   36 1
@<TRIPOS>MOLECULE
ZINC05187207
   36    38     0     0     0
SMALL
USER_CHARGES
1-[5-(4-chlorophenyl)-3-phenyl-4,5-dihydropyrazol-1-yl]ethanone
@<TRIPOS>ATOM
      1 C1         -3.2511   -3.1184    0.0005 C.3       1 <0>        -0.1635
      2 C2         -4.2952   -2.0317    0.0115 C.2       1 <0>         0.5502
      3 O1         -5.4730   -2.3222    0.0154 O.2       1 <0>        -0.5157
      4 N1         -3.9204   -0.7371    0.0171 N.am      1 <0>        -0.4665
      5 C3         -4.8322    0.4179    0.0275 C.3       1 <0>         0.1477
      6 H1         -5.4584    0.4204   -0.8646 H         1 <0>         0.1057
      7 C4         -3.8798    1.6301    0.0352 C.3       1 <0>        -0.1261
      8 C5         -2.5009    1.0099    0.0193 C.2       1 <0>         0.1441
      9 N2         -2.6064   -0.2737    0.0131 N.2       1 <0>        -0.2360
     10 C6         -1.2307    1.7594    0.0174 C.ar      1 <0>        -0.0384
     11 C7         -0.0126    1.0758    0.0080 C.ar      1 <0>        -0.0793
     12 C8          1.1715    1.7833    0.0005 C.ar      1 <0>        -0.1224
     13 C9          1.1546    3.1669    0.0076 C.ar      1 <0>        -0.1000
     14 C10        -0.0483    3.8506    0.0233 C.ar      1 <0>        -0.1213
     15 C11        -1.2400    3.1562    0.0314 C.ar      1 <0>        -0.0880
     16 C12        -5.6834    0.4105    1.2711 C.ar      1 <0>        -0.0874
     17 C13        -5.1378    0.0191    2.4795 C.ar      1 <0>        -0.0896
     18 C14        -5.9165    0.0175    3.6214 C.ar      1 <0>        -0.1073
     19 C15        -7.2452    0.3969    3.5528 C.ar      1 <0>        -0.0290
     20 C16        -7.7921    0.7832    2.3421 C.ar      1 <0>        -0.1066
     21 C17        -7.0109    0.7898    1.2019 C.ar      1 <0>        -0.0861
     22 Cl1        -8.2259    0.3879    4.9852 Cl        1 <0>        -0.0658
     23 H2         -2.9946   -3.3862    1.0255 H         1 <0>         0.0965
     24 H3         -3.6436   -3.9941   -0.5164 H         1 <0>         0.0947
     25 H4         -2.3600   -2.7609   -0.5154 H         1 <0>         0.0909
     26 H5         -4.0213    2.2243    0.9380 H         1 <0>         0.1096
     27 H6         -4.0345    2.2411   -0.8541 H         1 <0>         0.1109
     28 H7          0.0021   -0.0041    0.0020 H         1 <0>         0.1330
     29 H8          2.1140    1.2561   -0.0114 H         1 <0>         0.1291
     30 H9          2.0847    3.7158    0.0013 H         1 <0>         0.1270
     31 H10        -0.0541    4.9306    0.0295 H         1 <0>         0.1297
     32 H11        -2.1782    3.6911    0.0436 H         1 <0>         0.1290
     33 H12        -4.1018   -0.2813    2.5320 H         1 <0>         0.1242
     34 H13        -5.4890   -0.2842    4.5662 H         1 <0>         0.1349
     35 H14        -8.8294    1.0792    2.2879 H         1 <0>         0.1375
     36 H15        -7.4377    1.0916    0.2568 H         1 <0>         0.1346
@<TRIPOS>BOND
     1    1    2 1
     2    1   23 1
     3    1   24 1
     4    1   25 1
     5    2    3 2
     6    2    4 am
     7    4    9 1
     8    4    5 1
     9    5    6 1
    10    5    7 1
    11    5   16 1
    12    7    8 1
    13    7   26 1
    14    7   27 1
    15    8    9 2
    16    8   10 1
    17   10   15 ar
    18   10   11 ar
    19   11   12 ar
    20   11   28 1
    21   12   13 ar
    22   12   29 1
    23   13   14 ar
    24   13   30 1
    25   14   15 ar
    26   14   31 1
    27   15   32 1
    28   16   21 ar
    29   16   17 ar
    30   17   18 ar
    31   17   33 1
    32   18   19 ar
    33   18   34 1
    34   19   20 ar
    35   19   22 1
    36   20   21 ar
    37   20   35 1
    38   21   36 1
@<TRIPOS>MOLECULE
ZINC13493574
   30    31     0     0     0
SMALL
USER_CHARGES
N-[(2-fluorophenyl)methyl]-1-methyl-pyrrole-2-carboxamide
@<TRIPOS>ATOM
      1 C1          2.4182    1.2294   -0.0291 C.3       1 <0>         0.0634
      2 N1          1.0550    1.7653   -0.0069 N.pl3     1 <0>        -0.4100
      3 C2         -0.0837    1.0303   -0.0223 C.2       1 <0>         0.0178
      4 C3         -1.1469    1.8691    0.0047 C.2       1 <0>        -0.2069
      5 C4         -0.6591    3.1789    0.0469 C.2       1 <0>        -0.1390
      6 C5          0.7173    3.0990    0.0392 C.2       1 <0>        -0.0574
      7 C6          1.6516    4.2292    0.0738 C.2       1 <0>         0.5923
      8 O1          2.8479    4.0270    0.1676 O.2       1 <0>        -0.5473
      9 N2          1.1851    5.4916    0.0016 N.am      1 <0>        -0.7154
     10 C7          2.1218    6.6152   -0.0771 C.3       1 <0>         0.1670
     11 C8          1.3506    7.9080   -0.1478 C.ar      1 <0>        -0.1480
     12 C9          1.1676    8.5382   -1.3643 C.ar      1 <0>        -0.0703
     13 C10         0.4555    9.7210   -1.4303 C.ar      1 <0>        -0.1312
     14 C11        -0.0649   10.2811   -0.2782 C.ar      1 <0>        -0.0802
     15 C12         0.1216    9.6559    0.9398 C.ar      1 <0>        -0.1559
     16 C13         0.8301    8.4679    1.0063 C.ar      1 <0>         0.1164
     17 F1          1.0135    7.8559    2.1967 F         1 <0>        -0.1325
     18 H1          2.7338    0.9966    0.9879 H         1 <0>         0.0773
     19 H2          2.4423    0.3226   -0.6335 H         1 <0>         0.0831
     20 H3          3.0929    1.9701   -0.4583 H         1 <0>         0.1037
     21 H4         -0.1349   -0.0480   -0.0535 H         1 <0>         0.1706
     22 H5         -2.1869    1.5778   -0.0007 H         1 <0>         0.1443
     23 H6         -1.2492    4.0828    0.0795 H         1 <0>         0.1424
     24 H7          0.2292    5.6561    0.0018 H         1 <0>         0.4044
     25 H8          2.7587    6.6200    0.8075 H         1 <0>         0.0826
     26 H9          2.7396    6.5114   -0.9691 H         1 <0>         0.0843
     27 H10         1.5775    8.1040   -2.2643 H         1 <0>         0.1360
     28 H11         0.3092   10.2104   -2.3819 H         1 <0>         0.1337
     29 H12        -0.6171   11.2078   -0.3303 H         1 <0>         0.1359
     30 H13        -0.2846   10.0937    1.8396 H         1 <0>         0.1387
@<TRIPOS>BOND
     1    1    2 1
     2    1   18 1
     3    1   19 1
     4    1   20 1
     5    2    6 1
     6    2    3 1
     7    3    4 2
     8    3   21 1
     9    4    5 1
    10    4   22 1
    11    5    6 2
    12    5   23 1
    13    6    7 1
    14    7    8 2
    15    7    9 am
    16    9   10 1
    17    9   24 1
    18   10   11 1
    19   10   25 1
    20   10   26 1
    21   11   16 ar
    22   11   12 ar
    23   12   13 ar
    24   12   27 1
    25   13   14 ar
    26   13   28 1
    27   14   15 ar
    28   14   29 1
    29   15   16 ar
    30   15   30 1
    31   16   17 1
@<TRIPOS>MOLECULE
ZINC12985643
   33    34     0     0     0
SMALL
USER_CHARGES
N-[(4-fluorophenyl)methyl]-N,1-dimethyl-pyrrole-2-carboxamide
@<TRIPOS>ATOM
      1 C1          2.5652    1.9665    0.4640 C.3       1 <0>         0.0712
      2 N1          1.1599    2.3322    0.6576 N.pl3     1 <0>        -0.4112
      3 C2          0.1559    1.4762    0.9680 C.2       1 <0>         0.0172
      4 C3         -1.0010    2.1741    1.0637 C.2       1 <0>        -0.2095
      5 C4         -0.7126    3.5191    0.8123 C.2       1 <0>        -0.1582
      6 C5          0.6403    3.6031    0.5603 C.2       1 <0>        -0.0547
      7 C6          1.3894    4.8243    0.2458 C.2       1 <0>         0.5903
      8 O1          2.6061    4.8151    0.2706 O.2       1 <0>        -0.5464
      9 N2          0.7303    5.9565   -0.0705 N.am      1 <0>        -0.5999
     10 C7         -0.7345    5.9709   -0.0882 C.3       1 <0>         0.0564
     11 C8          1.4788    7.1730   -0.3968 C.3       1 <0>         0.1588
     12 C9          1.7482    7.2147   -1.8789 C.ar      1 <0>        -0.1218
     13 C10         2.9039    6.6512   -2.3869 C.ar      1 <0>        -0.0658
     14 C11         3.1498    6.6846   -3.7464 C.ar      1 <0>        -0.1568
     15 C12         2.2432    7.2920   -4.5986 C.ar      1 <0>         0.1032
     16 C13         1.0886    7.8606   -4.0881 C.ar      1 <0>        -0.1572
     17 C14         0.8423    7.8214   -2.7288 C.ar      1 <0>        -0.0760
     18 F1          2.4848    7.3293   -5.9273 F         1 <0>        -0.1389
     19 H1          3.1109    2.1149    1.3958 H         1 <0>         0.0788
     20 H2          2.6308    0.9197    0.1673 H         1 <0>         0.0843
     21 H3          2.9996    2.5929   -0.3151 H         1 <0>         0.0930
     22 H4          0.2608    0.4111    1.1130 H         1 <0>         0.1695
     23 H5         -1.9729    1.7651    1.2972 H         1 <0>         0.1440
     24 H6         -1.4169    4.3379    0.8151 H         1 <0>         0.1630
     25 H7         -1.1085    6.1340    0.9225 H         1 <0>         0.0659
     26 H8         -1.0822    6.7738   -0.7383 H         1 <0>         0.0732
     27 H9         -1.1027    5.0155   -0.4620 H         1 <0>         0.0944
     28 H10         0.8947    8.0471   -0.1090 H         1 <0>         0.0926
     29 H11         2.4248    7.1737    0.1447 H         1 <0>         0.0975
     30 H12         3.6129    6.1811   -1.7215 H         1 <0>         0.1383
     31 H13         4.0507    6.2407   -4.1435 H         1 <0>         0.1358
     32 H14         0.3805    8.3343   -4.7520 H         1 <0>         0.1367
     33 H15        -0.0584    8.2645   -2.3304 H         1 <0>         0.1324
@<TRIPOS>BOND
     1    1    2 1
     2    1   19 1
     3    1   20 1
     4    1   21 1
     5    2    6 1
     6    2    3 1
     7    3    4 2
     8    3   22 1
     9    4    5 1
    10    4   23 1
    11    5    6 2
    12    5   24 1
    13    6    7 1
    14    7    8 2
    15    7    9 am
    16    9   10 1
    17    9   11 1
    18   10   25 1
    19   10   26 1
    20   10   27 1
    21   11   12 1
    22   11   28 1
    23   11   29 1
    24   12   17 ar
    25   12   13 ar
    26   13   14 ar
    27   13   30 1
    28   14   15 ar
    29   14   31 1
    30   15   16 ar
    31   15   18 1
    32   16   17 ar
    33   16   32 1
    34   17   33 1
@<TRIPOS>MOLECULE
ZINC13675228
   35    37     0     0     0
SMALL
USER_CHARGES
(5R)-5-(4-chlorophenyl)-3-(4-fluorophenyl)-4,5-dihydropyrazole-1-carbothioamide
@<TRIPOS>ATOM
      1 C1          1.1281    2.2950    2.4562 C.ar      1 <0>        -0.0900
      2 C2          1.3938    3.0306    3.5958 C.ar      1 <0>        -0.1057
      3 C3          2.1769    4.1684    3.5175 C.ar      1 <0>        -0.0259
      4 C4          2.6983    4.5661    2.2992 C.ar      1 <0>        -0.1043
      5 C5          2.4366    3.8266    1.1613 C.ar      1 <0>        -0.0713
      6 C6          1.6540    2.6897    1.2402 C.ar      1 <0>        -0.0764
      7 C7          1.3691    1.8838   -0.0009 C.3       1 <0>         0.1678
      8 H1          1.5581    2.4763   -0.8960 H         1 <0>         0.1205
      9 C8          2.2132    0.5940   -0.0159 C.3       1 <0>        -0.1333
     10 C9          1.1847   -0.5144   -0.0120 C.2       1 <0>         0.1727
     11 N1          0.0021   -0.0041    0.0020 N.2       1 <0>        -0.2711
     12 N2         -0.0168    1.3892    0.0097 N.pl3     1 <0>        -0.4329
     13 C10        -1.1236    2.1581    0.0193 C.2       1 <0>         0.6026
     14 S1         -0.9806    3.8641    0.0273 S.2       1 <0>        -0.5934
     15 N3         -2.3430    1.5841    0.0228 N.pl3     1 <0>        -0.7896
     16 C11         1.4888   -1.9573   -0.0222 C.ar      1 <0>        -0.0572
     17 C12         2.8156   -2.3943   -0.0425 C.ar      1 <0>        -0.0523
     18 C13         3.0937   -3.7448   -0.0462 C.ar      1 <0>        -0.1547
     19 C14         2.0600   -4.6680   -0.0409 C.ar      1 <0>         0.1253
     20 C15         0.7416   -4.2405   -0.0269 C.ar      1 <0>        -0.1567
     21 C16         0.4511   -2.8927   -0.0174 C.ar      1 <0>        -0.0465
     22 F1          2.3386   -5.9900   -0.0497 F         1 <0>        -0.1315
     23 Cl1         2.5056    5.0965    4.9473 Cl        1 <0>        -0.0683
     24 H2          0.5132    1.4092    2.5165 H         1 <0>         0.1163
     25 H3          0.9865    2.7196    4.5465 H         1 <0>         0.1317
     26 H4          3.3099    5.4541    2.2375 H         1 <0>         0.1364
     27 H5          2.8438    4.1367    0.2103 H         1 <0>         0.1351
     28 H6          2.8401    0.5370    0.8740 H         1 <0>         0.1182
     29 H7          2.8246    0.5451   -0.9169 H         1 <0>         0.1199
     30 H8         -2.4240    0.6175    0.0183 H         1 <0>         0.4059
     31 H9         -3.1396    2.1375    0.0297 H         1 <0>         0.4333
     32 H10         3.6218   -1.6757   -0.0508 H         1 <0>         0.1430
     33 H11         4.1191   -4.0838   -0.0577 H         1 <0>         0.1461
     34 H12        -0.0597   -4.9646   -0.0232 H         1 <0>         0.1442
     35 H13        -0.5765   -2.5607   -0.0066 H         1 <0>         0.1422
@<TRIPOS>BOND
     1    1    6 ar
     2    1    2 ar
     3    1   24 1
     4    2    3 ar
     5    2   25 1
     6    3    4 ar
     7    3   23 1
     8    4    5 ar
     9    4   26 1
    10    5    6 ar
    11    5   27 1
    12    6    7 1
    13    7    8 1
    14    7   12 1
    15    7    9 1
    16    9   10 1
    17    9   28 1
    18    9   29 1
    19   10   11 2
    20   10   16 1
    21   11   12 1
    22   12   13 1
    23   13   14 2
    24   13   15 1
    25   15   30 1
    26   15   31 1
    27   16   21 ar
    28   16   17 ar
    29   17   18 ar
    30   17   32 1
    31   18   19 ar
    32   18   33 1
    33   19   20 ar
    34   19   22 1
    35   20   21 ar
    36   20   34 1
    37   21   35 1
@<TRIPOS>MOLECULE
ZINC13675240
   32    34     0     0     0
SMALL
USER_CHARGES
(5R)-5-(4-chlorophenyl)-3-(2-thienyl)-4,5-dihydropyrazole-1-carbothioamide
@<TRIPOS>ATOM
      1 C1         -0.0126    1.0758    0.0080 C.2       1 <0>        -0.1681
      2 C2          1.1651    1.7870    0.0005 C.2       1 <0>        -0.0914
      3 C3          1.0986    3.1693    0.0086 C.2       1 <0>        -0.1371
      4 S1         -0.6644    3.4507    0.0270 S.3       1 <0>         0.1112
      5 C4         -1.1940    1.7461    0.0172 C.2       1 <0>        -0.1492
      6 C5          2.1913    4.1478    0.0031 C.2       1 <0>         0.2131
      7 N1          3.4497    3.8597   -0.0054 N.2       1 <0>        -0.2654
      8 N2          4.2874    4.9731   -0.0125 N.pl3     1 <0>        -0.4320
      9 C6          3.4614    6.1908    0.0020 C.3       1 <0>         0.1689
     10 H1          3.6580    6.7768    0.8998 H         1 <0>         0.1223
     11 C7          2.0180    5.6498    0.0129 C.3       1 <0>        -0.1319
     12 C8          3.7095    7.0145   -1.2353 C.ar      1 <0>        -0.0755
     13 C9          3.9918    6.3900   -2.4359 C.ar      1 <0>        -0.0882
     14 C10         4.2139    7.1448   -3.5723 C.ar      1 <0>        -0.1045
     15 C11         4.1648    8.5258   -3.5056 C.ar      1 <0>        -0.0263
     16 C12         3.8878    9.1504   -2.3026 C.ar      1 <0>        -0.1038
     17 C13         3.6603    8.3944   -1.1681 C.ar      1 <0>        -0.0750
     18 Cl1         4.4512    9.4747   -4.9308 Cl        1 <0>        -0.0685
     19 C14         5.6347    4.9402   -0.0251 C.2       1 <0>         0.6025
     20 S2          6.5267    6.4015   -0.0251 S.2       1 <0>        -0.5914
     21 N3          6.2798    3.7569   -0.0377 N.pl3     1 <0>        -0.7893
     22 H2          0.0021   -0.0041    0.0020 H         1 <0>         0.1435
     23 H3          2.1181    1.2790   -0.0110 H         1 <0>         0.1423
     24 H4         -2.1983    1.3487    0.0197 H         1 <0>         0.1949
     25 H5          1.4799    5.9784   -0.8763 H         1 <0>         0.1189
     26 H6          1.4948    5.9684    0.9145 H         1 <0>         0.1206
     27 H7          4.0345    5.3121   -2.4868 H         1 <0>         0.1159
     28 H8          4.4302    6.6567   -4.5111 H         1 <0>         0.1318
     29 H9          3.8496   10.2284   -2.2498 H         1 <0>         0.1367
     30 H10         3.4444    8.8818   -0.2288 H         1 <0>         0.1354
     31 H11         5.7744    2.9290   -0.0377 H         1 <0>         0.4062
     32 H12         7.2495    3.7332   -0.0468 H         1 <0>         0.4334
@<TRIPOS>BOND
     1    1    5 2
     2    1    2 1
     3    1   22 1
     4    2    3 2
     5    2   23 1
     6    3    4 1
     7    3    6 1
     8    4    5 1
     9    5   24 1
    10    6   11 1
    11    6    7 2
    12    7    8 1
    13    8    9 1
    14    8   19 1
    15    9   10 1
    16    9   11 1
    17    9   12 1
    18   11   25 1
    19   11   26 1
    20   12   17 ar
    21   12   13 ar
    22   13   14 ar
    23   13   27 1
    24   14   15 ar
    25   14   28 1
    26   15   16 ar
    27   15   18 1
    28   16   17 ar
    29   16   29 1
    30   17   30 1
    31   19   20 2
    32   19   21 1
    33   21   31 1
    34   21   32 1
@<TRIPOS>MOLECULE
ZINC13675242
   32    34     0     0     0
SMALL
USER_CHARGES
(5S)-5-(4-chlorophenyl)-3-(2-thienyl)-4,5-dihydropyrazole-1-carbothioamide
@<TRIPOS>ATOM
      1 C1          0.0021   -0.0041    0.0020 C.2       1 <0>        -0.1681
      2 C2          1.2107   -0.6612   -0.0131 C.2       1 <0>        -0.0914
      3 C3          2.3700    0.0947   -0.0201 C.2       1 <0>        -0.1371
      4 S1          1.7222    1.7584   -0.0049 S.3       1 <0>         0.1114
      5 C4         -0.0163    1.3542    0.0095 C.2       1 <0>        -0.1493
      6 C5          3.7664   -0.3539   -0.0358 C.2       1 <0>         0.2130
      7 N1          4.1536   -1.5856   -0.0405 N.2       1 <0>        -0.2654
      8 N2          5.5375   -1.7459   -0.0602 N.pl3     1 <0>        -0.4318
      9 C6          6.1710   -0.4178   -0.0591 C.3       1 <0>         0.1686
     10 H1          6.7689   -0.2749   -0.9592 H         1 <0>         0.1225
     11 C7          4.9751    0.5545   -0.0425 C.3       1 <0>        -0.1318
     12 C8          7.0192   -0.2361    1.1732 C.ar      1 <0>        -0.0752
     13 C9          6.6287   -0.8054    2.3709 C.ar      1 <0>        -0.0891
     14 C10         7.4091   -0.6438    3.5001 C.ar      1 <0>        -0.1039
     15 C11         8.5755    0.0974    3.4343 C.ar      1 <0>        -0.0266
     16 C12         8.9629    0.6716    2.2367 C.ar      1 <0>        -0.1035
     17 C13         8.1846    0.5046    1.1068 C.ar      1 <0>        -0.0753
     18 Cl1         9.5529    0.3063    4.8537 Cl        1 <0>        -0.0684
     19 C14         6.1897   -2.9253   -0.0724 C.2       1 <0>         0.6025
     20 S2          7.9014   -2.9568   -0.0883 S.2       1 <0>        -0.5915
     21 N3          5.4945   -4.0799   -0.0720 N.pl3     1 <0>        -0.7893
     22 H2         -0.9224   -0.5623    0.0082 H         1 <0>         0.1435
     23 H3          1.2537   -1.7403   -0.0196 H         1 <0>         0.1423
     24 H4         -0.8666    2.0201    0.0174 H         1 <0>         0.1949
     25 H5          4.9783    1.1798   -0.9352 H         1 <0>         0.1205
     26 H6          4.9955    1.1702    0.8568 H         1 <0>         0.1191
     27 H7          5.7159   -1.3802    2.4232 H         1 <0>         0.1159
     28 H8          7.1062   -1.0922    4.4347 H         1 <0>         0.1318
     29 H9          9.8735    1.2499    2.1846 H         1 <0>         0.1367
     30 H10         8.4871    0.9525    0.1717 H         1 <0>         0.1354
     31 H11         4.5247   -4.0621   -0.0630 H         1 <0>         0.4062
     32 H12         5.9639   -4.9287   -0.0808 H         1 <0>         0.4334
@<TRIPOS>BOND
     1    1    5 2
     2    1    2 1
     3    1   22 1
     4    2    3 2
     5    2   23 1
     6    3    4 1
     7    3    6 1
     8    4    5 1
     9    5   24 1
    10    6   11 1
    11    6    7 2
    12    7    8 1
    13    8    9 1
    14    8   19 1
    15    9   10 1
    16    9   11 1
    17    9   12 1
    18   11   25 1
    19   11   26 1
    20   12   17 ar
    21   12   13 ar
    22   13   14 ar
    23   13   27 1
    24   14   15 ar
    25   14   28 1
    26   15   16 ar
    27   15   18 1
    28   16   17 ar
    29   16   29 1
    30   17   30 1
    31   19   20 2
    32   19   21 1
    33   21   31 1
    34   21   32 1
@<TRIPOS>MOLECULE
ZINC03887001
   29    31     0     0     0
SMALL
USER_CHARGES
5-(2-furyl)-N,N-bis[5-(2-furyl)-3-(2-thienyl)-4,5-dihydropyrazol-5-yl]-3-(2-thienyl)-4,5-dihydropyrazole-1-carbothioamide
@<TRIPOS>ATOM
      1 C1          2.2311   -4.3998    2.6043 C.2       1 <0>        -0.2084
      2 C2          2.1351   -3.9725    1.2600 C.2       1 <0>        -0.1642
      3 C3          1.1639   -3.0430    1.2150 C.2       1 <0>        -0.0233
      4 O1          0.6733   -2.8814    2.4548 O.3       1 <0>        -0.1722
      5 C4          1.3128   -3.7059    3.3004 C.2       1 <0>        -0.0305
      6 C5          0.7080   -2.3036   -0.0165 C.3       1 <0>         0.2144
      7 H1          1.0219   -2.8311   -0.9172 H         1 <0>         0.1390
      8 C6          1.2483   -0.8600   -0.0200 C.3       1 <0>        -0.1339
      9 C7          0.0021   -0.0041    0.0020 C.2       1 <0>         0.2132
     10 N1         -1.0419   -0.7636    0.0070 N.2       1 <0>        -0.2618
     11 N2         -0.7527   -2.1266   -0.0028 N.pl3     1 <0>        -0.4329
     12 C8         -1.6627   -3.1209    0.0004 C.2       1 <0>         0.6056
     13 S1         -1.1470   -4.7533   -0.0123 S.2       1 <0>        -0.5925
     14 N3         -2.9786   -2.8299    0.0137 N.pl3     1 <0>        -0.7876
     15 C9         -0.0178    1.4626    0.0101 C.2       1 <0>        -0.1360
     16 C10        -1.1038    2.3205    0.0189 C.2       1 <0>        -0.0914
     17 C11        -0.8662    3.6756    0.0287 C.2       1 <0>        -0.1677
     18 C12         0.4153    4.1261    0.0191 C.2       1 <0>        -0.1494
     19 S2          1.3526    2.6070    0.0031 S.3       1 <0>         0.1110
     20 H2          2.9115   -5.1409    2.9971 H         1 <0>         0.1500
     21 H3          2.7275   -4.3252    0.4287 H         1 <0>         0.1502
     22 H4          1.1245   -3.7938    4.3602 H         1 <0>         0.2016
     23 H5          1.8276   -0.6686   -0.9232 H         1 <0>         0.1248
     24 H6          1.8527   -0.6781    0.8687 H         1 <0>         0.1203
     25 H7         -3.2708   -1.9050    0.0209 H         1 <0>         0.4066
     26 H8         -3.6335   -3.5455    0.0160 H         1 <0>         0.4336
     27 H9         -2.1129    1.9357    0.0212 H         1 <0>         0.1426
     28 H10        -1.6900    4.3739    0.0392 H         1 <0>         0.1437
     29 H11         0.7754    5.1443    0.0203 H         1 <0>         0.1951
@<TRIPOS>BOND
     1    1    5 2
     2    1    2 1
     3    1   20 1
     4    2    3 2
     5    2   21 1
     6    3    4 1
     7    3    6 1
     8    4    5 1
     9    5   22 1
    10    6    7 1
    11    6   11 1
    12    6    8 1
    13    8    9 1
    14    8   23 1
    15    8   24 1
    16    9   10 2
    17    9   15 1
    18   10   11 1
    19   11   12 1
    20   12   13 2
    21   12   14 1
    22   14   25 1
    23   14   26 1
    24   15   19 1
    25   15   16 2
    26   16   17 1
    27   16   27 1
    28   17   18 2
    29   17   28 1
    30   18   19 1
    31   18   29 1
@<TRIPOS>MOLECULE
ZINC03887002
   29    31     0     0     0
SMALL
USER_CHARGES
5-(2-furyl)-N,N-bis[5-(2-furyl)-3-(2-thienyl)-4,5-dihydropyrazol-5-yl]-3-(2-thienyl)-4,5-dihydropyrazole-1-carbothioamide
@<TRIPOS>ATOM
      1 C1          7.4052    1.8934   -2.6965 C.2       1 <0>        -0.2083
      2 C2          6.9909    1.9528   -1.3460 C.2       1 <0>        -0.1643
      3 C3          5.7851    1.3602   -1.2819 C.2       1 <0>        -0.0236
      4 O1          5.4516    0.9422   -2.5139 O.3       1 <0>        -0.1718
      5 C4          6.4277    1.2680   -3.3768 C.2       1 <0>        -0.0307
      6 C5          4.9525    1.1886   -0.0375 C.3       1 <0>         0.2146
      7 H1          5.5690    1.3040    0.8539 H         1 <0>         0.1393
      8 C6          3.7824    2.1921   -0.0279 C.3       1 <0>        -0.1337
      9 C7          2.5504    1.3157   -0.0148 C.2       1 <0>         0.2133
     10 N1          2.9049    0.0744   -0.0248 N.2       1 <0>        -0.2618
     11 N2          4.2843   -0.1224   -0.0385 N.pl3     1 <0>        -0.4329
     12 C8          4.9052   -1.3185   -0.0511 C.2       1 <0>         0.6057
     13 S1          6.6154   -1.3950   -0.0678 S.2       1 <0>        -0.5926
     14 N3          4.1798   -2.4544   -0.0506 N.pl3     1 <0>        -0.7876
     15 C9          1.1662    1.8009    0.0006 C.2       1 <0>        -0.1360
     16 C10        -0.0126    1.0758    0.0080 C.2       1 <0>        -0.0913
     17 C11        -1.2035    1.7645    0.0172 C.2       1 <0>        -0.1677
     18 C12        -1.1862    3.1227    0.0292 C.2       1 <0>        -0.1494
     19 S2          0.5624    3.4811    0.0147 S.3       1 <0>         0.1110
     20 H2          8.3293    2.2764   -3.1037 H         1 <0>         0.1500
     21 H3          7.5374    2.3906   -0.5238 H         1 <0>         0.1501
     22 H4          6.4295    1.0596   -4.4365 H         1 <0>         0.2016
     23 H5          3.8007    2.8125   -0.9239 H         1 <0>         0.1206
     24 H6          3.8203    2.8117    0.8681 H         1 <0>         0.1244
     25 H7          3.2108   -2.4111   -0.0411 H         1 <0>         0.4066
     26 H8          4.6267   -3.3153   -0.0597 H         1 <0>         0.4336
     27 H9          0.0021   -0.0041    0.0020 H         1 <0>         0.1426
     28 H10        -2.1424    1.2308    0.0187 H         1 <0>         0.1437
     29 H11        -2.0186    3.8107    0.0407 H         1 <0>         0.1951
@<TRIPOS>BOND
     1    1    5 2
     2    1    2 1
     3    1   20 1
     4    2    3 2
     5    2   21 1
     6    3    4 1
     7    3    6 1
     8    4    5 1
     9    5   22 1
    10    6    7 1
    11    6   11 1
    12    6    8 1
    13    8    9 1
    14    8   23 1
    15    8   24 1
    16    9   10 2
    17    9   15 1
    18   10   11 1
    19   11   12 1
    20   12   13 2
    21   12   14 1
    22   14   25 1
    23   14   26 1
    24   15   19 1
    25   15   16 2
    26   16   17 1
    27   16   27 1
    28   17   18 2
    29   17   28 1
    30   18   19 1
    31   18   29 1
@<TRIPOS>MOLECULE
ZINC13675232
   38    40     0     0     0
SMALL
USER_CHARGES
(5S)-3-(4-fluorophenyl)-5-(p-tolyl)-4,5-dihydropyrazole-1-carbothioamide
@<TRIPOS>ATOM
      1 C1          3.7112   -0.7071   -0.0382 C.3       1 <0>        -0.1169
      2 C2          2.3960    0.0285   -0.0217 C.ar      1 <0>        -0.0769
      3 C3          1.2084   -0.6789   -0.0132 C.ar      1 <0>        -0.1153
      4 C4          0.0021   -0.0041    0.0020 C.ar      1 <0>        -0.0796
      5 C5         -0.0167    1.3781    0.0096 C.ar      1 <0>        -0.0860
      6 C6          1.1709    2.0855    0.0021 C.ar      1 <0>        -0.0979
      7 C7          2.3773    1.4107   -0.0145 C.ar      1 <0>        -0.1169
      8 C8         -1.3319    2.1138    0.0199 C.3       1 <0>         0.1685
      9 H1         -2.1363    1.4545    0.3458 H         1 <0>         0.1172
     10 C9         -1.6367    2.6995   -1.3731 C.3       1 <0>        -0.1325
     11 C10        -1.6987    4.1914   -1.1353 C.2       1 <0>         0.1710
     12 N1         -1.4813    4.4381    0.1101 N.2       1 <0>        -0.2714
     13 N2         -1.2538    3.3021    0.8843 N.pl3     1 <0>        -0.4314
     14 C11        -1.0028    3.2932    2.2085 C.2       1 <0>         0.6031
     15 S1         -0.7427    1.8086    3.0204 S.2       1 <0>        -0.5942
     16 N3         -0.9567    4.4530    2.8934 N.pl3     1 <0>        -0.7911
     17 C12        -1.9671    5.2075   -2.1698 C.ar      1 <0>        -0.0558
     18 C13        -2.1839    4.8196   -3.4942 C.ar      1 <0>        -0.0527
     19 C14        -2.4402    5.7738   -4.4560 C.ar      1 <0>        -0.1546
     20 C15        -2.4720    7.1163   -4.1130 C.ar      1 <0>         0.1244
     21 C16        -2.2516    7.5077   -2.8018 C.ar      1 <0>        -0.1567
     22 C17        -2.0000    6.5622   -1.8302 C.ar      1 <0>        -0.0471
     23 F1         -2.7184    8.0472   -5.0607 F         1 <0>        -0.1319
     24 H2          4.0180   -0.8797   -1.0698 H         1 <0>         0.0707
     25 H3          4.4678   -0.1102    0.4709 H         1 <0>         0.0658
     26 H4          3.5989   -1.6636    0.4722 H         1 <0>         0.0678
     27 H5          1.2231   -1.7588   -0.0188 H         1 <0>         0.1238
     28 H6         -0.9258   -0.5567    0.0083 H         1 <0>         0.1239
     29 H7          1.1563    3.1654    0.0077 H         1 <0>         0.1056
     30 H8          3.3051    1.9634   -0.0208 H         1 <0>         0.1190
     31 H9         -0.8373    2.4568   -2.0732 H         1 <0>         0.1174
     32 H10        -2.5940    2.3310   -1.7417 H         1 <0>         0.1178
     33 H11        -1.1041    5.2942    2.4334 H         1 <0>         0.4053
     34 H12        -0.7761    4.4466    3.8464 H         1 <0>         0.4326
     35 H13        -2.1553    3.7740   -3.7634 H         1 <0>         0.1429
     36 H14        -2.6120    5.4748   -5.4795 H         1 <0>         0.1459
     37 H15        -2.2772    8.5553   -2.5406 H         1 <0>         0.1440
     38 H16        -1.8284    6.8684   -0.8089 H         1 <0>         0.1421
@<TRIPOS>BOND
     1    1    2 1
     2    1   24 1
     3    1   25 1
     4    1   26 1
     5    2    7 ar
     6    2    3 ar
     7    3    4 ar
     8    3   27 1
     9    4    5 ar
    10    4   28 1
    11    5    6 ar
    12    5    8 1
    13    6    7 ar
    14    6   29 1
    15    7   30 1
    16    8    9 1
    17    8   13 1
    18    8   10 1
    19   10   11 1
    20   10   31 1
    21   10   32 1
    22   11   12 2
    23   11   17 1
    24   12   13 1
    25   13   14 1
    26   14   15 2
    27   14   16 1
    28   16   33 1
    29   16   34 1
    30   17   22 ar
    31   17   18 ar
    32   18   19 ar
    33   18   35 1
    34   19   20 ar
    35   19   36 1
    36   20   21 ar
    37   20   23 1
    38   21   22 ar
    39   21   37 1
    40   22   38 1
@<TRIPOS>MOLECULE
ZINC13675234
   38    40     0     0     0
SMALL
USER_CHARGES
(5R)-3-(4-fluorophenyl)-5-(p-tolyl)-4,5-dihydropyrazole-1-carbothioamide
@<TRIPOS>ATOM
      1 C1         -0.0184    1.5028    0.0103 C.3       1 <0>        -0.1171
      2 C2          0.0021   -0.0041    0.0020 C.ar      1 <0>        -0.0765
      3 C3         -0.0057   -0.6888   -1.1988 C.ar      1 <0>        -0.1171
      4 C4          0.0179   -2.0709   -1.2065 C.ar      1 <0>        -0.0976
      5 C5          0.0392   -2.7685   -0.0132 C.ar      1 <0>        -0.0864
      6 C6          0.0412   -2.0838    1.1877 C.ar      1 <0>        -0.0794
      7 C7          0.0229   -0.7016    1.1953 C.ar      1 <0>        -0.1155
      8 C8          0.0597   -4.2753   -0.0215 C.3       1 <0>         0.1686
      9 H1          0.3998   -4.6585    0.9406 H         1 <0>         0.1172
     10 C9         -1.3337   -4.8349   -0.3702 C.3       1 <0>        -0.1326
     11 C10        -1.1059   -5.6089   -1.6489 C.2       1 <0>         0.1710
     12 N1          0.1352   -5.5293   -1.9848 N.2       1 <0>        -0.2715
     13 N2          0.9147   -4.7756   -1.1097 N.pl3     1 <0>        -0.4313
     14 C11         2.2359   -4.5429   -1.2387 C.2       1 <0>         0.6031
     15 S1          3.0554   -3.5923   -0.0744 S.2       1 <0>        -0.5943
     16 N3          2.9120   -5.0585   -2.2844 N.pl3     1 <0>        -0.7911
     17 C12        -2.1444   -6.3419   -2.3964 C.ar      1 <0>        -0.0558
     18 C13        -3.4613   -6.3619   -1.9306 C.ar      1 <0>        -0.0526
     19 C14        -4.4289   -7.0454   -2.6362 C.ar      1 <0>        -0.1546
     20 C15        -4.0951   -7.7201   -3.8000 C.ar      1 <0>         0.1244
     21 C16        -2.7892   -7.7078   -4.2645 C.ar      1 <0>        -0.1567
     22 C17        -1.8140   -7.0238   -3.5701 C.ar      1 <0>        -0.0471
     23 F1         -5.0464   -8.3920   -4.4846 F         1 <0>        -0.1318
     24 H2          1.0042    1.8801    0.0026 H         1 <0>         0.0719
     25 H3         -0.5455    1.8639   -0.8728 H         1 <0>         0.0654
     26 H4         -0.5286    1.8543    0.9071 H         1 <0>         0.0672
     27 H5         -0.0264   -0.1439   -2.1310 H         1 <0>         0.1190
     28 H6          0.0160   -2.6059   -2.1447 H         1 <0>         0.1056
     29 H7          0.0575   -2.6288    2.1200 H         1 <0>         0.1239
     30 H8          0.0244   -0.1667    2.1335 H         1 <0>         0.1238
     31 H9         -1.6884   -5.4972    0.4196 H         1 <0>         0.1178
     32 H10        -2.0415   -4.0226   -0.5358 H         1 <0>         0.1174
     33 H11         2.4477   -5.5971   -2.9441 H         1 <0>         0.4053
     34 H12         3.8629   -4.8910   -2.3773 H         1 <0>         0.4326
     35 H13        -3.7217   -5.8399   -1.0217 H         1 <0>         0.1429
     36 H14        -5.4480   -7.0585   -2.2791 H         1 <0>         0.1459
     37 H15        -2.5351   -8.2354   -5.1719 H         1 <0>         0.1440
     38 H16        -0.7967   -7.0155   -3.9326 H         1 <0>         0.1421
@<TRIPOS>BOND
     1    1    2 1
     2    1   24 1
     3    1   25 1
     4    1   26 1
     5    2    7 ar
     6    2    3 ar
     7    3    4 ar
     8    3   27 1
     9    4    5 ar
    10    4   28 1
    11    5    6 ar
    12    5    8 1
    13    6    7 ar
    14    6   29 1
    15    7   30 1
    16    8    9 1
    17    8   13 1
    18    8   10 1
    19   10   11 1
    20   10   31 1
    21   10   32 1
    22   11   12 2
    23   11   17 1
    24   12   13 1
    25   13   14 1
    26   14   15 2
    27   14   16 1
    28   16   33 1
    29   16   34 1
    30   17   22 ar
    31   17   18 ar
    32   18   19 ar
    33   18   35 1
    34   19   20 ar
    35   19   36 1
    36   20   21 ar
    37   20   23 1
    38   21   22 ar
    39   21   37 1
    40   22   38 1
@<TRIPOS>MOLECULE
ZINC03861295
   25    26     0     0     0
SMALL
USER_CHARGES
(1S)-tetralin-1-amine
@<TRIPOS>ATOM
      1 C1         -2.2499    2.7768   -3.3942 C.ar      1 <0>        -0.0861
      2 C2         -2.6801    1.7036   -2.6361 C.ar      1 <0>        -0.1096
      3 C3         -1.9429    1.2977   -1.5433 C.ar      1 <0>        -0.1255
      4 C4         -0.7706    1.9580   -1.1978 C.ar      1 <0>        -0.1446
      5 C5         -0.3403    3.0243   -1.9548 C.ar      1 <0>        -0.0380
      6 C6         -1.0853    3.4329   -3.0537 C.ar      1 <0>        -0.1126
      7 C7          0.9237    3.7822   -1.6433 C.3       1 <0>        -0.0975
      8 C8          1.3762    3.5063   -0.2109 C.3       1 <0>        -0.1161
      9 C9          1.4170    1.9880   -0.0008 C.3       1 <0>        -0.1442
     10 C10        -0.0178    1.4648    0.0101 C.3       1 <0>         0.0901
     11 H1         -0.5203    1.8124    0.9127 H         1 <0>         0.1462
     12 H2         -2.8235    3.1002   -4.2503 H         1 <0>         0.1372
     13 H3         -3.5904    1.1850   -2.8986 H         1 <0>         0.1359
     14 H4         -2.2800    0.4597   -0.9513 H         1 <0>         0.1194
     15 H5         -0.7498    4.2709   -3.6466 H         1 <0>         0.1363
     16 H6          0.7413    4.8501   -1.7633 H         1 <0>         0.0924
     17 H7          1.7077    3.4717   -2.3340 H         1 <0>         0.0902
     18 H8          0.6719    3.9550    0.4895 H         1 <0>         0.0792
     19 H9          2.3698    3.9257   -0.0525 H         1 <0>         0.0930
     20 H10         1.8975    1.7618    0.9511 H         1 <0>         0.0963
     21 H11         1.9726    1.5192   -0.8130 H         1 <0>         0.0906
     22 H12        -0.9349   -0.3784    0.0090 H         1 <0>         0.4346
     23 H13         0.5256   -0.3543   -0.7863 H         1 <0>         0.4365
     24 N1          0.0141   -0.0084    0.0239 N.4       1 <0>        -0.6456
     25 H14         0.4848   -0.3278    0.8787 H         1 <0>         0.4418
@<TRIPOS>BOND
     1    1    6 ar
     2    1    2 ar
     3    1   12 1
     4    2    3 ar
     5    2   13 1
     6    3    4 ar
     7    3   14 1
     8    4   10 1
     9    4    5 ar
    10    5    6 ar
    11    5    7 1
    12    6   15 1
    13    7    8 1
    14    7   16 1
    15    7   17 1
    16    8    9 1
    17    8   18 1
    18    8   19 1
    19    9   10 1
    20    9   20 1
    21    9   21 1
    22   10   11 1
    23   10   24 1
    24   22   24 1
    25   23   24 1
    26   24   25 1
@<TRIPOS>MOLECULE
ZINC04204789
   28    29     0     0     0
SMALL
USER_CHARGES
(1S)-N-methyltetralin-1-amine
@<TRIPOS>ATOM
      1 C1         -3.2677   -1.2944    0.6017 C.3       1 <0>        -0.0450
      2 C2         -2.3788    0.8540   -0.0743 C.3       1 <0>         0.0852
      3 H1         -2.5858    0.4199   -1.0524 H         1 <0>         0.1452
      4 C3         -3.4963    1.8291    0.2907 C.3       1 <0>        -0.1405
      5 C4         -3.3993    3.0454   -0.6377 C.3       1 <0>        -0.1158
      6 C5         -2.1474    3.8372   -0.2657 C.3       1 <0>        -0.0970
      7 C6         -0.9442    2.9324   -0.2140 C.ar      1 <0>        -0.0392
      8 C7         -1.0505    1.5625   -0.1225 C.ar      1 <0>        -0.1420
      9 C8          0.0994    0.7861   -0.0629 C.ar      1 <0>        -0.1304
     10 C9          1.3463    1.3748   -0.1113 C.ar      1 <0>        -0.1066
     11 C10         1.4529    2.7491   -0.2134 C.ar      1 <0>        -0.0875
     12 C11         0.3116    3.5230   -0.2633 C.ar      1 <0>        -0.1105
     13 H2         -4.2835   -0.8993    0.6000 H         1 <0>         0.1240
     14 H3         -3.0325   -1.6964   -0.3838 H         1 <0>         0.1231
     15 H4         -3.1873   -2.0868    1.3459 H         1 <0>         0.1268
     16 H5         -3.3814    2.1479    1.3267 H         1 <0>         0.0901
     17 H6         -4.4640    1.3445    0.1610 H         1 <0>         0.0945
     18 H7         -4.2814    3.6735   -0.5131 H         1 <0>         0.0929
     19 H8         -3.3286    2.7121   -1.6731 H         1 <0>         0.0788
     20 H9         -2.2916    4.2996    0.7108 H         1 <0>         0.0903
     21 H10        -1.9801    4.6156   -1.0101 H         1 <0>         0.0924
     22 H11         0.0169   -0.2878    0.0175 H         1 <0>         0.1197
     23 H12         2.2359    0.7639   -0.0698 H         1 <0>         0.1365
     24 H13         2.4261    3.2156   -0.2543 H         1 <0>         0.1376
     25 H14         0.3958    4.5969   -0.3417 H         1 <0>         0.1366
     26 N1         -2.3175   -0.2174    0.9379 N.4       1 <0>        -0.5215
     27 H15        -1.3659   -0.6020    0.9667 H         1 <0>         0.4290
     28 H16        -2.5575    0.1713    1.8574 H         1 <0>         0.4331
@<TRIPOS>BOND
     1    1   13 1
     2    1   14 1
     3    1   15 1
     4    1   26 1
     5    2    3 1
     6    2    8 1
     7    2    4 1
     8    2   26 1
     9    4    5 1
    10    4   16 1
    11    4   17 1
    12    5    6 1
    13    5   18 1
    14    5   19 1
    15    6    7 1
    16    6   20 1
    17    6   21 1
    18    7   12 ar
    19    7    8 ar
    20    8    9 ar
    21    9   10 ar
    22    9   22 1
    23   10   11 ar
    24   10   23 1
    25   11   12 ar
    26   11   24 1
    27   12   25 1
    28   26   27 1
    29   26   28 1
@<TRIPOS>MOLECULE
ZINC13675230
   35    37     0     0     0
SMALL
USER_CHARGES
(5S)-5-(4-chlorophenyl)-3-(4-fluorophenyl)-4,5-dihydropyrazole-1-carbothioamide
@<TRIPOS>ATOM
      1 C1          1.1476    3.8220    0.0117 C.ar      1 <0>        -0.0737
      2 C2          1.1670    2.4400    0.0040 C.ar      1 <0>        -0.1038
      3 C3         -0.0215    1.7317    0.0116 C.ar      1 <0>        -0.0266
      4 C4         -1.2287    2.4074    0.0210 C.ar      1 <0>        -0.1046
      5 C5         -1.2468    3.7894    0.0353 C.ar      1 <0>        -0.0899
      6 C6         -0.0590    4.4966    0.0273 C.ar      1 <0>        -0.0754
      7 C7         -0.0794    6.0034    0.0362 C.3       1 <0>         0.1670
      8 H1          0.8666    6.4008   -0.3316 H         1 <0>         0.1206
      9 C8         -0.3765    6.5336    1.4528 C.3       1 <0>        -0.1322
     10 C9         -1.6727    7.3011    1.2862 C.2       1 <0>         0.1726
     11 N1         -2.0536    7.2423    0.0570 N.2       1 <0>        -0.2711
     12 N2         -1.2022    6.5108   -0.7685 N.pl3     1 <0>        -0.4329
     13 C10        -1.3781    6.3021   -2.0883 C.2       1 <0>         0.6023
     14 S1         -0.2377    5.3768   -2.9682 S.2       1 <0>        -0.5929
     15 N3         -2.4520    6.8218   -2.7154 N.pl3     1 <0>        -0.7896
     16 C11        -2.3870    8.0081    2.3654 C.ar      1 <0>        -0.0572
     17 C12        -1.8791    7.9972    3.6668 C.ar      1 <0>        -0.0522
     18 C13        -2.5491    8.6637    4.6709 C.ar      1 <0>        -0.1547
     19 C14        -3.7295    9.3350    4.3931 C.ar      1 <0>         0.1253
     20 C15        -4.2408    9.3452    3.1049 C.ar      1 <0>        -0.1568
     21 C16        -3.5772    8.6864    2.0916 C.ar      1 <0>        -0.0465
     22 F1         -4.3840    9.9823    5.3819 F         1 <0>        -0.1315
     23 Cl1         0.0021   -0.0041    0.0020 Cl        1 <0>        -0.0684
     24 H2          2.0753    4.3750    0.0058 H         1 <0>         0.1350
     25 H3          2.1097    1.9131   -0.0075 H         1 <0>         0.1364
     26 H4         -2.1568    1.8551    0.0223 H         1 <0>         0.1316
     27 H5         -2.1891    4.3169    0.0479 H         1 <0>         0.1160
     28 H6         -0.5077    5.7068    2.1508 H         1 <0>         0.1183
     29 H7          0.4218    7.1956    1.7885 H         1 <0>         0.1200
     30 H8         -3.0981    7.3460   -2.2169 H         1 <0>         0.4059
     31 H9         -2.5786    6.6716   -3.6653 H         1 <0>         0.4333
     32 H10        -0.9616    7.4711    3.8852 H         1 <0>         0.1430
     33 H11        -2.1555    8.6592    5.6766 H         1 <0>         0.1461
     34 H12        -5.1609    9.8699    2.8945 H         1 <0>         0.1442
     35 H13        -3.9769    8.6944    1.0883 H         1 <0>         0.1422
@<TRIPOS>BOND
     1    1    6 ar
     2    1    2 ar
     3    1   24 1
     4    2    3 ar
     5    2   25 1
     6    3    4 ar
     7    3   23 1
     8    4    5 ar
     9    4   26 1
    10    5    6 ar
    11    5   27 1
    12    6    7 1
    13    7    8 1
    14    7   12 1
    15    7    9 1
    16    9   10 1
    17    9   28 1
    18    9   29 1
    19   10   11 2
    20   10   16 1
    21   11   12 1
    22   12   13 1
    23   13   14 2
    24   13   15 1
    25   15   30 1
    26   15   31 1
    27   16   21 ar
    28   16   17 ar
    29   17   18 ar
    30   17   32 1
    31   18   19 ar
    32   18   33 1
    33   19   20 ar
    34   19   22 1
    35   20   21 ar
    36   20   34 1
    37   21   35 1
@<TRIPOS>MOLECULE
ZINC06755699
   43    45     0     0     0
SMALL
USER_CHARGES
1-[3-(4-chlorophenyl)-5-(4-methoxyphenyl)-4,5-dihydropyrazol-1-yl]propan-1-one
@<TRIPOS>ATOM
      1 C1          0.0021   -0.0041    0.0020 C.3       1 <0>        -0.1411
      2 C2         -0.0187    1.5258    0.0104 C.3       1 <0>        -0.1301
      3 C3         -0.7240    2.0118    1.2503 C.2       1 <0>         0.5501
      4 O1         -1.1667    1.2130    2.0488 O.2       1 <0>        -0.5068
      5 N1         -0.8631    3.3339    1.4720 N.am      1 <0>        -0.4661
      6 C4         -1.5322    3.9413    2.6334 C.3       1 <0>         0.1545
      7 H1         -1.0244    3.6638    3.5571 H         1 <0>         0.1026
      8 C5         -1.3977    5.4554    2.3770 C.3       1 <0>        -0.1267
      9 C6         -0.6559    5.5376    1.0620 C.2       1 <0>         0.1370
     10 N2         -0.4021    4.3488    0.6360 N.2       1 <0>        -0.2312
     11 C7         -0.2810    6.7865    0.3731 C.ar      1 <0>        -0.0298
     12 C8         -0.6165    8.0228    0.9302 C.ar      1 <0>        -0.0759
     13 C9         -0.2580    9.1870    0.2837 C.ar      1 <0>        -0.1111
     14 C10         0.4235    9.1322   -0.9207 C.ar      1 <0>        -0.0196
     15 C11         0.7537    7.9096   -1.4814 C.ar      1 <0>        -0.1120
     16 C12         0.4061    6.7381   -0.8423 C.ar      1 <0>        -0.0680
     17 Cl1         0.8653   10.6023   -1.7314 Cl        1 <0>        -0.0615
     18 C13        -2.9829    3.5360    2.6816 C.ar      1 <0>        -0.1301
     19 C14        -3.7125    3.4423    1.5109 C.ar      1 <0>        -0.0602
     20 C15        -5.0410    3.0655    1.5519 C.ar      1 <0>        -0.2053
     21 C16        -5.6459    2.7920    2.7701 C.ar      1 <0>         0.1344
     22 C17        -4.9131    2.8923    3.9438 C.ar      1 <0>        -0.1483
     23 C18        -3.5834    3.2641    3.8970 C.ar      1 <0>        -0.0579
     24 O2         -6.9540    2.4261    2.8136 O.3       1 <0>        -0.3160
     25 C19        -7.6463    2.3435    1.5662 C.3       1 <0>         0.0262
     26 H2         -1.0205   -0.3814    0.0098 H         1 <0>         0.0611
     27 H3          0.5123   -0.3556   -0.8948 H         1 <0>         0.0654
     28 H4          0.5293   -0.3651    0.8851 H         1 <0>         0.0619
     29 H5          1.0039    1.9031    0.0027 H         1 <0>         0.0981
     30 H6         -0.5459    1.8868   -0.8726 H         1 <0>         0.0968
     31 H7         -0.8223    5.9314    3.1710 H         1 <0>         0.1100
     32 H8         -2.3817    5.9164    2.2903 H         1 <0>         0.1091
     33 H9         -1.1516    8.0669    1.8673 H         1 <0>         0.1397
     34 H10        -0.5132   10.1436    0.7154 H         1 <0>         0.1412
     35 H11         1.2849    7.8737   -2.4210 H         1 <0>         0.1404
     36 H12         0.6642    5.7854   -1.2806 H         1 <0>         0.1431
     37 H13        -3.2423    3.6595    0.5632 H         1 <0>         0.1165
     38 H14        -5.6093    2.9881    0.6369 H         1 <0>         0.1288
     39 H15        -5.3817    2.6796    4.8934 H         1 <0>         0.1345
     40 H16        -3.0125    3.3419    4.8104 H         1 <0>         0.1317
     41 H17        -8.6788    2.0422    1.7430 H         1 <0>         0.1025
     42 H18        -7.6307    3.3173    1.0768 H         1 <0>         0.0562
     43 H19        -7.1575    1.6079    0.9274 H         1 <0>         0.0561
@<TRIPOS>BOND
     1    1    2 1
     2    1   26 1
     3    1   27 1
     4    1   28 1
     5    2    3 1
     6    2   29 1
     7    2   30 1
     8    3    4 2
     9    3    5 am
    10    5   10 1
    11    5    6 1
    12    6    7 1
    13    6    8 1
    14    6   18 1
    15    8    9 1
    16    8   31 1
    17    8   32 1
    18    9   10 2
    19    9   11 1
    20   11   16 ar
    21   11   12 ar
    22   12   13 ar
    23   12   33 1
    24   13   14 ar
    25   13   34 1
    26   14   15 ar
    27   14   17 1
    28   15   16 ar
    29   15   35 1
    30   16   36 1
    31   18   23 ar
    32   18   19 ar
    33   19   20 ar
    34   19   37 1
    35   20   21 ar
    36   20   38 1
    37   21   22 ar
    38   21   24 1
    39   22   23 ar
    40   22   39 1
    41   23   40 1
    42   24   25 1
    43   25   41 1
    44   25   42 1
    45   25   43 1
@<TRIPOS>MOLECULE
ZINC06755708
   43    45     0     0     0
SMALL
USER_CHARGES
1-[3-(4-chlorophenyl)-5-(4-methoxyphenyl)-4,5-dihydropyrazol-1-yl]propan-1-one
@<TRIPOS>ATOM
      1 C1         -0.0127    1.0858    0.0080 C.3       1 <0>        -0.1411
      2 C2         -0.7288    1.5792    1.2668 C.3       1 <0>        -0.1301
      3 C3         -0.7493    3.0861    1.2751 C.2       1 <0>         0.5501
      4 O1         -0.2410    3.7046    0.3637 O.2       1 <0>        -0.5067
      5 N1         -1.3323    3.7465    2.2951 N.am      1 <0>        -0.4662
      6 C4         -1.4224    5.2093    2.4275 C.3       1 <0>         0.1544
      7 H1         -0.4276    5.6516    2.4810 H         1 <0>         0.1027
      8 C5         -2.1758    5.4062    3.7579 C.3       1 <0>        -0.1265
      9 C6         -2.4344    3.9972    4.2419 C.2       1 <0>         0.1370
     10 N2         -1.9535    3.1557    3.3935 N.2       1 <0>        -0.2312
     11 C7         -3.1361    3.6413    5.4892 C.ar      1 <0>        -0.0298
     12 C8         -3.6178    4.6443    6.3338 C.ar      1 <0>        -0.0758
     13 C9         -4.2777    4.3047    7.4961 C.ar      1 <0>        -0.1111
     14 C10        -4.4531    2.9727    7.8325 C.ar      1 <0>        -0.0196
     15 C11        -3.9733    1.9736    7.0021 C.ar      1 <0>        -0.1121
     16 C12        -3.3167    2.2997    5.8341 C.ar      1 <0>        -0.0680
     17 Cl1        -5.2785    2.5538    9.3011 Cl        1 <0>        -0.0615
     18 C13        -2.2053    5.7983    1.2824 C.ar      1 <0>        -0.1304
     19 C14        -3.3128    5.1334    0.7894 C.ar      1 <0>        -0.0599
     20 C15        -4.0355    5.6740   -0.2565 C.ar      1 <0>        -0.2055
     21 C16        -3.6423    6.8792   -0.8199 C.ar      1 <0>         0.1345
     22 C17        -2.5274    7.5416   -0.3271 C.ar      1 <0>        -0.1484
     23 C18        -1.8116    6.9998    0.7229 C.ar      1 <0>        -0.0578
     24 O2         -4.3479    7.4099   -1.8531 O.3       1 <0>        -0.3161
     25 C19        -5.4844    6.6731   -2.3087 C.3       1 <0>         0.0262
     26 H2          0.0021   -0.0041    0.0020 H         1 <0>         0.0654
     27 H3          1.0099    1.4631    0.0003 H         1 <0>         0.0619
     28 H4         -0.5399    1.4469   -0.8751 H         1 <0>         0.0611
     29 H5         -1.7514    1.2020    1.2746 H         1 <0>         0.0968
     30 H6         -0.2017    1.2182    2.1499 H         1 <0>         0.0981
     31 H7         -1.5556    5.9479    4.4720 H         1 <0>         0.1098
     32 H8         -3.1160    5.9316    3.5907 H         1 <0>         0.1094
     33 H9         -3.4774    5.6834    6.0750 H         1 <0>         0.1398
     34 H10        -4.6545    5.0792    8.1478 H         1 <0>         0.1412
     35 H11        -4.1133    0.9368    7.2701 H         1 <0>         0.1404
     36 H12        -2.9427    1.5196    5.1876 H         1 <0>         0.1431
     37 H13        -3.6155    4.1926    1.2250 H         1 <0>         0.1164
     38 H14        -4.9029    5.1562   -0.6386 H         1 <0>         0.1288
     39 H15        -2.2191    8.4798   -0.7643 H         1 <0>         0.1345
     40 H16        -0.9436    7.5151    1.1069 H         1 <0>         0.1316
     41 H17        -6.1981    6.5643   -1.4920 H         1 <0>         0.0562
     42 H18        -5.9557    7.2061   -3.1345 H         1 <0>         0.1025
     43 H19        -5.1663    5.6870   -2.6471 H         1 <0>         0.0560
@<TRIPOS>BOND
     1    1    2 1
     2    1   26 1
     3    1   27 1
     4    1   28 1
     5    2    3 1
     6    2   29 1
     7    2   30 1
     8    3    4 2
     9    3    5 am
    10    5   10 1
    11    5    6 1
    12    6    7 1
    13    6    8 1
    14    6   18 1
    15    8    9 1
    16    8   31 1
    17    8   32 1
    18    9   10 2
    19    9   11 1
    20   11   16 ar
    21   11   12 ar
    22   12   13 ar
    23   12   33 1
    24   13   14 ar
    25   13   34 1
    26   14   15 ar
    27   14   17 1
    28   15   16 ar
    29   15   35 1
    30   16   36 1
    31   18   23 ar
    32   18   19 ar
    33   19   20 ar
    34   19   37 1
    35   20   21 ar
    36   20   38 1
    37   21   22 ar
    38   21   24 1
    39   22   23 ar
    40   22   39 1
    41   23   40 1
    42   24   25 1
    43   25   41 1
    44   25   42 1
    45   25   43 1
@<TRIPOS>MOLECULE
ZINC40829296
   31    33     0     0     0
SMALL
USER_CHARGES

@<TRIPOS>ATOM
      1 C1         -0.0167    1.3786    0.0096 C.ar      1 <0>        -0.1778
      2 C2          1.1695    2.0894    0.0021 C.ar      1 <0>        -0.0723
      3 C3          2.3774    1.4200   -0.0130 C.ar      1 <0>        -0.1939
      4 C4          2.3998    0.0311   -0.0206 C.ar      1 <0>         0.2129
      5 C5          1.2064   -0.6798   -0.0130 C.ar      1 <0>        -0.1989
      6 C6          0.0021   -0.0041    0.0020 C.ar      1 <0>        -0.0724
      7 N1          3.6196   -0.6492   -0.0363 N.pl3     1 <0>        -0.7480
      8 C7          3.6414   -2.1140   -0.0443 C.3       1 <0>         0.1900
      9 C8          5.0695   -2.5950   -0.0611 C.2       1 <0>         0.0558
     10 C9          5.7601   -2.9205   -1.1652 C.2       1 <0>        -0.1713
     11 C10         7.0967   -3.3315   -0.7286 C.ar      1 <0>        -0.1141
     12 C11         8.2422   -3.7721   -1.3943 C.ar      1 <0>        -0.0677
     13 C12         9.3631   -4.0872   -0.6794 C.ar      1 <0>        -0.1465
     14 C13         9.3725   -3.9728    0.7041 C.ar      1 <0>        -0.0936
     15 C14         8.2535   -3.5400    1.3809 C.ar      1 <0>        -0.1323
     16 C15         7.1010   -3.2138    0.6732 C.ar      1 <0>         0.1027
     17 N2          5.8561   -2.7592    1.0465 N.pl3     1 <0>        -0.5883
     18 H1          5.5775   -2.5833    1.9588 H         1 <0>         0.4152
     19 H2         -0.9598    1.9046    0.0260 H         1 <0>         0.1184
     20 H3          1.1513    3.1692    0.0077 H         1 <0>         0.1211
     21 H4          3.3034    1.9757   -0.0192 H         1 <0>         0.1185
     22 H5          1.2204   -1.7597   -0.0193 H         1 <0>         0.1195
     23 H6         -0.9261   -0.5561    0.0079 H         1 <0>         0.1208
     24 H7          4.4523   -0.1517   -0.0419 H         1 <0>         0.4018
     25 H8          3.1419   -2.4897    0.8486 H         1 <0>         0.0699
     26 H9          3.1243   -2.4802   -0.9312 H         1 <0>         0.0870
     27 H10         5.3990   -2.8858   -2.1824 H         1 <0>         0.1489
     28 H11         8.2421   -3.8639   -2.4704 H         1 <0>         0.1234
     29 H12        10.2488   -4.4283   -1.1947 H         1 <0>         0.1241
     30 H13        10.2660   -4.2259    1.2554 H         1 <0>         0.1267
     31 H14         8.2706   -3.4547    2.4574 H         1 <0>         0.1205
@<TRIPOS>BOND
     1    1    6 ar
     2    1    2 ar
     3    1   19 1
     4    2    3 ar
     5    2   20 1
     6    3    4 ar
     7    3   21 1
     8    4    5 ar
     9    4    7 1
    10    5    6 ar
    11    5   22 1
    12    6   23 1
    13    7    8 1
    14    7   24 1
    15    8    9 1
    16    8   25 1
    17    8   26 1
    18    9   17 1
    19    9   10 2
    20   10   11 1
    21   10   27 1
    22   11   16 ar
    23   11   12 ar
    24   12   13 ar
    25   12   28 1
    26   13   14 ar
    27   13   29 1
    28   14   15 ar
    29   14   30 1
    30   15   16 ar
    31   15   31 1
    32   16   17 1
    33   17   18 1
@<TRIPOS>MOLECULE
ZINC00384465
   30    32     0     0     0
SMALL
USER_CHARGES

@<TRIPOS>ATOM
      1 C1         -0.0154    1.3804    0.0286 C.ar      1 <0>        -0.1318
      2 C2          0.1395    0.2190    0.7632 C.ar      1 <0>        -0.0990
      3 C3          1.3439   -0.4567    0.7437 C.ar      1 <0>        -0.1195
      4 C4          2.4001    0.0314   -0.0149 C.ar      1 <0>         0.1419
      5 C5          2.2411    1.1982   -0.7516 C.ar      1 <0>        -0.1445
      6 C6          1.0341    1.8690   -0.7277 C.ar      1 <0>        -0.0999
      7 N1          3.6208   -0.6500   -0.0365 N.am      1 <0>        -0.6725
      8 C7          3.6440   -1.9942    0.0577 C.2       1 <0>         0.5860
      9 O1          2.6017   -2.6216    0.0649 O.2       1 <0>        -0.4980
     10 C8          4.9289   -2.7025    0.1519 C.2       1 <0>         0.0051
     11 C9          5.0809   -4.0497    0.2450 C.2       1 <0>        -0.0914
     12 C10         6.4684   -4.3231    0.3148 C.ar      1 <0>        -0.1236
     13 C11         7.2119   -5.5059    0.4199 C.ar      1 <0>        -0.0570
     14 C12         8.5742   -5.4492    0.4678 C.ar      1 <0>        -0.1479
     15 C13         9.2339   -4.2276    0.4134 C.ar      1 <0>        -0.0811
     16 C14         8.5257   -3.0515    0.3101 C.ar      1 <0>        -0.1360
     17 C15         7.1347   -3.0833    0.2595 C.ar      1 <0>         0.1182
     18 N2          6.1745   -2.1050    0.1539 N.pl3     1 <0>        -0.5808
     19 H1          6.3437   -1.1518    0.0935 H         1 <0>         0.4166
     20 H2         -0.9596    1.9045    0.0421 H         1 <0>         0.1255
     21 H3         -0.6820   -0.1598    1.3531 H         1 <0>         0.1282
     22 H4          1.4644   -1.3634    1.3179 H         1 <0>         0.1351
     23 H5          3.0605    1.5805   -1.3421 H         1 <0>         0.1251
     24 H6          0.9098    2.7763   -1.3003 H         1 <0>         0.1280
     25 H7          4.4511   -0.1552   -0.1194 H         1 <0>         0.4061
     26 H8          4.2861   -4.7806    0.2628 H         1 <0>         0.1588
     27 H9          6.7079   -6.4601    0.4631 H         1 <0>         0.1279
     28 H10         9.1452   -6.3623    0.5491 H         1 <0>         0.1270
     29 H11        10.3128   -4.2003    0.4528 H         1 <0>         0.1297
     30 H12         9.0476   -2.1069    0.2685 H         1 <0>         0.1240
@<TRIPOS>BOND
     1    1    6 ar
     2    1    2 ar
     3    1   20 1
     4    2    3 ar
     5    2   21 1
     6    3    4 ar
     7    3   22 1
     8    4    5 ar
     9    4    7 1
    10    5    6 ar
    11    5   23 1
    12    6   24 1
    13    7    8 am
    14    7   25 1
    15    8    9 2
    16    8   10 1
    17   10   18 1
    18   10   11 2
    19   11   12 1
    20   11   26 1
    21   12   17 ar
    22   12   13 ar
    23   13   14 ar
    24   13   27 1
    25   14   15 ar
    26   14   28 1
    27   15   16 ar
    28   15   29 1
    29   16   17 ar
    30   16   30 1
    31   17   18 1
    32   18   19 1
@<TRIPOS>MOLECULE
ZINC20892069
   36    38     0     0     0
SMALL
USER_CHARGES
N-benzyl-N-methyl-1H-indole-2-carboxamide
@<TRIPOS>ATOM
      1 C1         -2.5660    0.1808   -0.0862 C.3       1 <0>         0.0238
      2 N1         -2.4423    1.6406   -0.0787 N.am      1 <0>        -0.6096
      3 C2         -3.5951    2.4752   -0.4264 C.3       1 <0>         0.1540
      4 C3         -3.5976    2.7351   -1.9108 C.ar      1 <0>        -0.1133
      5 C4         -2.9430    3.8411   -2.4199 C.ar      1 <0>        -0.0943
      6 C5         -2.9408    4.0766   -3.7820 C.ar      1 <0>        -0.1218
      7 C6         -3.6025    3.2122   -4.6340 C.ar      1 <0>        -0.1138
      8 C7         -4.2619    2.1093   -4.1243 C.ar      1 <0>        -0.1245
      9 C8         -4.2593    1.8707   -2.7627 C.ar      1 <0>        -0.1077
     10 C9         -1.2681    2.2157    0.2481 C.2       1 <0>         0.5875
     11 O1         -1.1704    3.4280    0.2719 O.2       1 <0>        -0.5142
     12 C10        -0.1049    1.3777    0.5758 C.2       1 <0>         0.0001
     13 C11         1.1764    1.8165    0.6842 C.2       1 <0>        -0.1043
     14 C12         1.9881    0.7016    1.0049 C.ar      1 <0>        -0.1250
     15 C13         3.3613    0.5456    1.2352 C.ar      1 <0>        -0.0593
     16 C14         3.8637   -0.6875    1.5328 C.ar      1 <0>        -0.1510
     17 C15         3.0259   -1.7932    1.6101 C.ar      1 <0>        -0.0858
     18 C16         1.6733   -1.6657    1.3874 C.ar      1 <0>        -0.1365
     19 C17         1.1366   -0.4177    1.0826 C.ar      1 <0>         0.1158
     20 N2         -0.1399    0.0179    0.8167 N.pl3     1 <0>        -0.6076
     21 H1         -1.0964   -0.5237    0.7745 H         1 <0>         0.4462
     22 H2         -1.6041   -0.2701    0.1992 H         1 <0>         0.1230
     23 H3         -2.8451   -0.1583   -1.0947 H         1 <0>         0.0810
     24 H4         -3.3416   -0.1251    0.6313 H         1 <0>         0.0802
     25 H5         -4.5225    1.9557   -0.1435 H         1 <0>         0.0911
     26 H6         -3.5314    3.4316    0.1132 H         1 <0>         0.0999
     27 H7         -2.4298    4.5189   -1.7539 H         1 <0>         0.1288
     28 H8         -2.4254    4.9381   -4.1803 H         1 <0>         0.1235
     29 H9         -3.6040    3.3982   -5.6978 H         1 <0>         0.1224
     30 H10        -4.7789    1.4340   -4.7899 H         1 <0>         0.1224
     31 H11        -4.7745    1.0090   -2.3645 H         1 <0>         0.1196
     32 H12         1.5150    2.8331    0.5496 H         1 <0>         0.1522
     33 H13         4.0204    1.3991    1.1770 H         1 <0>         0.1248
     34 H14         4.9225   -0.8052    1.7103 H         1 <0>         0.1244
     35 H15         3.4397   -2.7622    1.8471 H         1 <0>         0.1271
     36 H16         1.0302   -2.5312    1.4497 H         1 <0>         0.1209
@<TRIPOS>BOND
     1    1    2 1
     2    1   22 1
     3    1   23 1
     4    1   24 1
     5    2    3 1
     6    2   10 am
     7    3    4 1
     8    3   25 1
     9    3   26 1
    10    4    9 ar
    11    4    5 ar
    12    5    6 ar
    13    5   27 1
    14    6    7 ar
    15    6   28 1
    16    7    8 ar
    17    7   29 1
    18    8    9 ar
    19    8   30 1
    20    9   31 1
    21   10   11 2
    22   10   12 1
    23   12   20 1
    24   12   13 2
    25   13   14 1
    26   13   32 1
    27   14   19 ar
    28   14   15 ar
    29   15   16 ar
    30   15   33 1
    31   16   17 ar
    32   16   34 1
    33   17   18 ar
    34   17   35 1
    35   18   19 ar
    36   18   36 1
    37   19   20 1
    38   20   21 1
@<TRIPOS>MOLECULE
ZINC40393647
   45    47     0     0     0
SMALL
USER_CHARGES

@<TRIPOS>ATOM
      1 C1         -0.3098   -3.3324    1.7148 C.3       1 <0>         0.0808
      2 N1         -0.6165   -2.2131    0.8208 N.pl3     1 <0>        -0.4514
      3 C2         -0.8607   -2.3102   -0.5287 C.ar      1 <0>         0.1082
      4 C3         -0.8979   -3.3830   -1.4153 C.ar      1 <0>        -0.1302
      5 C4         -1.1780   -3.1625   -2.7450 C.ar      1 <0>        -0.0880
      6 C5         -1.4242   -1.8778   -3.2134 C.ar      1 <0>        -0.1477
      7 C6         -1.3933   -0.8106   -2.3638 C.ar      1 <0>        -0.0630
      8 C7         -1.1110   -1.0089   -1.0059 C.ar      1 <0>        -0.1193
      9 C8         -1.0078   -0.1352    0.1035 C.2       1 <0>        -0.1637
     10 C9         -0.7138   -0.8872    1.1962 C.2       1 <0>         0.0217
     11 C10        -0.5260   -0.3715    2.5606 C.2       1 <0>         0.5825
     12 O1         -0.4918   -1.1408    3.5023 O.2       1 <0>        -0.5354
     13 N2         -0.3918    0.9535    2.7677 N.am      1 <0>        -0.6029
     14 C11        -0.6107    1.8931    1.6651 C.3       1 <0>         0.0593
     15 C12        -0.0272    1.4542    4.0953 C.3       1 <0>         0.1156
     16 C13         1.4963    1.5419    4.2065 C.3       1 <0>        -0.1281
     17 C14         1.8771    2.0648    5.5930 C.3       1 <0>        -0.0781
     18 C15         3.3776    2.1512    5.7026 C.ar      1 <0>        -0.0821
     19 C16         4.1008    1.0661    6.1615 C.ar      1 <0>        -0.1172
     20 C17         5.4772    1.1454    6.2619 C.ar      1 <0>        -0.1180
     21 C18         6.1305    2.3096    5.9031 C.ar      1 <0>        -0.1248
     22 C19         5.4074    3.3943    5.4434 C.ar      1 <0>        -0.1185
     23 C20         4.0314    3.3136    5.3389 C.ar      1 <0>        -0.1180
     24 H1         -1.2203   -3.6529    2.2212 H         1 <0>         0.0750
     25 H2          0.0938   -4.1615    1.1337 H         1 <0>         0.0813
     26 H3          0.4252   -3.0156    2.4547 H         1 <0>         0.0908
     27 H4         -0.7073   -4.3853   -1.0610 H         1 <0>         0.1210
     28 H5         -1.2063   -3.9963   -3.4309 H         1 <0>         0.1277
     29 H6         -1.6416   -1.7224   -4.2598 H         1 <0>         0.1248
     30 H7         -1.5856    0.1844   -2.7372 H         1 <0>         0.1252
     31 H8         -1.1423    0.9362    0.0851 H         1 <0>         0.1735
     32 H9         -1.6651    1.8899    1.3890 H         1 <0>         0.0702
     33 H10        -0.3203    2.8957    1.9791 H         1 <0>         0.0804
     34 H11        -0.0094    1.5927    0.8070 H         1 <0>         0.0840
     35 H12        -0.4598    2.4439    4.2418 H         1 <0>         0.0836
     36 H13        -0.4086    0.7745    4.8573 H         1 <0>         0.0896
     37 H14         1.9289    0.5522    4.0600 H         1 <0>         0.0671
     38 H15         1.8777    2.2216    3.4445 H         1 <0>         0.0672
     39 H16         1.4445    3.0545    5.7396 H         1 <0>         0.0751
     40 H17         1.4957    1.3851    6.3550 H         1 <0>         0.0758
     41 H18         3.5904    0.1566    6.4418 H         1 <0>         0.1209
     42 H19         6.0421    0.2979    6.6211 H         1 <0>         0.1216
     43 H20         7.2058    2.3717    5.9823 H         1 <0>         0.1211
     44 H21         5.9178    4.3040    5.1634 H         1 <0>         0.1217
     45 H22         3.4668    4.1598    4.9762 H         1 <0>         0.1209
@<TRIPOS>BOND
     1    1    2 1
     2    1   24 1
     3    1   25 1
     4    1   26 1
     5    2   10 1
     6    2    3 1
     7    3    8 ar
     8    3    4 ar
     9    4    5 ar
    10    4   27 1
    11    5    6 ar
    12    5   28 1
    13    6    7 ar
    14    6   29 1
    15    7    8 ar
    16    7   30 1
    17    8    9 1
    18    9   10 2
    19    9   31 1
    20   10   11 1
    21   11   12 2
    22   11   13 am
    23   13   14 1
    24   13   15 1
    25   14   32 1
    26   14   33 1
    27   14   34 1
    28   15   16 1
    29   15   35 1
    30   15   36 1
    31   16   17 1
    32   16   37 1
    33   16   38 1
    34   17   18 1
    35   17   39 1
    36   17   40 1
    37   18   23 ar
    38   18   19 ar
    39   19   20 ar
    40   19   41 1
    41   20   21 ar
    42   20   42 1
    43   21   22 ar
    44   21   43 1
    45   22   23 ar
    46   22   44 1
    47   23   45 1
@<TRIPOS>MOLECULE
ZINC40861535
   42    44     0     0     0
SMALL
USER_CHARGES

@<TRIPOS>ATOM
      1 C1         -0.1786    1.4586    0.0144 C.3       1 <0>         0.0569
      2 N1         -0.0615   -0.0016    0.0045 N.am      1 <0>        -0.6161
      3 C2          0.0993   -0.7321    1.2642 C.3       1 <0>         0.1165
      4 C3         -1.2779   -1.1022    1.8185 C.3       1 <0>        -0.1288
      5 C4         -1.1101   -1.8651    3.1341 C.3       1 <0>        -0.0781
      6 C5         -2.4666   -2.2295    3.6800 C.ar      1 <0>        -0.0823
      7 C6         -3.1259   -1.3609    4.5296 C.ar      1 <0>        -0.1188
      8 C7         -4.3702   -1.6952    5.0304 C.ar      1 <0>        -0.1190
      9 C8         -4.9554   -2.8980    4.6813 C.ar      1 <0>        -0.1248
     10 C9         -4.2965   -3.7662    3.8310 C.ar      1 <0>        -0.1175
     11 C10        -3.0541   -3.4300    3.3268 C.ar      1 <0>        -0.1162
     12 C11        -0.1016   -0.6730   -1.1634 C.2       1 <0>         0.5848
     13 O1         -0.1194   -1.8894   -1.1655 O.2       1 <0>        -0.5140
     14 C12        -0.1239    0.0649   -2.4353 C.2       1 <0>         0.0103
     15 C13        -0.3261   -0.4847   -3.6613 C.2       1 <0>        -0.1004
     16 C14        -0.2726    0.5595   -4.6160 C.ar      1 <0>        -0.1218
     17 C15        -0.4072    0.5966   -6.0100 C.ar      1 <0>        -0.0588
     18 C16        -0.3028    1.7858   -6.6705 C.ar      1 <0>        -0.1485
     19 C17        -0.0633    2.9637   -5.9736 C.ar      1 <0>        -0.0840
     20 C18         0.0732    2.9532   -4.6037 C.ar      1 <0>        -0.1354
     21 C19        -0.0302    1.7522   -3.9070 C.ar      1 <0>         0.1094
     22 N2          0.0515    1.4281   -2.5734 N.pl3     1 <0>        -0.5861
     23 H1          0.2089    2.0536   -1.8489 H         1 <0>         0.4206
     24 H2          0.7998    1.9028   -0.1685 H         1 <0>         0.0624
     25 H3         -0.8719    1.7728   -0.7658 H         1 <0>         0.0771
     26 H4         -0.5508    1.7867    0.9849 H         1 <0>         0.0894
     27 H5          0.6754   -1.6402    1.0866 H         1 <0>         0.0886
     28 H6          0.6239   -0.1040    1.9841 H         1 <0>         0.0817
     29 H7         -1.8541   -0.1941    1.9961 H         1 <0>         0.0647
     30 H8         -1.8025   -1.7304    1.0986 H         1 <0>         0.0720
     31 H9         -0.5339   -2.7732    2.9565 H         1 <0>         0.0763
     32 H10        -0.5854   -1.2369    3.8540 H         1 <0>         0.0738
     33 H11        -2.6686   -0.4213    4.8023 H         1 <0>         0.1199
     34 H12        -4.8850   -1.0169    5.6947 H         1 <0>         0.1213
     35 H13        -5.9272   -3.1595    5.0731 H         1 <0>         0.1211
     36 H14        -4.7536   -4.7060    3.5585 H         1 <0>         0.1221
     37 H15        -2.5409   -4.1066    2.6596 H         1 <0>         0.1220
     38 H16        -0.4971   -1.5305   -3.8701 H         1 <0>         0.1562
     39 H17        -0.5928   -0.3140   -6.5604 H         1 <0>         0.1265
     40 H18        -0.4070    1.8118   -7.7452 H         1 <0>         0.1257
     41 H19         0.0169    3.8966   -6.5118 H         1 <0>         0.1285
     42 H20         0.2599    3.8740   -4.0710 H         1 <0>         0.1225
@<TRIPOS>BOND
     1    1    2 1
     2    1   24 1
     3    1   25 1
     4    1   26 1
     5    2    3 1
     6    2   12 am
     7    3    4 1
     8    3   27 1
     9    3   28 1
    10    4    5 1
    11    4   29 1
    12    4   30 1
    13    5    6 1
    14    5   31 1
    15    5   32 1
    16    6   11 ar
    17    6    7 ar
    18    7    8 ar
    19    7   33 1
    20    8    9 ar
    21    8   34 1
    22    9   10 ar
    23    9   35 1
    24   10   11 ar
    25   10   36 1
    26   11   37 1
    27   12   13 2
    28   12   14 1
    29   14   22 1
    30   14   15 2
    31   15   16 1
    32   15   38 1
    33   16   21 ar
    34   16   17 ar
    35   17   18 ar
    36   17   39 1
    37   18   19 ar
    38   18   40 1
    39   19   20 ar
    40   19   41 1
    41   20   21 ar
    42   20   42 1
    43   21   22 1
    44   22   23 1
@<TRIPOS>MOLECULE
ZINC37499453
   39    41     0     0     0
SMALL
USER_CHARGES

@<TRIPOS>ATOM
      1 C1         -0.1786    1.4586    0.0144 C.3       1 <0>         0.0562
      2 N1         -0.0615   -0.0016    0.0045 N.am      1 <0>        -0.6166
      3 C2          0.0993   -0.7321    1.2642 C.3       1 <0>         0.1236
      4 C3         -1.2779   -1.1022    1.8185 C.3       1 <0>        -0.0956
      5 C4         -1.1126   -1.8536    3.1143 C.ar      1 <0>        -0.0839
      6 C5         -0.9964   -3.2310    3.1045 C.ar      1 <0>        -0.1123
      7 C6         -0.8447   -3.9203    4.2931 C.ar      1 <0>        -0.1172
      8 C7         -0.8088   -3.2322    5.4914 C.ar      1 <0>        -0.1221
      9 C8         -0.9240   -1.8547    5.5011 C.ar      1 <0>        -0.1191
     10 C9         -1.0714   -1.1650    4.3122 C.ar      1 <0>        -0.1173
     11 C10        -0.1016   -0.6730   -1.1634 C.2       1 <0>         0.5850
     12 O1         -0.1194   -1.8894   -1.1655 O.2       1 <0>        -0.5135
     13 C11        -0.1239    0.0649   -2.4353 C.2       1 <0>         0.0102
     14 C12        -0.3261   -0.4847   -3.6613 C.2       1 <0>        -0.0999
     15 C13        -0.2726    0.5595   -4.6160 C.ar      1 <0>        -0.1219
     16 C14        -0.4072    0.5966   -6.0100 C.ar      1 <0>        -0.0587
     17 C15        -0.3028    1.7858   -6.6705 C.ar      1 <0>        -0.1485
     18 C16        -0.0633    2.9637   -5.9736 C.ar      1 <0>        -0.0839
     19 C17         0.0732    2.9532   -4.6037 C.ar      1 <0>        -0.1354
     20 C18        -0.0302    1.7522   -3.9070 C.ar      1 <0>         0.1096
     21 N2          0.0515    1.4281   -2.5734 N.pl3     1 <0>        -0.5861
     22 H1          0.2089    2.0536   -1.8489 H         1 <0>         0.4207
     23 H2          0.7998    1.9028   -0.1685 H         1 <0>         0.0629
     24 H3         -0.8719    1.7728   -0.7658 H         1 <0>         0.0779
     25 H4         -0.5508    1.7867    0.9849 H         1 <0>         0.0896
     26 H5          0.6754   -1.6402    1.0866 H         1 <0>         0.0896
     27 H6          0.6239   -0.1040    1.9841 H         1 <0>         0.0827
     28 H7         -1.8541   -0.1941    1.9961 H         1 <0>         0.0733
     29 H8         -1.8025   -1.7304    1.0986 H         1 <0>         0.0801
     30 H9         -1.0245   -3.7687    2.1683 H         1 <0>         0.1240
     31 H10        -0.7547   -4.9965    4.2855 H         1 <0>         0.1230
     32 H11        -0.6910   -3.7707    6.4201 H         1 <0>         0.1218
     33 H12        -0.8963   -1.3170    6.4374 H         1 <0>         0.1221
     34 H13        -1.1577   -0.0885    4.3195 H         1 <0>         0.1202
     35 H14        -0.4971   -1.5305   -3.8701 H         1 <0>         0.1564
     36 H15        -0.5928   -0.3140   -6.5604 H         1 <0>         0.1265
     37 H16        -0.4070    1.8118   -7.7452 H         1 <0>         0.1258
     38 H17         0.0169    3.8966   -6.5118 H         1 <0>         0.1286
     39 H18         0.2599    3.8740   -4.0710 H         1 <0>         0.1225
@<TRIPOS>BOND
     1    1    2 1
     2    1   23 1
     3    1   24 1
     4    1   25 1
     5    2    3 1
     6    2   11 am
     7    3    4 1
     8    3   26 1
     9    3   27 1
    10    4    5 1
    11    4   28 1
    12    4   29 1
    13    5   10 ar
    14    5    6 ar
    15    6    7 ar
    16    6   30 1
    17    7    8 ar
    18    7   31 1
    19    8    9 ar
    20    8   32 1
    21    9   10 ar
    22    9   33 1
    23   10   34 1
    24   11   12 2
    25   11   13 1
    26   13   21 1
    27   13   14 2
    28   14   15 1
    29   14   35 1
    30   15   20 ar
    31   15   16 ar
    32   16   17 ar
    33   16   36 1
    34   17   18 ar
    35   17   37 1
    36   18   19 ar
    37   18   38 1
    38   19   20 ar
    39   19   39 1
    40   20   21 1
    41   21   22 1
@<TRIPOS>MOLECULE
ZINC17298255
   39    41     0     0     0
SMALL
USER_CHARGES
N-(3-phenylpropyl)-1H-indole-2-carboxamide
@<TRIPOS>ATOM
      1 C1         -6.9833   -1.4015    0.0276 C.ar      1 <0>        -0.1235
      2 C2         -6.4584   -0.9517    1.2247 C.ar      1 <0>        -0.1180
      3 C3         -5.4197   -0.0395    1.2247 C.ar      1 <0>        -0.1174
      4 C4         -4.9062    0.4232    0.0276 C.ar      1 <0>        -0.0844
      5 C5         -5.4349   -0.0222   -1.1695 C.ar      1 <0>        -0.1173
      6 C6         -6.4700   -0.9384   -1.1695 C.ar      1 <0>        -0.1181
      7 C7         -3.7742    1.4180    0.0277 C.3       1 <0>        -0.0777
      8 C8         -2.4389    0.6711    0.0173 C.3       1 <0>        -0.1259
      9 C9         -1.2896    1.6810    0.0173 C.3       1 <0>         0.1180
     10 N1         -0.0111    0.9658    0.0074 N.am      1 <0>        -0.7300
     11 C10         1.1468    1.6555   -0.0000 C.2       1 <0>         0.5846
     12 O1          1.1303    2.8719    0.0067 O.2       1 <0>        -0.5176
     13 C11         2.4302    0.9376   -0.0161 C.2       1 <0>         0.0087
     14 C12         3.6579    1.5194   -0.0306 C.2       1 <0>        -0.0991
     15 C13         4.6249    0.4851   -0.0395 C.ar      1 <0>        -0.1222
     16 C14         6.0259    0.4777   -0.0529 C.ar      1 <0>        -0.0584
     17 C15         6.6982   -0.7094   -0.0656 C.ar      1 <0>        -0.1482
     18 C16         6.0065   -1.9144   -0.0655 C.ar      1 <0>        -0.0835
     19 C17         4.6300   -1.9335   -0.0521 C.ar      1 <0>        -0.1355
     20 C18         3.9213   -0.7351   -0.0393 C.ar      1 <0>         0.1151
     21 N2          2.5796   -0.4357   -0.0249 N.pl3     1 <0>        -0.5804
     22 H1          1.8566   -1.0824   -0.0220 H         1 <0>         0.4161
     23 H2         -7.7945   -2.1144    0.0275 H         1 <0>         0.1216
     24 H3         -6.8596   -1.3132    2.1600 H         1 <0>         0.1222
     25 H4         -5.0097    0.3119    2.1600 H         1 <0>         0.1214
     26 H5         -5.0366    0.3426   -2.1047 H         1 <0>         0.1214
     27 H6         -6.8803   -1.2895   -2.1048 H         1 <0>         0.1222
     28 H7         -3.8362    2.0389    0.9213 H         1 <0>         0.0779
     29 H8         -3.8446    2.0486   -0.8586 H         1 <0>         0.0779
     30 H9         -2.3769    0.0501   -0.8764 H         1 <0>         0.0718
     31 H10        -2.3685    0.0404    0.9035 H         1 <0>         0.0719
     32 H11        -1.3516    2.3020    0.9110 H         1 <0>         0.0740
     33 H12        -1.3601    2.3116   -0.8689 H         1 <0>         0.0739
     34 H13         0.0021   -0.0041    0.0020 H         1 <0>         0.3962
     35 H14         3.8601    2.5803   -0.0326 H         1 <0>         0.1572
     36 H15         6.5722    1.4093   -0.0534 H         1 <0>         0.1271
     37 H16         7.7781   -0.7125   -0.0756 H         1 <0>         0.1261
     38 H17         6.5540   -2.8453   -0.0754 H         1 <0>         0.1288
     39 H18         4.1014   -2.8753   -0.0523 H         1 <0>         0.1231
@<TRIPOS>BOND
     1    1    6 ar
     2    1    2 ar
     3    1   23 1
     4    2    3 ar
     5    2   24 1
     6    3    4 ar
     7    3   25 1
     8    4    5 ar
     9    4    7 1
    10    5    6 ar
    11    5   26 1
    12    6   27 1
    13    7    8 1
    14    7   28 1
    15    7   29 1
    16    8    9 1
    17    8   30 1
    18    8   31 1
    19    9   10 1
    20    9   32 1
    21    9   33 1
    22   10   11 am
    23   10   34 1
    24   11   12 2
    25   11   13 1
    26   13   21 1
    27   13   14 2
    28   14   15 1
    29   14   35 1
    30   15   20 ar
    31   15   16 ar
    32   16   17 ar
    33   16   36 1
    34   17   18 ar
    35   17   37 1
    36   18   19 ar
    37   18   38 1
    38   19   20 ar
    39   19   39 1
    40   20   21 1
    41   21   22 1
@<TRIPOS>MOLECULE
ZINC12653902
   36    38     0     0     0
SMALL
USER_CHARGES

@<TRIPOS>ATOM
      1 C1         -0.0167    1.3781    0.0096 C.ar      1 <0>        -0.1193
      2 C2          1.1709    2.0855    0.0021 C.ar      1 <0>        -0.1176
      3 C3          2.3773    1.4107   -0.0130 C.ar      1 <0>        -0.1134
      4 C4          2.3960    0.0285   -0.0201 C.ar      1 <0>        -0.0862
      5 C5          1.2084   -0.6789   -0.0117 C.ar      1 <0>        -0.1134
      6 C6          0.0021   -0.0041    0.0020 C.ar      1 <0>        -0.1176
      7 C7          3.7112   -0.7071   -0.0376 C.3       1 <0>        -0.0914
      8 C8          4.1714   -0.9633    1.3989 C.3       1 <0>         0.1246
      9 N1          5.4498   -1.6784    1.3820 N.am      1 <0>        -0.7307
     10 C9          6.0502   -2.0132    2.5413 C.2       1 <0>         0.5849
     11 O1          5.5304   -1.7216    3.6017 O.2       1 <0>        -0.5164
     12 C10         7.3335   -2.7311    2.5242 C.2       1 <0>         0.0089
     13 C11         8.0296   -3.1262    3.6221 C.2       1 <0>        -0.0989
     14 C12         9.2033   -3.7805    3.1759 C.ar      1 <0>        -0.1222
     15 C13        10.2790   -4.3853    3.8392 C.ar      1 <0>        -0.0584
     16 C14        11.2916   -4.9475    3.1179 C.ar      1 <0>        -0.1482
     17 C15        11.2674   -4.9262    1.7288 C.ar      1 <0>        -0.0835
     18 C16        10.2217   -4.3376    1.0541 C.ar      1 <0>        -0.1355
     19 C17         9.1762   -3.7580    1.7678 C.ar      1 <0>         0.1152
     20 N2          8.0206   -3.1164    1.3894 N.pl3     1 <0>        -0.5804
     21 H1          7.7358   -2.9582    0.4757 H         1 <0>         0.4161
     22 H2         -0.9591    1.9053    0.0259 H         1 <0>         0.1230
     23 H3          1.1563    3.1654    0.0076 H         1 <0>         0.1236
     24 H4          3.3051    1.9634   -0.0196 H         1 <0>         0.1223
     25 H5          1.2231   -1.7588   -0.0176 H         1 <0>         0.1223
     26 H6         -0.9258   -0.5567    0.0082 H         1 <0>         0.1236
     27 H7          3.5884   -1.6586   -0.5549 H         1 <0>         0.0803
     28 H8          4.4573   -0.1052   -0.5563 H         1 <0>         0.0803
     29 H9          4.2941   -0.0118    1.9163 H         1 <0>         0.0749
     30 H10         3.4252   -1.5652    1.9176 H         1 <0>         0.0749
     31 H11         5.8643   -1.9110    0.5363 H         1 <0>         0.3962
     32 H12         7.7397   -2.9694    4.6506 H         1 <0>         0.1572
     33 H13        10.3069   -4.4062    4.9186 H         1 <0>         0.1271
     34 H14        12.1197   -5.4131    3.6314 H         1 <0>         0.1261
     35 H15        12.0771   -5.3754    1.1730 H         1 <0>         0.1289
     36 H16        10.2123   -4.3254   -0.0258 H         1 <0>         0.1231
@<TRIPOS>BOND
     1    1    6 ar
     2    1    2 ar
     3    1   22 1
     4    2    3 ar
     5    2   23 1
     6    3    4 ar
     7    3   24 1
     8    4    5 ar
     9    4    7 1
    10    5    6 ar
    11    5   25 1
    12    6   26 1
    13    7    8 1
    14    7   27 1
    15    7   28 1
    16    8    9 1
    17    8   29 1
    18    8   30 1
    19    9   10 am
    20    9   31 1
    21   10   11 2
    22   10   12 1
    23   12   20 1
    24   12   13 2
    25   13   14 1
    26   13   32 1
    27   14   19 ar
    28   14   15 ar
    29   15   16 ar
    30   15   33 1
    31   16   17 ar
    32   16   34 1
    33   17   18 ar
    34   17   35 1
    35   18   19 ar
    36   18   36 1
    37   19   20 1
    38   20   21 1
@<TRIPOS>MOLECULE
ZINC12653902
   37    39     0     0     0
SMALL
USER_CHARGES

@<TRIPOS>ATOM
      1 C1         -0.0167    1.3781    0.0096 C.ar      1 <0>        -0.1070
      2 C2          1.1709    2.0855    0.0021 C.ar      1 <0>        -0.1150
      3 C3          2.3773    1.4107   -0.0130 C.ar      1 <0>        -0.1111
      4 C4          2.3960    0.0285   -0.0201 C.ar      1 <0>        -0.1057
      5 C5          1.2084   -0.6789   -0.0117 C.ar      1 <0>        -0.1104
      6 C6          0.0021   -0.0041    0.0020 C.ar      1 <0>        -0.1143
      7 C7          3.7112   -0.7071   -0.0376 C.3       1 <0>        -0.0925
      8 C8          4.1714   -0.9633    1.3989 C.3       1 <0>         0.0670
      9 N1          5.4498   -1.6784    1.3820 N.pl3     1 <0>        -0.5585
     10 C9          6.5224   -1.1064    1.8504 C.2       1 <0>         0.5743
     11 C10         7.8081   -1.8256    1.8333 C.2       1 <0>        -0.0562
     12 C11         8.0010   -3.0799    1.3522 C.2       1 <0>        -0.0379
     13 C12         9.3710   -3.4006    1.5200 C.ar      1 <0>        -0.1352
     14 C13        10.1385   -4.5322    1.2170 C.ar      1 <0>        -0.0459
     15 C14        11.4723   -4.5452    1.5059 C.ar      1 <0>        -0.1350
     16 C15        12.0781   -3.4448    2.0988 C.ar      1 <0>        -0.0436
     17 C16        11.3444   -2.3208    2.4066 C.ar      1 <0>        -0.1444
     18 C17         9.9828   -2.2838    2.1210 C.ar      1 <0>         0.1601
     19 N2          9.0085   -1.3285    2.2986 N.pl3     1 <0>        -0.5772
     20 H1          9.1428   -0.4509    2.6893 H         1 <0>         0.4261
     21 O1          6.4556    0.1483    2.3526 O.3       1 <0>        -0.4263
     22 H2         -0.9591    1.9053    0.0259 H         1 <0>         0.1287
     23 H3          1.1563    3.1654    0.0076 H         1 <0>         0.1281
     24 H4          3.3051    1.9634   -0.0196 H         1 <0>         0.1220
     25 H5          1.2231   -1.7588   -0.0176 H         1 <0>         0.1248
     26 H6         -0.9258   -0.5567    0.0082 H         1 <0>         0.1289
     27 H7          3.5884   -1.6586   -0.5549 H         1 <0>         0.0918
     28 H8          4.4573   -0.1052   -0.5563 H         1 <0>         0.0869
     29 H9          4.2941   -0.0118    1.9163 H         1 <0>         0.1234
     30 H10         3.4252   -1.5652    1.9176 H         1 <0>         0.1256
     31 H11         7.2457   -3.7191    0.9195 H         1 <0>         0.1680
     32 H12         9.6759   -5.3926    0.7563 H         1 <0>         0.1392
     33 H13        12.0620   -5.4191    1.2717 H         1 <0>         0.1409
     34 H14        13.1347   -3.4711    2.3210 H         1 <0>         0.1443
     35 H15        11.8243   -1.4704    2.8681 H         1 <0>         0.1371
     36 H16         7.3012    0.4880    2.6761 H         1 <0>         0.4474
     37 H17         5.4977   -2.5779    1.0219 H         1 <0>         0.4515
@<TRIPOS>BOND
     1    1    6 ar
     2    1    2 ar
     3    1   22 1
     4    2    3 ar
     5    2   23 1
     6    3    4 ar
     7    3   24 1
     8    4    5 ar
     9    4    7 1
    10    5    6 ar
    11    5   25 1
    12    6   26 1
    13    7    8 1
    14    7   27 1
    15    7   28 1
    16    8    9 1
    17    8   29 1
    18    8   30 1
    19    9   10 2
    20    9   37 1
    21   10   11 1
    22   10   21 1
    23   11   19 1
    24   11   12 2
    25   12   13 1
    26   12   31 1
    27   13   18 ar
    28   13   14 ar
    29   14   15 ar
    30   14   32 1
    31   15   16 ar
    32   15   33 1
    33   16   17 ar
    34   16   34 1
    35   17   18 ar
    36   17   35 1
    37   18   19 1
    38   19   20 1
    39   21   36 1
@<TRIPOS>MOLECULE
ZINC00338381
   33    35     0     0     0
SMALL
USER_CHARGES
N-methyl-N-phenyl-1H-indole-2-carboxamide
@<TRIPOS>ATOM
      1 C1          4.0097   -2.0031    0.6350 C.3       1 <0>         0.0444
      2 N1          3.7682   -0.6176    0.2247 N.am      1 <0>        -0.5528
      3 C2          2.4662   -0.1080    0.2153 C.ar      1 <0>         0.1473
      4 C3          1.4190   -0.8646    0.7255 C.ar      1 <0>        -0.1607
      5 C4          0.1342   -0.3581    0.7152 C.ar      1 <0>        -0.0956
      6 C5         -0.1103    0.9007    0.1976 C.ar      1 <0>        -0.1419
      7 C6          0.9300    1.6565   -0.3112 C.ar      1 <0>        -0.0950
      8 C7          2.2172    1.1560   -0.3038 C.ar      1 <0>        -0.1592
      9 C8          4.8012    0.1658   -0.1438 C.2       1 <0>         0.5861
     10 O1          4.6196    1.3487   -0.3627 O.2       1 <0>        -0.4929
     11 C9          6.1473   -0.4090   -0.2810 C.2       1 <0>         0.0054
     12 C10         7.2907    0.2997   -0.4737 C.2       1 <0>        -0.0904
     13 C11         8.3616   -0.6230   -0.5528 C.ar      1 <0>        -0.1233
     14 C12         9.7427   -0.4804   -0.7403 C.ar      1 <0>        -0.0569
     15 C13        10.5411   -1.5864   -0.7722 C.ar      1 <0>        -0.1480
     16 C14         9.9974   -2.8561   -0.6211 C.ar      1 <0>        -0.0810
     17 C15         8.6434   -3.0223   -0.4360 C.ar      1 <0>        -0.1360
     18 C16         7.8080   -1.9091   -0.3993 C.ar      1 <0>         0.1131
     19 N2          6.4524   -1.7553   -0.2288 N.pl3     1 <0>        -0.5870
     20 H1          5.8148   -2.4741   -0.0962 H         1 <0>         0.4209
     21 H2          4.0012   -2.6488   -0.2431 H         1 <0>         0.0729
     22 H3          4.9795   -2.0724    1.1276 H         1 <0>         0.0882
     23 H4          3.2279   -2.3189    1.3258 H         1 <0>         0.0987
     24 H5          1.6092   -1.8479    1.1296 H         1 <0>         0.1260
     25 H6         -0.6805   -0.9460    1.1114 H         1 <0>         0.1265
     26 H7         -1.1166    1.2926    0.1866 H         1 <0>         0.1232
     27 H8          0.7356    2.6391   -0.7150 H         1 <0>         0.1272
     28 H9          3.0292    1.7468   -0.7013 H         1 <0>         0.1747
     29 H10         7.3686    1.3741   -0.5520 H         1 <0>         0.1588
     30 H11        10.1744    0.5025   -0.8586 H         1 <0>         0.1276
     31 H12        11.6054   -1.4739   -0.9170 H         1 <0>         0.1268
     32 H13        10.6434   -3.7211   -0.6495 H         1 <0>         0.1296
     33 H14         8.2304   -4.0133   -0.3191 H         1 <0>         0.1235
@<TRIPOS>BOND
     1    1    2 1
     2    1   21 1
     3    1   22 1
     4    1   23 1
     5    2    3 1
     6    2    9 am
     7    3    8 ar
     8    3    4 ar
     9    4    5 ar
    10    4   24 1
    11    5    6 ar
    12    5   25 1
    13    6    7 ar
    14    6   26 1
    15    7    8 ar
    16    7   27 1
    17    8   28 1
    18    9   10 2
    19    9   11 1
    20   11   19 1
    21   11   12 2
    22   12   13 1
    23   12   29 1
    24   13   18 ar
    25   13   14 ar
    26   14   15 ar
    27   14   30 1
    28   15   16 ar
    29   15   31 1
    30   16   17 ar
    31   16   32 1
    32   17   18 ar
    33   17   33 1
    34   18   19 1
    35   19   20 1
@<TRIPOS>MOLECULE
ZINC05394709
   36    38     0     0     0
SMALL
USER_CHARGES
N,1-dimethyl-N-phenyl-indole-2-carboxamide
@<TRIPOS>ATOM
      1 C1          4.7441   -3.1170    0.4413 C.3       1 <0>         0.0633
      2 N1          5.9256   -2.2594    0.3202 N.pl3     1 <0>        -0.4483
      3 C2          7.2297   -2.6934    0.2858 C.ar      1 <0>         0.1112
      4 C3          7.8159   -3.9547    0.3486 C.ar      1 <0>        -0.1299
      5 C4          9.1862   -4.0760    0.2943 C.ar      1 <0>        -0.0852
      6 C5          9.9928   -2.9507    0.1781 C.ar      1 <0>        -0.1468
      7 C6          9.4416   -1.7042    0.1152 C.ar      1 <0>        -0.0616
      8 C7          8.0496   -1.5542    0.1680 C.ar      1 <0>        -0.1202
      9 C8          7.1906   -0.4294    0.1282 C.2       1 <0>        -0.1542
     10 C9          5.9124   -0.8817    0.2187 C.2       1 <0>         0.0171
     11 C10         4.7078   -0.0388    0.2153 C.2       1 <0>         0.5849
     12 O1          3.6238   -0.5260    0.4755 O.2       1 <0>        -0.5145
     13 N2          4.8044    1.2735   -0.0760 N.am      1 <0>        -0.5382
     14 C11         6.0797    1.8301   -0.5345 C.3       1 <0>         0.0441
     15 C12         3.6875    2.1038    0.0594 C.ar      1 <0>         0.1488
     16 C13         3.7443    3.4227   -0.3726 C.ar      1 <0>        -0.1580
     17 C14         2.6392    4.2400   -0.2379 C.ar      1 <0>        -0.0960
     18 C15         1.4771    3.7466    0.3264 C.ar      1 <0>        -0.1423
     19 C16         1.4173    2.4340    0.7574 C.ar      1 <0>        -0.0969
     20 C17         2.5188    1.6114    0.6257 C.ar      1 <0>        -0.1605
     21 H1          4.4951   -3.5325   -0.5352 H         1 <0>         0.0722
     22 H2          4.9538   -3.9282    1.1385 H         1 <0>         0.0803
     23 H3          3.9042   -2.5286    0.8106 H         1 <0>         0.1117
     24 H4          7.1974   -4.8354    0.4397 H         1 <0>         0.1222
     25 H5          9.6386   -5.0555    0.3428 H         1 <0>         0.1288
     26 H6         11.0661   -3.0638    0.1368 H         1 <0>         0.1259
     27 H7         10.0768   -0.8353    0.0253 H         1 <0>         0.1264
     28 H8          7.4964    0.6027    0.0416 H         1 <0>         0.1713
     29 H9          6.6767    2.1285    0.3273 H         1 <0>         0.0775
     30 H10         6.6200    1.0765   -1.1075 H         1 <0>         0.1022
     31 H11         5.8912    2.6995   -1.1644 H         1 <0>         0.0872
     32 H12         4.6517    3.8087   -0.8130 H         1 <0>         0.1284
     33 H13         2.6828    5.2657   -0.5732 H         1 <0>         0.1267
     34 H14         0.6158    4.3891    0.4347 H         1 <0>         0.1225
     35 H15         0.5081    2.0517    1.1976 H         1 <0>         0.1256
     36 H16         2.4713    0.5863    0.9622 H         1 <0>         0.1741
@<TRIPOS>BOND
     1    1    2 1
     2    1   21 1
     3    1   22 1
     4    1   23 1
     5    2   10 1
     6    2    3 1
     7    3    8 ar
     8    3    4 ar
     9    4    5 ar
    10    4   24 1
    11    5    6 ar
    12    5   25 1
    13    6    7 ar
    14    6   26 1
    15    7    8 ar
    16    7   27 1
    17    8    9 1
    18    9   10 2
    19    9   28 1
    20   10   11 1
    21   11   12 2
    22   11   13 am
    23   13   14 1
    24   13   15 1
    25   14   29 1
    26   14   30 1
    27   14   31 1
    28   15   20 ar
    29   15   16 ar
    30   16   17 ar
    31   16   32 1
    32   17   18 ar
    33   17   33 1
    34   18   19 ar
    35   18   34 1
    36   19   20 ar
    37   19   35 1
    38   20   36 1
@<TRIPOS>MOLECULE
ZINC06649233
   33    35     0     0     0
SMALL
USER_CHARGES

@<TRIPOS>ATOM
      1 C1         -0.0167    1.3781    0.0096 C.ar      1 <0>        -0.1094
      2 C2          1.1709    2.0855    0.0021 C.ar      1 <0>        -0.1212
      3 C3          2.3773    1.4107   -0.0130 C.ar      1 <0>        -0.1003
      4 C4          2.3960    0.0285   -0.0201 C.ar      1 <0>        -0.1149
      5 C5          1.2084   -0.6789   -0.0117 C.ar      1 <0>        -0.1003
      6 C6          0.0021   -0.0041    0.0020 C.ar      1 <0>        -0.1212
      7 C7          3.7112   -0.7071   -0.0376 C.3       1 <0>         0.1620
      8 N1          4.1518   -0.9524    1.3379 N.am      1 <0>        -0.7253
      9 C8          5.3108   -1.6005    1.5688 C.2       1 <0>         0.5849
     10 O1          5.9909   -1.9817    0.6351 O.2       1 <0>        -0.5173
     11 C9          5.7531   -1.8467    2.9495 C.2       1 <0>         0.0094
     12 C10         6.8998   -2.4811    3.3079 C.2       1 <0>        -0.0988
     13 C11         6.9516   -2.5115    4.7225 C.ar      1 <0>        -0.1222
     14 C12         7.8771   -3.0247    5.6407 C.ar      1 <0>        -0.0584
     15 C13         7.6460   -2.8990    6.9795 C.ar      1 <0>        -0.1483
     16 C14         6.4993   -2.2662    7.4432 C.ar      1 <0>        -0.0835
     17 C15         5.5747   -1.7541    6.5610 C.ar      1 <0>        -0.1355
     18 C16         5.7886   -1.8691    5.1901 C.ar      1 <0>         0.1153
     19 N2          5.0717   -1.4646    4.0889 N.pl3     1 <0>        -0.5803
     20 H1          4.2255   -0.9909    4.1087 H         1 <0>         0.4162
     21 H2         -0.9591    1.9053    0.0259 H         1 <0>         0.1250
     22 H3          1.1563    3.1654    0.0076 H         1 <0>         0.1257
     23 H4          3.3051    1.9634   -0.0196 H         1 <0>         0.1248
     24 H5          1.2231   -1.7588   -0.0176 H         1 <0>         0.1248
     25 H6         -0.9258   -0.5567    0.0082 H         1 <0>         0.1257
     26 H7          3.5884   -1.6586   -0.5549 H         1 <0>         0.0817
     27 H8          4.4573   -0.1052   -0.5563 H         1 <0>         0.0818
     28 H9          3.6095   -0.6484    2.0824 H         1 <0>         0.3972
     29 H10         7.6392   -2.8890    2.6346 H         1 <0>         0.1574
     30 H11         8.7710   -3.5188    5.2896 H         1 <0>         0.1271
     31 H12         8.3609   -3.2955    7.6853 H         1 <0>         0.1261
     32 H13         6.3314   -2.1755    8.5062 H         1 <0>         0.1288
     33 H14         4.6861   -1.2646    6.9314 H         1 <0>         0.1230
@<TRIPOS>BOND
     1    1    6 ar
     2    1    2 ar
     3    1   21 1
     4    2    3 ar
     5    2   22 1
     6    3    4 ar
     7    3   23 1
     8    4    5 ar
     9    4    7 1
    10    5    6 ar
    11    5   24 1
    12    6   25 1
    13    7    8 1
    14    7   26 1
    15    7   27 1
    16    8    9 am
    17    8   28 1
    18    9   10 2
    19    9   11 1
    20   11   19 1
    21   11   12 2
    22   12   13 1
    23   12   29 1
    24   13   18 ar
    25   13   14 ar
    26   14   15 ar
    27   14   30 1
    28   15   16 ar
    29   15   31 1
    30   16   17 ar
    31   16   32 1
    32   17   18 ar
    33   17   33 1
    34   18   19 1
    35   19   20 1
@<TRIPOS>MOLECULE
ZINC06649233
   34    36     0     0     0
SMALL
USER_CHARGES

@<TRIPOS>ATOM
      1 C1         -0.0167    1.3781    0.0096 C.ar      1 <0>        -0.0895
      2 C2          1.1709    2.0855    0.0021 C.ar      1 <0>        -0.1156
      3 C3          2.3773    1.4107   -0.0130 C.ar      1 <0>        -0.0946
      4 C4          2.3960    0.0285   -0.0201 C.ar      1 <0>        -0.1489
      5 C5          1.2084   -0.6789   -0.0117 C.ar      1 <0>        -0.0946
      6 C6          0.0021   -0.0041    0.0020 C.ar      1 <0>        -0.1168
      7 C7          3.7112   -0.7071   -0.0376 C.3       1 <0>         0.1142
      8 N1          4.1518   -0.9524    1.3379 N.pl3     1 <0>        -0.5538
      9 C8          4.2392   -2.1724    1.7861 C.2       1 <0>         0.5740
     10 C9          4.6823   -2.4191    3.1694 C.2       1 <0>        -0.0552
     11 C10         5.0196   -1.4611    4.0695 C.2       1 <0>        -0.0383
     12 C11         5.3866   -2.1107    5.2742 C.ar      1 <0>        -0.1349
     13 C12         5.8173   -1.6485    6.5240 C.ar      1 <0>        -0.0459
     14 C13         6.1042   -2.5410    7.5159 C.ar      1 <0>        -0.1352
     15 C14         5.9730   -3.9066    7.2981 C.ar      1 <0>        -0.0441
     16 C15         5.5516   -4.3853    6.0776 C.ar      1 <0>        -0.1441
     17 C16         5.2527   -3.4945    5.0508 C.ar      1 <0>         0.1597
     18 N2          4.8146   -3.6607    3.7571 N.pl3     1 <0>        -0.5771
     19 H1          4.6314   -4.5110    3.3278 H         1 <0>         0.4259
     20 O1          3.9230   -3.2132    0.9812 O.3       1 <0>        -0.4276
     21 H2         -0.9591    1.9053    0.0259 H         1 <0>         0.1338
     22 H3          1.1563    3.1654    0.0076 H         1 <0>         0.1346
     23 H4          3.3051    1.9634   -0.0196 H         1 <0>         0.1307
     24 H5          1.2231   -1.7588   -0.0176 H         1 <0>         0.1249
     25 H6         -0.9258   -0.5567    0.0082 H         1 <0>         0.1328
     26 H7          3.5884   -1.6586   -0.5549 H         1 <0>         0.1286
     27 H8          4.4573   -0.1052   -0.5563 H         1 <0>         0.1313
     28 H9          5.0106   -0.3948    3.8982 H         1 <0>         0.1674
     29 H10         5.9226   -0.5885    6.7024 H         1 <0>         0.1390
     30 H11         6.4366   -2.1822    8.4788 H         1 <0>         0.1407
     31 H12         6.2041   -4.5996    8.0935 H         1 <0>         0.1441
     32 H13         5.4534   -5.4488    5.9175 H         1 <0>         0.1370
     33 H14         4.0187   -4.0787    1.4016 H         1 <0>         0.4472
     34 H15         4.3785   -0.2063    1.9149 H         1 <0>         0.4505
@<TRIPOS>BOND
     1    1    6 ar
     2    1    2 ar
     3    1   21 1
     4    2    3 ar
     5    2   22 1
     6    3    4 ar
     7    3   23 1
     8    4    5 ar
     9    4    7 1
    10    5    6 ar
    11    5   24 1
    12    6   25 1
    13    7    8 1
    14    7   26 1
    15    7   27 1
    16    8    9 2
    17    8   34 1
    18    9   10 1
    19    9   20 1
    20   10   18 1
    21   10   11 2
    22   11   12 1
    23   11   28 1
    24   12   17 ar
    25   12   13 ar
    26   13   14 ar
    27   13   29 1
    28   14   15 ar
    29   14   30 1
    30   15   16 ar
    31   15   31 1
    32   16   17 ar
    33   16   32 1
    34   17   18 1
    35   18   19 1
    36   20   33 1
@<TRIPOS>MOLECULE
ZINC40829304
   42    44     0     0     0
SMALL
USER_CHARGES

@<TRIPOS>ATOM
      1 C1         -0.3098   -3.3324    1.7148 C.3       1 <0>         0.0807
      2 N1         -0.6165   -2.2131    0.8208 N.pl3     1 <0>        -0.4515
      3 C2         -0.8607   -2.3102   -0.5287 C.ar      1 <0>         0.1084
      4 C3         -0.8979   -3.3830   -1.4153 C.ar      1 <0>        -0.1303
      5 C4         -1.1780   -3.1625   -2.7450 C.ar      1 <0>        -0.0878
      6 C5         -1.4242   -1.8778   -3.2134 C.ar      1 <0>        -0.1477
      7 C6         -1.3933   -0.8106   -2.3638 C.ar      1 <0>        -0.0629
      8 C7         -1.1110   -1.0089   -1.0059 C.ar      1 <0>        -0.1194
      9 C8         -1.0078   -0.1352    0.1035 C.2       1 <0>        -0.1633
     10 C9         -0.7138   -0.8872    1.1962 C.2       1 <0>         0.0215
     11 C10        -0.5260   -0.3715    2.5606 C.2       1 <0>         0.5825
     12 O1         -0.4918   -1.1408    3.5023 O.2       1 <0>        -0.5345
     13 N2         -0.3918    0.9535    2.7677 N.am      1 <0>        -0.6035
     14 C11        -0.6107    1.8931    1.6651 C.3       1 <0>         0.0586
     15 C12        -0.0272    1.4542    4.0953 C.3       1 <0>         0.1227
     16 C13         1.4963    1.5419    4.2065 C.3       1 <0>        -0.0950
     17 C14         1.8714    2.0569    5.5722 C.ar      1 <0>        -0.0836
     18 C15         2.0035    3.4162    5.7860 C.ar      1 <0>        -0.1162
     19 C16         2.3476    3.8887    7.0387 C.ar      1 <0>        -0.1187
     20 C17         2.5592    3.0018    8.0777 C.ar      1 <0>        -0.1220
     21 C18         2.4262    1.6425    7.8642 C.ar      1 <0>        -0.1175
     22 C19         2.0779    1.1704    6.6125 C.ar      1 <0>        -0.1129
     23 H1         -1.2203   -3.6529    2.2212 H         1 <0>         0.0750
     24 H2          0.0938   -4.1615    1.1337 H         1 <0>         0.0814
     25 H3          0.4252   -3.0156    2.4547 H         1 <0>         0.0909
     26 H4         -0.7073   -4.3853   -1.0610 H         1 <0>         0.1210
     27 H5         -1.2063   -3.9963   -3.4309 H         1 <0>         0.1278
     28 H6         -1.6416   -1.7224   -4.2598 H         1 <0>         0.1248
     29 H7         -1.5856    0.1844   -2.7372 H         1 <0>         0.1253
     30 H8         -1.1423    0.9362    0.0851 H         1 <0>         0.1736
     31 H9         -1.6651    1.8899    1.3890 H         1 <0>         0.0707
     32 H10        -0.3203    2.8957    1.9791 H         1 <0>         0.0806
     33 H11        -0.0094    1.5927    0.8070 H         1 <0>         0.0848
     34 H12        -0.4598    2.4439    4.2418 H         1 <0>         0.0845
     35 H13        -0.4086    0.7745    4.8573 H         1 <0>         0.0906
     36 H14         1.9289    0.5522    4.0600 H         1 <0>         0.0752
     37 H15         1.8777    2.2216    3.4445 H         1 <0>         0.0758
     38 H16         1.8382    4.1091    4.9742 H         1 <0>         0.1214
     39 H17         2.4515    4.9506    7.2055 H         1 <0>         0.1225
     40 H18         2.8287    3.3709    9.0563 H         1 <0>         0.1218
     41 H19         2.5918    0.9496    8.6759 H         1 <0>         0.1225
     42 H20         1.9703    0.1086    6.4466 H         1 <0>         0.1223
@<TRIPOS>BOND
     1    1    2 1
     2    1   23 1
     3    1   24 1
     4    1   25 1
     5    2   10 1
     6    2    3 1
     7    3    8 ar
     8    3    4 ar
     9    4    5 ar
    10    4   26 1
    11    5    6 ar
    12    5   27 1
    13    6    7 ar
    14    6   28 1
    15    7    8 ar
    16    7   29 1
    17    8    9 1
    18    9   10 2
    19    9   30 1
    20   10   11 1
    21   11   12 2
    22   11   13 am
    23   13   14 1
    24   13   15 1
    25   14   31 1
    26   14   32 1
    27   14   33 1
    28   15   16 1
    29   15   34 1
    30   15   35 1
    31   16   17 1
    32   16   36 1
    33   16   37 1
    34   17   22 ar
    35   17   18 ar
    36   18   19 ar
    37   18   38 1
    38   19   20 ar
    39   19   39 1
    40   20   21 ar
    41   20   40 1
    42   21   22 ar
    43   21   41 1
    44   22   42 1
@<TRIPOS>MOLECULE
ZINC07909008
   36    38     0     0     0
SMALL
USER_CHARGES

@<TRIPOS>ATOM
      1 C1         -0.0187    1.5258    0.0104 C.3       1 <0>        -0.1595
      2 C2          0.0021   -0.0041    0.0020 C.3       1 <0>         0.1847
      3 H1          0.5293   -0.3651    0.8851 H         1 <0>         0.1018
      4 C3         -1.4117   -0.5257    0.0127 C.ar      1 <0>        -0.0948
      5 C4         -2.1414   -0.5688   -1.1606 C.ar      1 <0>        -0.1177
      6 C5         -3.4383   -1.0473   -1.1508 C.ar      1 <0>        -0.1148
      7 C6         -4.0053   -1.4831    0.0322 C.ar      1 <0>        -0.1170
      8 C7         -3.2753   -1.4408    1.2054 C.ar      1 <0>        -0.1132
      9 C8         -1.9770   -0.9663    1.1948 C.ar      1 <0>        -0.1059
     10 N1          0.6878   -0.4765   -1.2033 N.am      1 <0>        -0.7241
     11 C9          2.0310   -0.5870   -1.2149 C.2       1 <0>         0.5873
     12 O1          2.6739   -0.2944   -0.2246 O.2       1 <0>        -0.5164
     13 C10         2.7193   -1.0612   -2.4249 C.2       1 <0>         0.0089
     14 C11         4.0623   -1.2194   -2.5561 C.2       1 <0>        -0.0983
     15 C12         4.3147   -1.6917   -3.8669 C.ar      1 <0>        -0.1221
     16 C13         5.4850   -2.0281   -4.5597 C.ar      1 <0>        -0.0583
     17 C14         5.4080   -2.4652   -5.8499 C.ar      1 <0>        -0.1482
     18 C15         4.1781   -2.5800   -6.4859 C.ar      1 <0>        -0.0833
     19 C16         3.0140   -2.2551   -5.8265 C.ar      1 <0>        -0.1356
     20 C17         3.0665   -1.8076   -4.5092 C.ar      1 <0>         0.1155
     21 N2          2.1030   -1.4226   -3.6072 N.pl3     1 <0>        -0.5805
     22 H2          1.1477   -1.4052   -3.7744 H         1 <0>         0.4155
     23 H3          1.0039    1.9031    0.0027 H         1 <0>         0.0680
     24 H4         -0.5459    1.8868   -0.8726 H         1 <0>         0.0594
     25 H5         -0.5289    1.8773    0.9072 H         1 <0>         0.0717
     26 H6         -1.6984   -0.2284   -2.0848 H         1 <0>         0.1172
     27 H7         -4.0086   -1.0803   -2.0673 H         1 <0>         0.1246
     28 H8         -5.0188   -1.8562    0.0400 H         1 <0>         0.1246
     29 H9         -3.7184   -1.7809    2.1297 H         1 <0>         0.1265
     30 H10        -1.4054   -0.9367    2.1106 H         1 <0>         0.1266
     31 H11         0.1751   -0.7099   -1.9930 H         1 <0>         0.3949
     32 H12         4.8043   -1.0206   -1.7969 H         1 <0>         0.1574
     33 H13         6.4457   -1.9415   -4.0739 H         1 <0>         0.1271
     34 H14         6.3116   -2.7239   -6.3819 H         1 <0>         0.1261
     35 H15         4.1348   -2.9271   -7.5076 H         1 <0>         0.1288
     36 H16         2.0628   -2.3470   -6.3297 H         1 <0>         0.1230
@<TRIPOS>BOND
     1    1    2 1
     2    1   23 1
     3    1   24 1
     4    1   25 1
     5    2    3 1
     6    2    4 1
     7    2   10 1
     8    4    9 ar
     9    4    5 ar
    10    5    6 ar
    11    5   26 1
    12    6    7 ar
    13    6   27 1
    14    7    8 ar
    15    7   28 1
    16    8    9 ar
    17    8   29 1
    18    9   30 1
    19   10   11 am
    20   10   31 1
    21   11   12 2
    22   11   13 1
    23   13   21 1
    24   13   14 2
    25   14   15 1
    26   14   32 1
    27   15   20 ar
    28   15   16 ar
    29   16   17 ar
    30   16   33 1
    31   17   18 ar
    32   17   34 1
    33   18   19 ar
    34   18   35 1
    35   19   20 ar
    36   19   36 1
    37   20   21 1
    38   21   22 1
@<TRIPOS>MOLECULE
ZINC07909008
   37    39     0     0     0
SMALL
USER_CHARGES

@<TRIPOS>ATOM
      1 C1         -0.0187    1.5258    0.0104 C.3       1 <0>        -0.1673
      2 C2          0.0021   -0.0041    0.0020 C.3       1 <0>         0.1472
      3 H1          0.5293   -0.3651    0.8851 H         1 <0>         0.1353
      4 C3         -1.4117   -0.5257    0.0127 C.ar      1 <0>        -0.1294
      5 C4         -2.1414   -0.5688   -1.1606 C.ar      1 <0>        -0.1148
      6 C5         -3.4383   -1.0473   -1.1508 C.ar      1 <0>        -0.1086
      7 C6         -4.0053   -1.4831    0.0322 C.ar      1 <0>        -0.0981
      8 C7         -3.2753   -1.4408    1.2054 C.ar      1 <0>        -0.1077
      9 C8         -1.9770   -0.9663    1.1948 C.ar      1 <0>        -0.0958
     10 N1          0.6878   -0.4765   -1.2033 N.pl3     1 <0>        -0.5547
     11 C9          1.7581   -1.2116   -1.0979 C.2       1 <0>         0.5777
     12 C10         2.4477   -1.6867   -2.3101 C.2       1 <0>        -0.0548
     13 C11         2.0685   -1.4206   -3.5857 C.2       1 <0>        -0.0386
     14 C12         2.9909   -2.0581   -4.4522 C.ar      1 <0>        -0.1344
     15 C13         3.1067   -2.1354   -5.8457 C.ar      1 <0>        -0.0460
     16 C14         4.1307   -2.8445   -6.4035 C.ar      1 <0>        -0.1350
     17 C15         5.0617   -3.4921   -5.6014 C.ar      1 <0>        -0.0439
     18 C16         4.9686   -3.4310   -4.2288 C.ar      1 <0>        -0.1440
     19 C17         3.9333   -2.7136   -3.6369 C.ar      1 <0>         0.1601
     20 N2          3.5851   -2.4681   -2.3285 N.pl3     1 <0>        -0.5766
     21 H2          4.0596   -2.7931   -1.5474 H         1 <0>         0.4261
     22 O1          2.2365   -1.5388    0.1248 O.3       1 <0>        -0.4263
     23 H3          1.0039    1.9031    0.0027 H         1 <0>         0.0772
     24 H4         -0.5459    1.8868   -0.8726 H         1 <0>         0.0787
     25 H5         -0.5289    1.8773    0.9072 H         1 <0>         0.1018
     26 H6         -1.6984   -0.2284   -2.0848 H         1 <0>         0.1168
     27 H7         -4.0086   -1.0803   -2.0673 H         1 <0>         0.1331
     28 H8         -5.0188   -1.8562    0.0400 H         1 <0>         0.1337
     29 H9         -3.7184   -1.7809    2.1297 H         1 <0>         0.1349
     30 H10        -1.4054   -0.9367    2.1106 H         1 <0>         0.1309
     31 H11         1.2161   -0.8295   -3.8865 H         1 <0>         0.1666
     32 H12         2.3873   -1.6354   -6.4773 H         1 <0>         0.1390
     33 H13         4.2177   -2.9030   -7.4784 H         1 <0>         0.1408
     34 H14         5.8661   -4.0491   -6.0587 H         1 <0>         0.1442
     35 H15         5.6969   -3.9384   -3.6136 H         1 <0>         0.1371
     36 H16         3.0333   -2.0861    0.1018 H         1 <0>         0.4471
     37 H17         0.3448   -0.2420   -2.0798 H         1 <0>         0.4477
@<TRIPOS>BOND
     1    1    2 1
     2    1   23 1
     3    1   24 1
     4    1   25 1
     5    2    3 1
     6    2    4 1
     7    2   10 1
     8    4    9 ar
     9    4    5 ar
    10    5    6 ar
    11    5   26 1
    12    6    7 ar
    13    6   27 1
    14    7    8 ar
    15    7   28 1
    16    8    9 ar
    17    8   29 1
    18    9   30 1
    19   10   11 2
    20   10   37 1
    21   11   12 1
    22   11   22 1
    23   12   20 1
    24   12   13 2
    25   13   14 1
    26   13   31 1
    27   14   19 ar
    28   14   15 ar
    29   15   16 ar
    30   15   32 1
    31   16   17 ar
    32   16   33 1
    33   17   18 ar
    34   17   34 1
    35   18   19 ar
    36   18   35 1
    37   19   20 1
    38   20   21 1
    39   22   36 1
@<TRIPOS>MOLECULE
ZINC07909010
   36    38     0     0     0
SMALL
USER_CHARGES

@<TRIPOS>ATOM
      1 C1         -0.0187    1.5258    0.0104 C.3       1 <0>        -0.1596
      2 C2          0.0021   -0.0041    0.0020 C.3       1 <0>         0.1847
      3 H1          0.5293   -0.3651    0.8851 H         1 <0>         0.1017
      4 C3          0.7074   -0.4901   -1.2379 C.ar      1 <0>        -0.0949
      5 C4          0.0376   -0.5216   -2.4467 C.ar      1 <0>        -0.1177
      6 C5          0.6846   -0.9674   -3.5840 C.ar      1 <0>        -0.1148
      7 C6          2.0016   -1.3812   -3.5126 C.ar      1 <0>        -0.1170
      8 C7          2.6718   -1.3488   -2.3040 C.ar      1 <0>        -0.1133
      9 C8          2.0261   -0.8990   -1.1675 C.ar      1 <0>        -0.1058
     10 N1         -1.3723   -0.5112    0.0124 N.am      1 <0>        -0.7240
     11 C9         -2.0286   -0.6552    1.1807 C.2       1 <0>         0.5873
     12 O1         -1.4798   -0.3642    2.2266 O.2       1 <0>        -0.5164
     13 C10        -3.4083   -1.1642    1.1912 C.2       1 <0>         0.0088
     14 C11        -4.1721   -1.3467    2.2999 C.2       1 <0>        -0.0982
     15 C12        -5.4278   -1.8487    1.8804 C.ar      1 <0>        -0.1221
     16 C13        -6.5934   -2.2184    2.5642 C.ar      1 <0>        -0.0582
     17 C14        -7.6716   -2.6801    1.8672 C.ar      1 <0>        -0.1483
     18 C15        -7.6257   -2.7883    0.4828 C.ar      1 <0>        -0.0833
     19 C16        -6.4919   -2.4318   -0.2118 C.ar      1 <0>        -0.1355
     20 C17        -5.3789   -1.9570    0.4769 C.ar      1 <0>         0.1155
     21 N2         -4.1364   -1.5274    0.0748 N.pl3     1 <0>        -0.5805
     22 H2         -3.8218   -1.4882   -0.8420 H         1 <0>         0.4156
     23 H3          1.0039    1.9031    0.0027 H         1 <0>         0.0717
     24 H4         -0.5459    1.8868   -0.8726 H         1 <0>         0.0594
     25 H5         -0.5289    1.8773    0.9072 H         1 <0>         0.0680
     26 H6         -0.9914   -0.1983   -2.5024 H         1 <0>         0.1173
     27 H7          0.1611   -0.9927   -4.5283 H         1 <0>         0.1246
     28 H8          2.5069   -1.7302   -4.4010 H         1 <0>         0.1246
     29 H9          3.7006   -1.6725   -2.2481 H         1 <0>         0.1265
     30 H10         2.5507   -0.8702   -0.2240 H         1 <0>         0.1266
     31 H11        -1.8100   -0.7432   -0.8215 H         1 <0>         0.3949
     32 H12        -3.8748   -1.1451    3.3184 H         1 <0>         0.1574
     33 H13        -6.6382   -2.1384    3.6403 H         1 <0>         0.1271
     34 H14        -8.5690   -2.9645    2.3966 H         1 <0>         0.1261
     35 H15        -8.4879   -3.1561   -0.0536 H         1 <0>         0.1288
     36 H16        -6.4657   -2.5202   -1.2879 H         1 <0>         0.1230
@<TRIPOS>BOND
     1    1    2 1
     2    1   23 1
     3    1   24 1
     4    1   25 1
     5    2    3 1
     6    2    4 1
     7    2   10 1
     8    4    9 ar
     9    4    5 ar
    10    5    6 ar
    11    5   26 1
    12    6    7 ar
    13    6   27 1
    14    7    8 ar
    15    7   28 1
    16    8    9 ar
    17    8   29 1
    18    9   30 1
    19   10   11 am
    20   10   31 1
    21   11   12 2
    22   11   13 1
    23   13   21 1
    24   13   14 2
    25   14   15 1
    26   14   32 1
    27   15   20 ar
    28   15   16 ar
    29   16   17 ar
    30   16   33 1
    31   17   18 ar
    32   17   34 1
    33   18   19 ar
    34   18   35 1
    35   19   20 ar
    36   19   36 1
    37   20   21 1
    38   21   22 1
@<TRIPOS>MOLECULE
ZINC07909010
   37    39     0     0     0
SMALL
USER_CHARGES

@<TRIPOS>ATOM
      1 C1         -0.0187    1.5258    0.0104 C.3       1 <0>        -0.1674
      2 C2          0.0021   -0.0041    0.0020 C.3       1 <0>         0.1472
      3 H1          0.5293   -0.3651    0.8851 H         1 <0>         0.1353
      4 C3          0.7074   -0.4901   -1.2379 C.ar      1 <0>        -0.1297
      5 C4          0.0376   -0.5216   -2.4467 C.ar      1 <0>        -0.1146
      6 C5          0.6846   -0.9674   -3.5840 C.ar      1 <0>        -0.1087
      7 C6          2.0016   -1.3812   -3.5126 C.ar      1 <0>        -0.0980
      8 C7          2.6718   -1.3488   -2.3040 C.ar      1 <0>        -0.1079
      9 C8          2.0261   -0.8990   -1.1675 C.ar      1 <0>        -0.0956
     10 N1         -1.3723   -0.5112    0.0124 N.pl3     1 <0>        -0.5547
     11 C9         -1.7788   -1.2710    0.9893 C.2       1 <0>         0.5777
     12 C10        -3.1610   -1.7810    0.9997 C.2       1 <0>        -0.0549
     13 C11        -4.0975   -1.5339    0.0490 C.2       1 <0>        -0.0385
     14 C12        -5.2869   -2.2030    0.4303 C.ar      1 <0>        -0.1344
     15 C13        -6.5586   -2.3089   -0.1465 C.ar      1 <0>        -0.0460
     16 C14        -7.5263   -3.0447    0.4738 C.ar      1 <0>        -0.1349
     17 C15        -7.2623   -3.6913    1.6745 C.ar      1 <0>        -0.0439
     18 C16        -6.0198   -3.6018    2.2614 C.ar      1 <0>        -0.1440
     19 C17        -5.0167   -2.8576    1.6474 C.ar      1 <0>         0.1601
     20 N2         -3.7071   -2.5906    1.9749 N.pl3     1 <0>        -0.5766
     21 H2         -3.2446   -2.9158    2.7630 H         1 <0>         0.4261
     22 O1         -0.9316   -1.5920    1.9944 O.3       1 <0>        -0.4264
     23 H3          1.0039    1.9031    0.0027 H         1 <0>         0.1018
     24 H4         -0.5459    1.8868   -0.8726 H         1 <0>         0.0787
     25 H5         -0.5289    1.8773    0.9072 H         1 <0>         0.0772
     26 H6         -0.9914   -0.1983   -2.5024 H         1 <0>         0.1169
     27 H7          0.1611   -0.9927   -4.5283 H         1 <0>         0.1332
     28 H8          2.5069   -1.7302   -4.4010 H         1 <0>         0.1337
     29 H9          3.7006   -1.6725   -2.2481 H         1 <0>         0.1348
     30 H10         2.5507   -0.8702   -0.2240 H         1 <0>         0.1309
     31 H11        -3.9608   -0.9341   -0.8387 H         1 <0>         0.1666
     32 H12        -6.7731   -1.8092   -1.0797 H         1 <0>         0.1390
     33 H13        -8.5064   -3.1245    0.0273 H         1 <0>         0.1408
     34 H14        -8.0391   -4.2696    2.1525 H         1 <0>         0.1442
     35 H15        -5.8243   -4.1076    3.1954 H         1 <0>         0.1372
     36 H16        -1.3230   -2.1594    2.6726 H         1 <0>         0.4471
     37 H17        -1.9796   -0.2811   -0.7081 H         1 <0>         0.4477
@<TRIPOS>BOND
     1    1    2 1
     2    1   23 1
     3    1   24 1
     4    1   25 1
     5    2    3 1
     6    2    4 1
     7    2   10 1
     8    4    9 ar
     9    4    5 ar
    10    5    6 ar
    11    5   26 1
    12    6    7 ar
    13    6   27 1
    14    7    8 ar
    15    7   28 1
    16    8    9 ar
    17    8   29 1
    18    9   30 1
    19   10   11 2
    20   10   37 1
    21   11   12 1
    22   11   22 1
    23   12   20 1
    24   12   13 2
    25   13   14 1
    26   13   31 1
    27   14   19 ar
    28   14   15 ar
    29   15   16 ar
    30   15   32 1
    31   16   17 ar
    32   16   33 1
    33   17   18 ar
    34   17   34 1
    35   18   19 ar
    36   18   35 1
    37   19   20 1
    38   20   21 1
    39   22   36 1
@<TRIPOS>MOLECULE
ZINC00612819
   43    45     0     0     0
SMALL
USER_CHARGES
1-[3-(4-fluorophenyl)-5-(4-methoxyphenyl)-4,5-dihydropyrazol-1-yl]propan-1-one
@<TRIPOS>ATOM
      1 C1         -0.0127    1.0858    0.0080 C.3       1 <0>        -0.1411
      2 C2         -0.7288    1.5792    1.2668 C.3       1 <0>        -0.1300
      3 C3         -2.1427    1.0576    1.2775 C.2       1 <0>         0.5500
      4 O1         -2.5386    0.3597    0.3677 O.2       1 <0>        -0.5073
      5 N1         -2.9672    1.3664    2.2979 N.am      1 <0>        -0.4664
      6 C4         -4.3648    0.9258    2.4326 C.3       1 <0>         0.1544
      7 H1         -4.9665    1.3002    1.6044 H         1 <0>         0.1025
      8 C5         -4.8174    1.5606    3.7624 C.3       1 <0>        -0.1268
      9 C6         -3.5946    2.3084    4.2439 C.2       1 <0>         0.1399
     10 N2         -2.6337    2.1502    3.4007 N.2       1 <0>        -0.2339
     11 C7         -3.5124    3.0920    5.4903 C.ar      1 <0>        -0.0462
     12 C8         -4.6240    3.1914    6.3308 C.ar      1 <0>        -0.0586
     13 C9         -4.5393    3.9207    7.4978 C.ar      1 <0>        -0.1546
     14 C10        -3.3582    4.5645    7.8318 C.ar      1 <0>         0.1179
     15 C11        -2.2537    4.4739    6.9994 C.ar      1 <0>        -0.1557
     16 C12        -2.3245    3.7427    5.8326 C.ar      1 <0>        -0.0508
     17 F1         -3.2830    5.2827    8.9736 F         1 <0>        -0.1341
     18 C13        -4.4419   -0.5773    2.5090 C.ar      1 <0>        -0.1303
     19 C14        -3.4807   -1.2830    3.2089 C.ar      1 <0>        -0.0599
     20 C15        -3.5524   -2.6604    3.2853 C.ar      1 <0>        -0.2056
     21 C16        -4.5833   -3.3365    2.6490 C.ar      1 <0>         0.1344
     22 C17        -5.5433   -2.6265    1.9427 C.ar      1 <0>        -0.1485
     23 C18        -5.4706   -1.2487    1.8745 C.ar      1 <0>        -0.0579
     24 O2         -4.6524   -4.6920    2.7173 O.3       1 <0>        -0.3161
     25 C19        -3.6299   -5.3571    3.4618 C.3       1 <0>         0.0263
     26 H2          0.0021   -0.0041    0.0020 H         1 <0>         0.0610
     27 H3          1.0099    1.4631    0.0003 H         1 <0>         0.0652
     28 H4         -0.5399    1.4469   -0.8751 H         1 <0>         0.0619
     29 H5         -0.2017    1.2182    2.1499 H         1 <0>         0.0967
     30 H6         -0.7436    2.6691    1.2728 H         1 <0>         0.0980
     31 H7         -5.6454    2.2494    3.5950 H         1 <0>         0.1098
     32 H8         -5.0998    0.7885    4.4781 H         1 <0>         0.1093
     33 H9         -5.5463    2.6941    6.0691 H         1 <0>         0.1405
     34 H10        -5.3967    3.9949    8.1503 H         1 <0>         0.1434
     35 H11        -1.3358    4.9773    7.2650 H         1 <0>         0.1426
     36 H12        -1.4634    3.6734    5.1843 H         1 <0>         0.1438
     37 H13        -2.6755   -0.7565    3.6997 H         1 <0>         0.1166
     38 H14        -2.8036   -3.2109    3.8354 H         1 <0>         0.1288
     39 H15        -6.3467   -3.1506    1.4463 H         1 <0>         0.1344
     40 H16        -6.2178   -0.6955    1.3247 H         1 <0>         0.1316
     41 H17        -3.8033   -6.4329    3.4362 H         1 <0>         0.1024
     42 H18        -2.6576   -5.1352    3.0221 H         1 <0>         0.0560
     43 H19        -3.6491   -5.0105    4.4950 H         1 <0>         0.0562
@<TRIPOS>BOND
     1    1    2 1
     2    1   26 1
     3    1   27 1
     4    1   28 1
     5    2    3 1
     6    2   29 1
     7    2   30 1
     8    3    4 2
     9    3    5 am
    10    5   10 1
    11    5    6 1
    12    6    7 1
    13    6    8 1
    14    6   18 1
    15    8    9 1
    16    8   31 1
    17    8   32 1
    18    9   10 2
    19    9   11 1
    20   11   16 ar
    21   11   12 ar
    22   12   13 ar
    23   12   33 1
    24   13   14 ar
    25   13   34 1
    26   14   15 ar
    27   14   17 1
    28   15   16 ar
    29   15   35 1
    30   16   36 1
    31   18   23 ar
    32   18   19 ar
    33   19   20 ar
    34   19   37 1
    35   20   21 ar
    36   20   38 1
    37   21   22 ar
    38   21   24 1
    39   22   23 ar
    40   22   39 1
    41   23   40 1
    42   24   25 1
    43   25   41 1
    44   25   42 1
    45   25   43 1
@<TRIPOS>MOLECULE
ZINC00612820
   43    45     0     0     0
SMALL
USER_CHARGES
1-[3-(4-fluorophenyl)-5-(4-methoxyphenyl)-4,5-dihydropyrazol-1-yl]propan-1-one
@<TRIPOS>ATOM
      1 C1          0.0021   -0.0041    0.0020 C.3       1 <0>        -0.1411
      2 C2         -0.0187    1.5258    0.0104 C.3       1 <0>        -0.1301
      3 C3         -0.7240    2.0118    1.2503 C.2       1 <0>         0.5501
      4 O1         -1.1667    1.2130    2.0488 O.2       1 <0>        -0.5073
      5 N1         -0.8631    3.3339    1.4720 N.am      1 <0>        -0.4663
      6 C4         -1.5322    3.9413    2.6334 C.3       1 <0>         0.1545
      7 H1         -1.0248    3.6633    3.5572 H         1 <0>         0.1024
      8 C5         -1.3965    5.4555    2.3777 C.3       1 <0>        -0.1270
      9 C6         -0.6552    5.5376    1.0624 C.2       1 <0>         0.1398
     10 N2         -0.4021    4.3488    0.6360 N.2       1 <0>        -0.2338
     11 C7         -0.2802    6.7864    0.3736 C.ar      1 <0>        -0.0461
     12 C8         -0.6152    8.0227    0.9314 C.ar      1 <0>        -0.0586
     13 C9         -0.2581    9.1870    0.2849 C.ar      1 <0>        -0.1546
     14 C10         0.4234    9.1325   -0.9208 C.ar      1 <0>         0.1178
     15 C11         0.7538    7.9088   -1.4817 C.ar      1 <0>        -0.1557
     16 C12         0.4063    6.7378   -0.8421 C.ar      1 <0>        -0.0508
     17 F1          0.7665   10.2766   -1.5521 F         1 <0>        -0.1341
     18 C13        -2.9831    3.5367    2.6812 C.ar      1 <0>        -0.1300
     19 C14        -3.7125    3.4437    1.5103 C.ar      1 <0>        -0.0602
     20 C15        -5.0411    3.0675    1.5509 C.ar      1 <0>        -0.2054
     21 C16        -5.6465    2.7940    2.7688 C.ar      1 <0>         0.1343
     22 C17        -4.9139    2.8936    3.9428 C.ar      1 <0>        -0.1484
     23 C18        -3.5841    3.2647    3.8963 C.ar      1 <0>        -0.0580
     24 O2         -6.9548    2.4288    2.8119 O.3       1 <0>        -0.3161
     25 C19        -7.6468    2.3468    1.5643 C.3       1 <0>         0.0262
     26 H2          0.5293   -0.3651    0.8851 H         1 <0>         0.0618
     27 H3         -1.0205   -0.3814    0.0098 H         1 <0>         0.0610
     28 H4          0.5123   -0.3556   -0.8948 H         1 <0>         0.0653
     29 H5          1.0039    1.9031    0.0027 H         1 <0>         0.0980
     30 H6         -0.5459    1.8868   -0.8726 H         1 <0>         0.0967
     31 H7         -0.8205    5.9310    3.1715 H         1 <0>         0.1100
     32 H8         -2.3803    5.9168    2.2916 H         1 <0>         0.1090
     33 H9         -1.1495    8.0664    1.8690 H         1 <0>         0.1405
     34 H10        -0.5133   10.1434    0.7169 H         1 <0>         0.1434
     35 H11         1.2849    7.8725   -2.4214 H         1 <0>         0.1426
     36 H12         0.6640    5.7849   -1.2802 H         1 <0>         0.1438
     37 H13        -3.2419    3.6610    0.5628 H         1 <0>         0.1166
     38 H14        -5.6093    2.9907    0.6356 H         1 <0>         0.1288
     39 H15        -5.3828    2.6809    4.8921 H         1 <0>         0.1344
     40 H16        -3.0132    3.3420    4.8099 H         1 <0>         0.1316
     41 H17        -7.6306    3.3208    1.0752 H         1 <0>         0.0562
     42 H18        -7.1582    1.6112    0.9254 H         1 <0>         0.0561
     43 H19        -8.6795    2.0460    1.7407 H         1 <0>         0.1024
@<TRIPOS>BOND
     1    1    2 1
     2    1   26 1
     3    1   27 1
     4    1   28 1
     5    2    3 1
     6    2   29 1
     7    2   30 1
     8    3    4 2
     9    3    5 am
    10    5   10 1
    11    5    6 1
    12    6    7 1
    13    6    8 1
    14    6   18 1
    15    8    9 1
    16    8   31 1
    17    8   32 1
    18    9   10 2
    19    9   11 1
    20   11   16 ar
    21   11   12 ar
    22   12   13 ar
    23   12   33 1
    24   13   14 ar
    25   13   34 1
    26   14   15 ar
    27   14   17 1
    28   15   16 ar
    29   15   35 1
    30   16   36 1
    31   18   23 ar
    32   18   19 ar
    33   19   20 ar
    34   19   37 1
    35   20   21 ar
    36   20   38 1
    37   21   22 ar
    38   21   24 1
    39   22   23 ar
    40   22   39 1
    41   23   40 1
    42   24   25 1
    43   25   41 1
    44   25   42 1
    45   25   43 1
@<TRIPOS>MOLECULE
ZINC00480584
   39    41     0     0     0
SMALL
USER_CHARGES
1-[5-(4-fluorophenyl)-3-phenyl-4,5-dihydropyrazol-1-yl]propan-1-one
@<TRIPOS>ATOM
      1 C1         -0.6954    4.3491   -4.3893 C.3       1 <0>        -0.1412
      2 C2         -0.9806    4.6218   -2.9110 C.3       1 <0>        -0.1298
      3 C3         -1.0245    3.3166   -2.1588 C.2       1 <0>         0.5504
      4 O1         -0.8452    2.2711   -2.7473 O.2       1 <0>        -0.5092
      5 N1         -1.2628    3.3110   -0.8323 N.am      1 <0>        -0.4677
      6 C4         -1.3322    2.1133    0.0199 C.3       1 <0>         0.1500
      7 H1         -2.1395    1.4572   -0.3056 H         1 <0>         0.1049
      8 C5         -1.6240    2.6837    1.4219 C.3       1 <0>        -0.1265
      9 C6         -1.6888    4.1781    1.2009 C.2       1 <0>         0.1432
     10 N2         -1.4834    4.4384   -0.0437 N.2       1 <0>        -0.2359
     11 C7         -1.9479    5.1829    2.2489 C.ar      1 <0>        -0.0382
     12 C8         -2.1634    4.7804    3.5691 C.ar      1 <0>        -0.0881
     13 C9         -2.3998    5.7260    4.5450 C.ar      1 <0>        -0.1214
     14 C10        -2.4348    7.0698    4.2169 C.ar      1 <0>        -0.1002
     15 C11        -2.2279    7.4754    2.9103 C.ar      1 <0>        -0.1224
     16 C12        -1.9846    6.5412    1.9250 C.ar      1 <0>        -0.0795
     17 C13        -0.0167    1.3782    0.0096 C.ar      1 <0>        -0.1027
     18 C14         1.1704    2.0867    0.0021 C.ar      1 <0>        -0.0725
     19 C15         2.3773    1.4138   -0.0131 C.ar      1 <0>        -0.1506
     20 C16         2.3973    0.0293   -0.0203 C.ar      1 <0>         0.1051
     21 C17         1.2078   -0.6792   -0.0127 C.ar      1 <0>        -0.1498
     22 C18         0.0021   -0.0041    0.0020 C.ar      1 <0>        -0.0690
     23 F1          3.5766   -0.6296   -0.0352 F         1 <0>        -0.1371
     24 H2         -0.6637    5.2931   -4.9333 H         1 <0>         0.0655
     25 H3          0.2641    3.8413   -4.4865 H         1 <0>         0.0614
     26 H4         -1.4835    3.7187   -4.8011 H         1 <0>         0.0617
     27 H5         -1.9402    5.1296   -2.8138 H         1 <0>         0.0982
     28 H6         -0.1926    5.2522   -2.4992 H         1 <0>         0.0974
     29 H7         -2.5777    2.3108    1.7956 H         1 <0>         0.1107
     30 H8         -0.8179    2.4339    2.1118 H         1 <0>         0.1094
     31 H9         -2.1408    3.7316    3.8257 H         1 <0>         0.1291
     32 H10        -2.5622    5.4166    5.5669 H         1 <0>         0.1296
     33 H11        -2.6242    7.8057    4.9844 H         1 <0>         0.1269
     34 H12        -2.2566    8.5259    2.6613 H         1 <0>         0.1290
     35 H13        -1.8233    6.8592    0.9056 H         1 <0>         0.1330
     36 H14         1.1545    3.1666    0.0077 H         1 <0>         0.1246
     37 H15         3.3046    1.9675   -0.0187 H         1 <0>         0.1370
     38 H16         1.2222   -1.7591   -0.0179 H         1 <0>         0.1396
     39 H17        -0.9259   -0.5565    0.0079 H         1 <0>         0.1353
@<TRIPOS>BOND
     1    1    2 1
     2    1   24 1
     3    1   25 1
     4    1   26 1
     5    2    3 1
     6    2   27 1
     7    2   28 1
     8    3    4 2
     9    3    5 am
    10    5   10 1
    11    5    6 1
    12    6    7 1
    13    6    8 1
    14    6   17 1
    15    8    9 1
    16    8   29 1
    17    8   30 1
    18    9   10 2
    19    9   11 1
    20   11   16 ar
    21   11   12 ar
    22   12   13 ar
    23   12   31 1
    24   13   14 ar
    25   13   32 1
    26   14   15 ar
    27   14   33 1
    28   15   16 ar
    29   15   34 1
    30   16   35 1
    31   17   22 ar
    32   17   18 ar
    33   18   19 ar
    34   18   36 1
    35   19   20 ar
    36   19   37 1
    37   20   21 ar
    38   20   23 1
    39   21   22 ar
    40   21   38 1
    41   22   39 1
@<TRIPOS>MOLECULE
ZINC00480585
   39    41     0     0     0
SMALL
USER_CHARGES
1-[5-(4-fluorophenyl)-3-phenyl-4,5-dihydropyrazol-1-yl]propan-1-one
@<TRIPOS>ATOM
      1 C1         -0.0127    1.0858    0.0080 C.3       1 <0>        -0.1412
      2 C2         -0.7288    1.5792    1.2668 C.3       1 <0>        -0.1298
      3 C3          0.0000    1.0800    2.4877 C.2       1 <0>         0.5504
      4 O1          0.9946    0.3967    2.3632 O.2       1 <0>        -0.5092
      5 N1         -0.4531    1.3927    3.7179 N.am      1 <0>        -0.4677
      6 C4          0.1599    0.9731    4.9882 C.3       1 <0>         0.1499
      7 H1          1.1750    1.3616    5.0710 H         1 <0>         0.1047
      8 C5         -0.7548    1.6039    6.0567 C.3       1 <0>        -0.1265
      9 C6         -1.8098    2.3282    5.2514 C.2       1 <0>         0.1432
     10 N2         -1.5751    2.1712    3.9947 N.2       1 <0>        -0.2359
     11 C7         -2.9312    3.1008    5.8176 C.ar      1 <0>        -0.0382
     12 C8         -3.0850    3.2023    7.2023 C.ar      1 <0>        -0.0881
     13 C9         -4.1332    3.9309    7.7248 C.ar      1 <0>        -0.1214
     14 C10        -5.0374    4.5514    6.8809 C.ar      1 <0>        -0.1002
     15 C11        -4.8945    4.4504    5.5083 C.ar      1 <0>        -0.1224
     16 C12        -3.8478    3.7298    4.9718 C.ar      1 <0>        -0.0795
     17 C13         0.1573   -0.5291    5.1076 C.ar      1 <0>        -0.1024
     18 C14        -0.9318   -1.2554    4.6631 C.ar      1 <0>        -0.0727
     19 C15        -0.9329   -2.6335    4.7670 C.ar      1 <0>        -0.1506
     20 C16         0.1523   -3.2859    5.3272 C.ar      1 <0>         0.1050
     21 C17         1.2401   -2.5570    5.7772 C.ar      1 <0>        -0.1498
     22 C18         1.2416   -1.1794    5.6667 C.ar      1 <0>        -0.0691
     23 F1          0.1496   -4.6326    5.4351 F         1 <0>        -0.1371
     24 H2          0.0021   -0.0041    0.0020 H         1 <0>         0.0614
     25 H3          1.0099    1.4631    0.0003 H         1 <0>         0.0617
     26 H4         -0.5399    1.4469   -0.8751 H         1 <0>         0.0655
     27 H5         -0.7436    2.6691    1.2728 H         1 <0>         0.0983
     28 H6         -1.7514    1.2020    1.2746 H         1 <0>         0.0974
     29 H7         -1.2100    0.8304    6.6752 H         1 <0>         0.1093
     30 H8         -0.1945    2.3071    6.6729 H         1 <0>         0.1108
     31 H9         -2.3826    2.7148    7.8621 H         1 <0>         0.1291
     32 H10        -4.2508    4.0139    8.7952 H         1 <0>         0.1296
     33 H11        -5.8584    5.1174    7.2956 H         1 <0>         0.1269
     34 H12        -5.6039    4.9372    4.8556 H         1 <0>         0.1290
     35 H13        -3.7375    3.6518    3.9003 H         1 <0>         0.1330
     36 H14        -1.7803   -0.7460    4.2309 H         1 <0>         0.1247
     37 H15        -1.7821   -3.2010    4.4160 H         1 <0>         0.1370
     38 H16         2.0870   -3.0648    6.2146 H         1 <0>         0.1396
     39 H17         2.0900   -0.6107    6.0176 H         1 <0>         0.1353
@<TRIPOS>BOND
     1    1    2 1
     2    1   24 1
     3    1   25 1
     4    1   26 1
     5    2    3 1
     6    2   27 1
     7    2   28 1
     8    3    4 2
     9    3    5 am
    10    5   10 1
    11    5    6 1
    12    6    7 1
    13    6    8 1
    14    6   17 1
    15    8    9 1
    16    8   29 1
    17    8   30 1
    18    9   10 2
    19    9   11 1
    20   11   16 ar
    21   11   12 ar
    22   12   13 ar
    23   12   31 1
    24   13   14 ar
    25   13   32 1
    26   14   15 ar
    27   14   33 1
    28   15   16 ar
    29   15   34 1
    30   16   35 1
    31   17   22 ar
    32   17   18 ar
    33   18   19 ar
    34   18   36 1
    35   19   20 ar
    36   19   37 1
    37   20   21 ar
    38   20   23 1
    39   21   22 ar
    40   21   38 1
    41   22   39 1
