@<TRIPOS>MOLECULE
ZINC27525791
   60    64     0     0     0
SMALL
USER_CHARGES
4-[(3S,5R,8R,9S,10S,13S,14S,17S)-3-hydroxy-10,13-dimethyl-2,3,4,5,6,7,8,9,11,12,14,15,16,17-tetradecahydro-1H-cyclopenta[a]phenanthren-17-yl]-5H-furan-2-one
@<TRIPOS>ATOM
      1 C1         -3.7481    3.5648   -1.6243 C.3       1 <0>        -0.1504
      2 C2         -3.6196    2.0770   -1.9568 C.3       1 <0>        -0.0436
      3 C3         -3.0163    1.9055   -3.3689 C.3       1 <0>        -0.1067
      4 C4         -2.9035    0.4129   -3.6862 C.3       1 <0>        -0.1127
      5 C5         -4.2919   -0.2273   -3.6287 C.3       1 <0>         0.1158
      6 H1         -4.2529   -1.2900   -3.9100 H         1 <0>         0.0450
      7 C6         -4.8799   -0.0456   -2.2280 C.3       1 <0>        -0.1477
      8 C7         -4.9926    1.4471   -1.9110 C.3       1 <0>        -0.0664
      9 H2         -5.6368    1.9369   -2.6560 H         1 <0>         0.0755
     10 C8         -5.5808    1.6275   -0.5102 C.3       1 <0>        -0.1187
     11 C9         -4.6673    0.9584    0.5189 C.3       1 <0>        -0.1162
     12 C10        -3.2805    1.6009    0.4628 C.3       1 <0>        -0.0841
     13 H3         -3.3880    2.6640    0.7239 H         1 <0>         0.0803
     14 C11        -2.6919    1.4055   -0.9431 C.3       1 <0>        -0.0663
     15 H4         -2.6081    0.3291   -1.1536 H         1 <0>         0.0713
     16 C12        -1.2888    1.9923   -1.0510 C.3       1 <0>        -0.1237
     17 C13        -0.3530    1.4075    0.0203 C.3       1 <0>        -0.1066
     18 C14        -0.9775    1.6943    1.3716 C.3       1 <0>        -0.0405
     19 C15        -2.3308    0.9412    1.4448 C.3       1 <0>        -0.0865
     20 H5         -2.3570   -0.1194    1.1541 H         1 <0>         0.0773
     21 C16        -2.6960    1.0840    2.9264 C.3       1 <0>        -0.1213
     22 C17        -1.3064    0.8200    3.6301 C.3       1 <0>        -0.1188
     23 C18        -0.2165    1.1940    2.5948 C.3       1 <0>        -0.0265
     24 H6          0.4496    0.3541    2.3479 H         1 <0>         0.0974
     25 C19         0.6698    2.2840    3.1402 C.2       1 <0>        -0.0764
     26 C20         0.4395    3.0257    4.2206 C.2       1 <0>        -0.2501
     27 C21         1.5431    3.9709    4.4100 C.2       1 <0>         0.5010
     28 O1          1.6197    4.7822    5.3116 O.2       1 <0>        -0.4567
     29 O2          2.4593    3.8082    3.4372 O.3       1 <0>        -0.3213
     30 C22         1.9923    2.7383    2.5681 C.3       1 <0>         0.0564
     31 C23        -1.2465    3.1942    1.5088 C.3       1 <0>        -0.1555
     32 O3         -5.1454    0.3991   -4.5885 O.3       1 <0>        -0.5965
     33 H7         -2.7539    4.0345   -1.6546 H         1 <0>         0.0554
     34 H8         -4.1775    3.6799   -0.6181 H         1 <0>         0.0616
     35 H9         -4.4053    4.0497   -2.3611 H         1 <0>         0.0530
     36 H10        -3.6689    2.3930   -4.1081 H         1 <0>         0.0687
     37 H11        -2.0184    2.3672   -3.3998 H         1 <0>         0.0630
     38 H12        -2.4814    0.2831   -4.6937 H         1 <0>         0.0645
     39 H13        -2.2462   -0.0702   -2.9483 H         1 <0>         0.0761
     40 H14        -5.8784   -0.5053   -2.1871 H         1 <0>         0.0600
     41 H15        -4.2234   -0.5285   -1.4892 H         1 <0>         0.0750
     42 H16        -5.6639    2.7005   -0.2828 H         1 <0>         0.0656
     43 H17        -6.5783    1.1657   -0.4691 H         1 <0>         0.0584
     44 H18        -5.0916    1.0887    1.5254 H         1 <0>         0.0600
     45 H19        -4.5839   -0.1148    0.2923 H         1 <0>         0.0611
     46 H20        -0.8709    1.7635   -2.0425 H         1 <0>         0.0656
     47 H21        -1.3361    3.0829   -0.9159 H         1 <0>         0.0694
     48 H22        -0.2504    0.3233   -0.1348 H         1 <0>         0.0662
     49 H23         0.6354    1.8840   -0.0566 H         1 <0>         0.0619
     50 H24        -3.0890    2.0946    3.1114 H         1 <0>         0.0699
     51 H25        -3.4617    0.3391    3.1888 H         1 <0>         0.0686
     52 H26        -1.2267    1.4463    4.5309 H         1 <0>         0.0741
     53 H27        -1.2344   -0.2405    3.9134 H         1 <0>         0.0750
     54 H28        -0.4754    2.8686    4.8108 H         1 <0>         0.1718
     55 H29         2.6983    1.8947    2.5619 H         1 <0>         0.1207
     56 H30         1.8425    3.0986    1.5396 H         1 <0>         0.1206
     57 H31        -1.6994    3.3972    2.4905 H         1 <0>         0.0599
     58 H32        -1.9344    3.5176    0.7137 H         1 <0>         0.0739
     59 H33        -0.2991    3.7462    1.4209 H         1 <0>         0.0514
     60 H34        -6.1897    0.0698   -4.6937 H         1 <0>         0.4018
@<TRIPOS>BOND
     1    1    2 1
     2    1   33 1
     3    1   34 1
     4    1   35 1
     5    2    8 1
     6    2   14 1
     7    2    3 1
     8    3    4 1
     9    3   36 1
    10    3   37 1
    11    4    5 1
    12    4   38 1
    13    4   39 1
    14    5    6 1
    15    5    7 1
    16    5   32 1
    17    7    8 1
    18    7   40 1
    19    7   41 1
    20    8    9 1
    21    8   10 1
    22   10   11 1
    23   10   42 1
    24   10   43 1
    25   11   12 1
    26   11   44 1
    27   11   45 1
    28   12   13 1
    29   12   19 1
    30   12   14 1
    31   14   15 1
    32   14   16 1
    33   16   17 1
    34   16   46 1
    35   16   47 1
    36   17   18 1
    37   17   48 1
    38   17   49 1
    39   18   23 1
    40   18   19 1
    41   18   31 1
    42   19   20 1
    43   19   21 1
    44   21   22 1
    45   21   50 1
    46   21   51 1
    47   22   23 1
    48   22   52 1
    49   22   53 1
    50   23   24 1
    51   23   25 1
    52   25   30 1
    53   25   26 2
    54   26   27 1
    55   26   54 1
    56   27   28 2
    57   27   29 1
    58   29   30 1
    59   30   55 1
    60   30   56 1
    61   31   57 1
    62   31   58 1
    63   31   59 1
    64   32   60 1
@<TRIPOS>MOLECULE
ZINC03875959
   61    65     0     0     0
SMALL
USER_CHARGES

@<TRIPOS>ATOM
      1 C1         -0.1412    1.4640    0.0296 C.3       1 <0>        -0.1488
      2 C2         -0.0601   -0.0639    0.0229 C.3       1 <0>        -0.0443
      3 C3         -1.4735   -0.6492    0.0337 C.3       1 <0>        -0.1058
      4 C4         -1.3929   -2.1771    0.0281 C.3       1 <0>        -0.1540
      5 C5         -0.6340   -2.6524    1.2686 C.3       1 <0>         0.1045
      6 H1         -0.5767   -3.7409    1.2646 H         1 <0>         0.0504
      7 C6          0.7797   -2.0673    1.2567 C.3       1 <0>        -0.1093
      8 C7          0.6988   -0.5394    1.2632 C.3       1 <0>        -0.0694
      9 H2          0.1750   -0.2071    2.1595 H         1 <0>         0.0783
     10 C8          2.1121    0.0464    1.2515 C.3       1 <0>        -0.1169
     11 C9          2.8475   -0.4193   -0.0065 C.3       1 <0>        -0.1187
     12 C10         2.0877    0.0545   -1.2476 C.3       1 <0>        -0.1002
     13 H3          2.0154    1.1416   -1.2169 H         1 <0>         0.0827
     14 C11         0.6750   -0.5298   -1.2357 C.3       1 <0>        -0.0685
     15 H4          0.7278   -1.6184   -1.2476 H         1 <0>         0.0778
     16 C12        -0.0711   -0.0222   -2.4742 C.3       1 <0>        -0.1216
     17 C13         0.6353   -0.5522   -3.7191 C.3       1 <0>        -0.1105
     18 C14         2.0669   -0.0169   -3.7991 C.3       1 <0>        -0.0306
     19 C15         2.8255   -0.3440   -2.5023 C.3       1 <0>         0.1501
     20 C16         3.0775   -1.8609   -2.5847 C.3       1 <0>        -0.1487
     21 C17         3.4037   -2.0908   -4.0784 C.3       1 <0>        -0.1135
     22 C18         2.8066   -0.8784   -4.8571 C.3       1 <0>        -0.0381
     23 H5          2.0978   -1.2567   -5.5937 H         1 <0>         0.0911
     24 C19         3.8732   -0.0594   -5.5374 C.2       1 <0>        -0.0514
     25 C20         3.8949    0.3101   -6.8162 C.2       1 <0>        -0.2530
     26 C21         5.1073    1.0960   -7.0658 C.2       1 <0>         0.4942
     27 O1          5.4187    1.5794   -8.1365 O.2       1 <0>        -0.4622
     28 O2          5.8229    1.2023   -5.9311 O.3       1 <0>        -0.3260
     29 C22         5.1195    0.5053   -4.8976 C.3       1 <0>         0.0604
     30 O3          4.0868    0.3269   -2.5383 O.3       1 <0>        -0.5595
     31 C23         2.0931    1.4701   -4.1582 C.3       1 <0>        -0.1387
     32 O4         -1.3204   -2.2158    2.4434 O.3       1 <0>        -0.5629
     33 H6          0.8658    1.8813    0.0218 H         1 <0>         0.0607
     34 H7         -0.6819    1.8030   -0.8540 H         1 <0>         0.0566
     35 H8         -0.6651    1.7961    0.9259 H         1 <0>         0.0533
     36 H9         -1.9978   -0.3163    0.9295 H         1 <0>         0.0678
     37 H10        -2.0138   -0.3106   -0.8504 H         1 <0>         0.0636
     38 H11        -2.4000   -2.5940    0.0363 H         1 <0>         0.0621
     39 H12        -0.8692   -2.5100   -0.8680 H         1 <0>         0.0724
     40 H13         1.3208   -2.4063    2.1401 H         1 <0>         0.0662
     41 H14         1.3030   -2.3997    0.3602 H         1 <0>         0.0777
     42 H15         2.0542    1.1349    1.2564 H         1 <0>         0.0663
     43 H16         2.6532   -0.2925    2.1349 H         1 <0>         0.0619
     44 H17         3.8539   -0.0006   -0.0149 H         1 <0>         0.0603
     45 H18         2.9070   -1.5076   -0.0106 H         1 <0>         0.0663
     46 H19        -1.0995   -0.3832   -2.4554 H         1 <0>         0.0694
     47 H20        -0.0633    1.0677   -2.4850 H         1 <0>         0.0704
     48 H21         0.6609   -1.6412   -3.6810 H         1 <0>         0.0671
     49 H22         0.0845   -0.2377   -4.6056 H         1 <0>         0.0684
     50 H23         3.9238   -2.1441   -1.9589 H         1 <0>         0.0753
     51 H24         2.1837   -2.4147   -2.2972 H         1 <0>         0.0784
     52 H25         4.4834   -2.1011   -4.2275 H         1 <0>         0.0683
     53 H26         2.9709   -3.0332   -4.4143 H         1 <0>         0.0743
     54 H27         3.1411    0.0697   -7.5512 H         1 <0>         0.1630
     55 H28         4.8500    1.1931   -4.0961 H         1 <0>         0.1464
     56 H29         5.7380   -0.3023   -4.5061 H         1 <0>         0.1112
     57 H30         4.6581    0.1310   -1.7831 H         1 <0>         0.3746
     58 H31         1.4877    2.0272   -3.4433 H         1 <0>         0.0609
     59 H32         3.1202    1.8337   -4.1257 H         1 <0>         0.0680
     60 H33         1.6902    1.6088   -5.1615 H         1 <0>         0.0568
     61 H34        -2.2251   -2.5493    2.5172 H         1 <0>         0.3754
@<TRIPOS>BOND
     1    1    2 1
     2    1   33 1
     3    1   34 1
     4    1   35 1
     5    2    8 1
     6    2   14 1
     7    2    3 1
     8    3    4 1
     9    3   36 1
    10    3   37 1
    11    4    5 1
    12    4   38 1
    13    4   39 1
    14    5    6 1
    15    5    7 1
    16    5   32 1
    17    7    8 1
    18    7   40 1
    19    7   41 1
    20    8    9 1
    21    8   10 1
    22   10   11 1
    23   10   42 1
    24   10   43 1
    25   11   12 1
    26   11   44 1
    27   11   45 1
    28   12   13 1
    29   12   19 1
    30   12   14 1
    31   14   15 1
    32   14   16 1
    33   16   17 1
    34   16   46 1
    35   16   47 1
    36   17   18 1
    37   17   48 1
    38   17   49 1
    39   18   22 1
    40   18   19 1
    41   18   31 1
    42   19   20 1
    43   19   30 1
    44   20   21 1
    45   20   50 1
    46   20   51 1
    47   21   22 1
    48   21   52 1
    49   21   53 1
    50   22   23 1
    51   22   24 1
    52   24   29 1
    53   24   25 2
    54   25   26 1
    55   25   54 1
    56   26   27 2
    57   26   28 1
    58   28   29 1
    59   29   55 1
    60   29   56 1
    61   30   57 1
    62   31   58 1
    63   31   59 1
    64   31   60 1
    65   32   61 1
