@<TRIPOS>MOLECULE
ZINC03794711
   37    37     0     0     0
SMALL
USER_CHARGES

@<TRIPOS>ATOM
      1 C1         -0.5626    1.3318    0.0235 C.3       1 <0>        -0.1592
      2 C2         -0.3431   -0.1823    0.0355 C.3       1 <0>        -0.1202
      3 C3          0.4110   -0.5984   -1.2291 C.3       1 <0>        -0.1495
      4 C4          0.6305   -2.1125   -1.2171 C.3       1 <0>        -0.0135
      5 N1          1.3545   -2.5120   -2.4312 N.4       1 <0>        -0.3726
      6 C5          0.5252   -2.2296   -3.6089 C.3       1 <0>        -0.0105
      7 C6          1.3061   -2.5684   -4.8805 C.3       1 <0>         0.0589
      8 H1          2.2125   -1.9645   -4.9227 H         1 <0>         0.0900
      9 C7          1.6810   -4.0530   -4.8624 C.3       1 <0>         0.0258
     10 H2          0.7744   -4.6581   -4.8718 H         1 <0>         0.0912
     11 C8          2.4827   -4.3515   -3.5921 C.3       1 <0>         0.1122
     12 H3          3.4136   -3.7847   -3.6076 H         1 <0>         0.0961
     13 C9          1.6582   -3.9467   -2.3683 C.3       1 <0>         0.0358
     14 H4          0.7277   -4.5142   -2.3537 H         1 <0>         0.1569
     15 C10         2.4551   -4.2433   -1.0964 C.3       1 <0>         0.0568
     16 O1          3.7102   -3.5623   -1.1509 O.3       1 <0>        -0.5781
     17 O2          2.7758   -5.7488   -3.5301 O.3       1 <0>        -0.5411
     18 O3          2.4724   -4.3601   -6.0119 O.3       1 <0>        -0.5475
     19 O4          0.4961   -2.2938   -6.0253 O.3       1 <0>        -0.5410
     20 H5          0.4020    1.8385   -0.0076 H         1 <0>         0.0598
     21 H6         -1.1462    1.6074   -0.8548 H         1 <0>         0.0596
     22 H7         -1.0998    1.6282    0.9244 H         1 <0>         0.0677
     23 H8          0.2405   -0.4579    0.9138 H         1 <0>         0.0739
     24 H9         -1.3077   -0.6890    0.0666 H         1 <0>         0.0741
     25 H10        -0.1727   -0.3228   -2.1074 H         1 <0>         0.0883
     26 H11         1.3756   -0.0917   -1.2601 H         1 <0>         0.0893
     27 H12         1.2141   -2.3881   -0.3387 H         1 <0>         0.1385
     28 H13        -0.3341   -2.6192   -1.1860 H         1 <0>         0.1342
     29 H14        -0.3811   -2.8337   -3.5678 H         1 <0>         0.1416
     30 H15         0.2565   -1.1733   -3.6187 H         1 <0>         0.1496
     31 H16         1.8933   -3.9008   -0.2274 H         1 <0>         0.0779
     32 H17         2.6274   -5.3168   -1.0176 H         1 <0>         0.1050
     33 H18         4.2694   -3.7053   -0.3751 H         1 <0>         0.4108
     34 H19         3.2946   -6.0754   -4.2779 H         1 <0>         0.4110
     35 H20         2.0271   -4.1891   -6.8531 H         1 <0>         0.3955
     36 H21         0.9288   -2.4859   -6.8685 H         1 <0>         0.4021
     37 H22         2.2153   -1.9895   -2.4955 H         1 <0>         0.4306
@<TRIPOS>BOND
     1    1    2 1
     2    1   20 1
     3    1   21 1
     4    1   22 1
     5    2    3 1
     6    2   23 1
     7    2   24 1
     8    3    4 1
     9    3   25 1
    10    3   26 1
    11    4    5 1
    12    4   27 1
    13    4   28 1
    14    5   13 1
    15    5    6 1
    16    5   37 1
    17    6    7 1
    18    6   29 1
    19    6   30 1
    20    7    8 1
    21    7    9 1
    22    7   19 1
    23    9   10 1
    24    9   11 1
    25    9   18 1
    26   11   12 1
    27   11   13 1
    28   11   17 1
    29   13   14 1
    30   13   15 1
    31   15   16 1
    32   15   31 1
    33   15   32 1
    34   16   33 1
    35   17   34 1
    36   18   35 1
    37   19   36 1
@<TRIPOS>MOLECULE
ZINC03794714
   25    25     0     0     0
SMALL
USER_CHARGES

@<TRIPOS>ATOM
      1 C1         -0.0178    1.4636    0.0101 C.3       1 <0>        -0.0466
      2 C2          1.4163    1.9970   -0.0007 C.3       1 <0>         0.0566
      3 H1          1.9452    1.6372    0.8818 H         1 <0>         0.0917
      4 C3          2.1299    1.5015   -1.2619 C.3       1 <0>         0.0695
      5 H2          1.6316    1.9031   -2.1442 H         1 <0>         0.0909
      6 C4          2.0795   -0.0286   -1.2972 C.3       1 <0>         0.1094
      7 H3          2.6221   -0.4305   -0.4415 H         1 <0>         0.0913
      8 C5          0.6208   -0.4870   -1.2383 C.3       1 <0>         0.0351
      9 H4          0.0792   -0.0848   -2.0945 H         1 <0>         0.1577
     10 N1          0.0021   -0.0041    0.0020 N.4       1 <0>        -0.4918
     11 C6          0.5654   -2.0156   -1.2729 C.3       1 <0>         0.0570
     12 O1         -0.7972   -2.4415   -1.3354 O.3       1 <0>        -0.5813
     13 O2          2.6797   -0.4981   -2.5061 O.3       1 <0>        -0.5386
     14 O3          3.4911    1.9360   -1.2427 O.3       1 <0>        -0.5488
     15 O4          1.3941    3.4258    0.0058 O.3       1 <0>        -0.5365
     16 H5         -0.5288    1.8147    0.9066 H         1 <0>         0.1451
     17 H6         -0.5458    1.8242   -0.8727 H         1 <0>         0.1438
     18 H7          0.5329   -0.3366    0.7931 H         1 <0>         0.4276
     19 H8          1.1002   -2.3788   -2.1504 H         1 <0>         0.1086
     20 H9          1.0304   -2.4165   -0.3722 H         1 <0>         0.0746
     21 H10        -0.9084   -3.4018   -1.3601 H         1 <0>         0.4135
     22 H11         3.6059   -0.2409   -2.6111 H         1 <0>         0.4148
     23 H12         3.5970    2.8968   -1.2145 H         1 <0>         0.4074
     24 H13         0.9534    3.8088    0.7767 H         1 <0>         0.4013
     25 H14        -0.9428   -0.3526    0.0632 H         1 <0>         0.4478
@<TRIPOS>BOND
     1    1   10 1
     2    1    2 1
     3    1   16 1
     4    1   17 1
     5    2    3 1
     6    2    4 1
     7    2   15 1
     8    4    5 1
     9    4    6 1
    10    4   14 1
    11    6    7 1
    12    6    8 1
    13    6   13 1
    14    8    9 1
    15    8   10 1
    16    8   11 1
    17   10   18 1
    18   10   25 1
    19   11   12 1
    20   11   19 1
    21   11   20 1
    22   12   21 1
    23   13   22 1
    24   14   23 1
    25   15   24 1
@<TRIPOS>MOLECULE
ZINC03795332
   28    28     0     0     0
SMALL
USER_CHARGES
2-(hydroxymethyl)-1-methyl-piperidine-3,4,5-triol
@<TRIPOS>ATOM
      1 C1          4.2144    1.1727   -2.1735 C.3       1 <0>        -0.0442
      2 C2          2.0526    1.1150   -1.0854 C.3       1 <0>        -0.0415
      3 C3          1.2504    1.6650    0.0961 C.3       1 <0>         0.0559
      4 H1          1.7824    1.4599    1.0250 H         1 <0>         0.0907
      5 C4          1.0772    3.1772   -0.0706 C.3       1 <0>         0.0682
      6 H2          0.5107    3.3810   -0.9793 H         1 <0>         0.0869
      7 C5          2.4572    3.8331   -0.1701 C.3       1 <0>         0.1102
      8 H3          3.0089    3.6621    0.7543 H         1 <0>         0.0966
      9 C6          3.2245    3.2203   -1.3439 C.3       1 <0>         0.0409
     10 H4          2.6792    3.4036   -2.2696 H         1 <0>         0.1584
     11 C7          4.6121    3.8584   -1.4347 C.3       1 <0>         0.0560
     12 O1          5.2926    3.6981   -0.1884 O.3       1 <0>        -0.5796
     13 O2          2.3036    5.2381   -0.3811 O.3       1 <0>        -0.5401
     14 O3          0.3778    3.7051    1.0582 O.3       1 <0>        -0.5485
     15 O4         -0.0337    1.0390    0.1335 O.3       1 <0>        -0.5374
     16 H5          5.2344    1.5417   -2.0657 H         1 <0>         0.1275
     17 H6          4.2072    0.0881   -2.0660 H         1 <0>         0.1286
     18 H7          3.8324    1.4429   -3.1580 H         1 <0>         0.1271
     19 H8          2.1900    0.0407   -0.9624 H         1 <0>         0.1396
     20 H9          1.5128    1.3082   -2.0124 H         1 <0>         0.1421
     21 H10         5.1840    3.3736   -2.2259 H         1 <0>         0.0778
     22 H11         4.5097    4.9202   -1.6588 H         1 <0>         0.1041
     23 H12         6.1809    4.0799   -0.1733 H         1 <0>         0.4111
     24 H13         1.8227    5.6915    0.3247 H         1 <0>         0.4123
     25 H14        -0.5043    3.3297    1.1851 H         1 <0>         0.4052
     26 H15         0.0000    0.0782    0.2377 H         1 <0>         0.4000
     27 N1          3.3786    1.7686   -1.1108 N.4       1 <0>        -0.3849
     28 H16         3.8386    1.6239   -0.2043 H         1 <0>         0.4370
@<TRIPOS>BOND
     1    1   16 1
     2    1   17 1
     3    1   18 1
     4    1   27 1
     5    2    3 1
     6    2   19 1
     7    2   20 1
     8    2   27 1
     9    3    4 1
    10    3    5 1
    11    3   15 1
    12    5    6 1
    13    5    7 1
    14    5   14 1
    15    7    8 1
    16    7    9 1
    17    7   13 1
    18    9   10 1
    19    9   11 1
    20    9   27 1
    21   11   12 1
    22   11   21 1
    23   11   22 1
    24   12   23 1
    25   13   24 1
    26   14   25 1
    27   15   26 1
    28   27   28 1
@<TRIPOS>MOLECULE
ZINC01492250
   21    21     0     0     0
SMALL
USER_CHARGES

@<TRIPOS>ATOM
      1 C1         -0.0181    1.4814    0.0102 C.3       1 <0>        -0.0360
      2 C2          1.4704    1.8907   -0.0018 C.3       1 <0>         0.0487
      3 H1          1.6139    2.7789   -0.6172 H         1 <0>         0.1181
      4 C3          2.2123    0.6866   -0.6178 C.3       1 <0>         0.1006
      5 H2          2.9273    0.2771    0.0957 H         1 <0>         0.1105
      6 C4          1.1096   -0.3490   -0.9261 C.3       1 <0>         0.0419
      7 H3          0.7806   -0.2572   -1.9612 H         1 <0>         0.1632
      8 N1          0.0021   -0.0041    0.0020 N.4       1 <0>        -0.5084
      9 C5          1.6169   -1.7662   -0.6523 C.3       1 <0>         0.0591
     10 O1          0.6246   -2.7131   -1.0532 O.3       1 <0>        -0.5766
     11 O2          2.8797    1.0767   -1.8196 O.3       1 <0>        -0.5400
     12 O3          1.9299    2.1310    1.3298 O.3       1 <0>        -0.5502
     13 H4         -0.5064    1.8500    0.9123 H         1 <0>         0.1450
     14 H5         -0.5235    1.8596   -0.8784 H         1 <0>         0.1478
     15 H6          0.1931   -0.3595    0.9268 H         1 <0>         0.4333
     16 H7          2.5333   -1.9394   -1.2164 H         1 <0>         0.1010
     17 H8          1.8188   -1.8804    0.4128 H         1 <0>         0.0752
     18 H9          0.8790   -3.6347   -0.9082 H         1 <0>         0.4115
     19 H10         3.5534    1.7585   -1.6919 H         1 <0>         0.4100
     20 H11         1.4670    2.8496    1.7819 H         1 <0>         0.4029
     21 H12        -0.8738   -0.3670   -0.3434 H         1 <0>         0.4424
@<TRIPOS>BOND
     1    1    8 1
     2    1    2 1
     3    1   13 1
     4    1   14 1
     5    2    3 1
     6    2    4 1
     7    2   12 1
     8    4    5 1
     9    4    6 1
    10    4   11 1
    11    6    7 1
    12    6    8 1
    13    6    9 1
    14    8   15 1
    15    8   21 1
    16    9   10 1
    17    9   16 1
    18    9   17 1
    19   10   18 1
    20   11   19 1
    21   12   20 1
@<TRIPOS>MOLECULE
ZINC01492231
   21    21     0     0     0
SMALL
USER_CHARGES

@<TRIPOS>ATOM
      1 C1         -0.0181    1.4811    0.0102 C.3       1 <0>        -0.0410
      2 C2          1.4852    1.8561   -0.0022 C.3       1 <0>         0.0544
      3 H1          1.8886    1.7992   -1.0131 H         1 <0>         0.1039
      4 C3          2.1189    0.7737    0.9015 C.3       1 <0>         0.1013
      5 H2          3.0788    0.4556    0.4946 H         1 <0>         0.1087
      6 C4          1.1186   -0.3971    0.8888 C.3       1 <0>         0.0339
      7 H3          0.7460   -0.5781    1.8970 H         1 <0>         0.1626
      8 N1          0.0021   -0.0041    0.0020 N.4       1 <0>        -0.5035
      9 C5          1.7984   -1.6576    0.3505 C.3       1 <0>         0.0572
     10 O1          0.8992   -2.7637    0.4512 O.3       1 <0>        -0.5762
     11 O2          2.2852    1.2721    2.2304 O.3       1 <0>        -0.5390
     12 O3          1.6857    3.1598    0.5476 O.3       1 <0>        -0.5334
     13 H4         -0.5003    1.8543    0.9137 H         1 <0>         0.1472
     14 H5         -0.5174    1.8640   -0.8799 H         1 <0>         0.1448
     15 H6         -0.8696   -0.3658    0.3589 H         1 <0>         0.4428
     16 H7          2.0715   -1.5054   -0.6937 H         1 <0>         0.0760
     17 H8          2.6953   -1.8642    0.9343 H         1 <0>         0.1004
     18 H9          1.2645   -3.5983    0.1273 H         1 <0>         0.4120
     19 H10         2.8721    2.0381    2.2926 H         1 <0>         0.4119
     20 H11         1.2421    3.8657    0.0578 H         1 <0>         0.4048
     21 H12         0.1645   -0.3447   -0.9338 H         1 <0>         0.4313
@<TRIPOS>BOND
     1    1    8 1
     2    1    2 1
     3    1   13 1
     4    1   14 1
     5    2    3 1
     6    2    4 1
     7    2   12 1
     8    4    5 1
     9    4    6 1
    10    4   11 1
    11    6    7 1
    12    6    8 1
    13    6    9 1
    14    8   15 1
    15    8   21 1
    16    9   10 1
    17    9   16 1
    18    9   17 1
    19   10   18 1
    20   11   19 1
    21   12   20 1
@<TRIPOS>MOLECULE
ZINC01492251
   21    21     0     0     0
SMALL
USER_CHARGES
(2S,3S,4S)-2-(hydroxymethyl)pyrrolidine-3,4-diol
@<TRIPOS>ATOM
      1 C1          1.7959    1.5130   -1.4221 C.3       1 <0>        -0.0400
      2 C2          0.5419    1.9038   -2.2334 C.3       1 <0>         0.0474
      3 H1          0.4676    1.2931   -3.1331 H         1 <0>         0.1166
      4 C3         -0.6478    1.6228   -1.2926 C.3       1 <0>         0.0985
      5 H2         -1.1984    2.5422   -1.0935 H         1 <0>         0.1102
      6 C4         -0.0127    1.0858    0.0080 C.3       1 <0>         0.0382
      7 H3          0.0021   -0.0041    0.0020 H         1 <0>         0.1617
      8 C5         -0.7758    1.6013    1.2299 C.3       1 <0>         0.0618
      9 O1         -0.2178    1.0310    2.4154 O.3       1 <0>        -0.5770
     10 O2         -1.5122    0.6397   -1.8655 O.3       1 <0>        -0.5402
     11 O3          0.5858    3.2900   -2.5777 O.3       1 <0>        -0.5505
     12 H4          2.6133    2.2035   -1.6295 H         1 <0>         0.1480
     13 H5          2.0957    0.4904   -1.6513 H         1 <0>         0.1462
     14 H6         -0.6957    2.6873    1.2767 H         1 <0>         0.0755
     15 H7         -1.8251    1.3175    1.1493 H         1 <0>         0.1009
     16 H8         -0.6535    1.3144    3.2308 H         1 <0>         0.4118
     17 H9         -1.9398    0.9219   -2.6857 H         1 <0>         0.4096
     18 H10         1.3396    3.5340   -3.1320 H         1 <0>         0.4027
     19 N1          1.3532    1.6099   -0.0304 N.4       1 <0>        -0.5032
     20 H11         1.3664    2.5889    0.2787 H         1 <0>         0.4362
     21 H12         1.9648    1.0511    0.5762 H         1 <0>         0.4456
@<TRIPOS>BOND
     1    1    2 1
     2    1   12 1
     3    1   13 1
     4    1   19 1
     5    2    3 1
     6    2    4 1
     7    2   11 1
     8    4    5 1
     9    4    6 1
    10    4   10 1
    11    6    7 1
    12    6    8 1
    13    6   19 1
    14    8    9 1
    15    8   14 1
    16    8   15 1
    17    9   16 1
    18   10   17 1
    19   11   18 1
    20   19   20 1
    21   19   21 1
@<TRIPOS>MOLECULE
ZINC02585429
   21    21     0     0     0
SMALL
USER_CHARGES

@<TRIPOS>ATOM
      1 C1          1.3679    1.5560   -0.0026 C.3       1 <0>        -0.0441
      2 C2          1.2065    2.9988   -0.5278 C.3       1 <0>         0.0541
      3 H1          1.1313    3.6985    0.3046 H         1 <0>         0.1059
      4 C3         -0.1053    2.9854   -1.3395 C.3       1 <0>         0.0908
      5 H2          0.0908    3.2442   -2.3800 H         1 <0>         0.1220
      6 C4         -0.6260    1.5358   -1.2365 C.3       1 <0>         0.0449
      7 H3         -0.3022    0.9533   -2.0990 H         1 <0>         0.1616
      8 C5         -2.1519    1.5236   -1.1253 C.3       1 <0>         0.0661
      9 O1         -2.6147    0.1727   -1.0693 O.3       1 <0>        -0.5834
     10 O2         -1.0502    3.8939   -0.7705 O.3       1 <0>        -0.5514
     11 O3          2.3075    3.3466   -1.3696 O.3       1 <0>        -0.5398
     12 H4          1.7821    1.5626    1.0056 H         1 <0>         0.1477
     13 H5          2.0043    0.9755   -0.6705 H         1 <0>         0.1451
     14 H6         -2.4544    2.0491   -0.2195 H         1 <0>         0.0830
     15 H7         -2.5835    2.0198   -1.9945 H         1 <0>         0.0977
     16 H8         -3.5754    0.0887   -0.9980 H         1 <0>         0.4109
     17 H9         -0.7570    4.8154   -0.7669 H         1 <0>         0.4095
     18 H10         3.1652    3.3276   -0.9234 H         1 <0>         0.4026
     19 N1          0.0037    1.0264   -0.0174 N.4       1 <0>        -0.5044
     20 H11        -0.5115    1.3498    0.8098 H         1 <0>         0.4367
     21 H12         0.0217   -0.0001   -0.0297 H         1 <0>         0.4444
@<TRIPOS>BOND
     1    1    2 1
     2    1   12 1
     3    1   13 1
     4    1   19 1
     5    2    3 1
     6    2    4 1
     7    2   11 1
     8    4    5 1
     9    4    6 1
    10    4   10 1
    11    6    7 1
    12    6    8 1
    13    6   19 1
    14    8    9 1
    15    8   14 1
    16    8   15 1
    17    9   16 1
    18   10   17 1
    19   11   18 1
    20   19   20 1
    21   19   21 1
@<TRIPOS>MOLECULE
ZINC03870472
   21    21     0     0     0
SMALL
USER_CHARGES
2-(hydroxymethyl)pyrrolidine-3,4-diol
@<TRIPOS>ATOM
      1 C1          1.1669    4.8285   -1.6380 C.3       1 <0>        -0.0440
      2 C2          2.2358    5.1471   -0.5715 C.3       1 <0>         0.0600
      3 H1          1.8367    5.8240    0.1839 H         1 <0>         0.1072
      4 C3          2.5406    3.7562    0.0443 C.3       1 <0>         0.0982
      5 H2          2.9005    3.8530    1.0686 H         1 <0>         0.1207
      6 C4          1.1449    3.0852    0.0077 C.3       1 <0>         0.0412
      7 H3          0.5459    3.4046    0.8605 H         1 <0>         0.1629
      8 C5          1.2864    1.5618   -0.0018 C.3       1 <0>         0.0612
      9 O1         -0.0110    0.9628    0.0073 O.3       1 <0>        -0.5824
     10 O2          3.4767    3.0347   -0.7590 O.3       1 <0>        -0.5490
     11 O3          3.4047    5.7023   -1.1778 O.3       1 <0>        -0.5386
     12 H4          1.6371    4.7297   -2.6164 H         1 <0>         0.1416
     13 H5          0.4191    5.6212   -1.6619 H         1 <0>         0.1394
     14 H6          1.8401    1.2428    0.8812 H         1 <0>         0.0964
     15 H7          1.8231    1.2523   -0.8987 H         1 <0>         0.0840
     16 H8          0.0021   -0.0041    0.0020 H         1 <0>         0.4111
     17 H9          4.3648    3.4171   -0.7672 H         1 <0>         0.4138
     18 H10         3.2489    6.5366   -1.6412 H         1 <0>         0.4036
     19 N1          0.5385    3.5563   -1.2514 N.4       1 <0>        -0.5070
     20 H11         0.6909    2.8586   -1.9892 H         1 <0>         0.4387
     21 H12        -0.4696    3.6971   -1.1165 H         1 <0>         0.4411
@<TRIPOS>BOND
     1    1    2 1
     2    1   12 1
     3    1   13 1
     4    1   19 1
     5    2    3 1
     6    2    4 1
     7    2   11 1
     8    4    5 1
     9    4    6 1
    10    4   10 1
    11    6    7 1
    12    6    8 1
    13    6   19 1
    14    8    9 1
    15    8   14 1
    16    8   15 1
    17    9   16 1
    18   10   17 1
    19   11   18 1
    20   19   20 1
    21   19   21 1
