@<TRIPOS>MOLECULE
ZINC01922677
   53    56     0     0     0
SMALL
USER_CHARGES
2-hydroxy-5-nitro-N-[[2-oxo-1-[2-oxo-2-(p-tolylamino)ethyl]indolin-3-ylidene]amino]benzamide
@<TRIPOS>ATOM
      1 C1          5.7665   -0.0286   -7.0484 C.3       1 <0>        -0.1133
      2 C2          5.3401    0.2345   -5.6271 C.ar      1 <0>        -0.1009
      3 C3          4.4635    1.2674   -5.3498 C.ar      1 <0>        -0.1029
      4 C4          4.0707    1.5110   -4.0483 C.ar      1 <0>        -0.1150
      5 C5          4.5571    0.7174   -3.0177 C.ar      1 <0>         0.1375
      6 C6          5.4417   -0.3155   -3.2988 C.ar      1 <0>        -0.1385
      7 C7          5.8265   -0.5573   -4.6031 C.ar      1 <0>        -0.1028
      8 N1          4.1610    0.9617   -1.6980 N.am      1 <0>        -0.6711
      9 C8          2.9091    1.3876   -1.4380 C.2       1 <0>         0.4945
     10 O1          2.1522    1.6396   -2.3517 O.2       1 <0>        -0.4971
     11 C9          2.4495    1.5507   -0.0121 C.3       1 <0>         0.0963
     12 N2          1.0623    2.0213    0.0031 N.am      1 <0>        -0.5264
     13 C10         0.6897    3.3609    0.0060 C.ar      1 <0>         0.1636
     14 C11         1.4436    4.5295   -0.0047 C.ar      1 <0>        -0.1374
     15 C12         0.8162    5.7588    0.0009 C.ar      1 <0>        -0.0749
     16 C13        -0.5658    5.8453    0.0168 C.ar      1 <0>        -0.1410
     17 C14        -1.3307    4.6961    0.0276 C.ar      1 <0>        -0.0400
     18 C15        -0.7079    3.4530    0.0225 C.ar      1 <0>        -0.0767
     19 C16        -1.2187    2.0624    0.0237 C.2       1 <0>         0.0334
     20 N3         -2.4702    1.6713    0.0322 N.2       1 <0>        -0.0938
     21 N4         -2.7770    0.3043    0.0362 N.am      1 <0>        -0.5699
     22 C17        -4.0634   -0.0976    0.0449 C.2       1 <0>         0.5828
     23 O2         -4.9576    0.7260    0.0494 O.2       1 <0>        -0.4631
     24 C18        -4.3862   -1.5360    0.0490 C.ar      1 <0>        -0.2804
     25 C19        -3.3615   -2.4865    0.0381 C.ar      1 <0>         0.0361
     26 C20        -3.6700   -3.8291    0.0475 C.ar      1 <0>        -0.1780
     27 C21        -4.9925   -4.2427    0.0564 C.ar      1 <0>        -0.0077
     28 C22        -6.0147   -3.3147    0.0620 C.ar      1 <0>        -0.2296
     29 C23        -5.7230   -1.9588    0.0581 C.ar      1 <0>         0.3352
     30 N5         -2.5838   -4.8347    0.0416 N.pl3     1 <0>         0.0656
     31 O3         -2.8534   -6.0224    0.0447 O.2       1 <0>        -0.2150
     32 O4         -1.4203   -4.4743    0.0337 O.3       1 <0>        -0.2183
     33 C24        -0.0111    1.2127    0.0168 C.2       1 <0>         0.5492
     34 O5          0.0086   -0.0040    0.0180 O.2       1 <0>        -0.4908
     35 H1          6.6632    0.5496   -7.2716 H         1 <0>         0.0689
     36 H2          5.9784   -1.0904   -7.1735 H         1 <0>         0.0658
     37 H3          4.9664    0.2648   -7.7280 H         1 <0>         0.0659
     38 H4          4.0853    1.8839   -6.1518 H         1 <0>         0.1248
     39 H5          3.3863    2.3181   -3.8323 H         1 <0>         0.1382
     40 H6          5.8252   -0.9316   -2.4990 H         1 <0>         0.1265
     41 H7          6.5113   -1.3630   -4.8229 H         1 <0>         0.1259
     42 H8          4.7876    0.8244   -0.9703 H         1 <0>         0.4120
     43 H9          3.0853    2.2775    0.4936 H         1 <0>         0.1243
     44 H10         2.5136    0.5918    0.5023 H         1 <0>         0.1293
     45 H11         2.5222    4.4749   -0.0179 H         1 <0>         0.1258
     46 H12         1.4086    6.6618   -0.0075 H         1 <0>         0.1325
     47 H13        -1.0457    6.8128    0.0204 H         1 <0>         0.1334
     48 H14        -2.4086    4.7624    0.0404 H         1 <0>         0.1390
     49 H15        -2.0635   -0.3528    0.0326 H         1 <0>         0.4045
     50 H16        -2.3293   -2.1689    0.0263 H         1 <0>         0.1278
     51 H17        -5.2250   -5.2973    0.0588 H         1 <0>         0.1317
     52 H18        -7.0429   -3.6451    0.0690 H         1 <0>         0.1309
     53 O6         -6.7263   -1.0459    0.0627 O.3       1 <0>        -0.6164
@<TRIPOS>BOND
     1    1    2 1
     2    1   35 1
     3    1   36 1
     4    1   37 1
     5    2    7 ar
     6    2    3 ar
     7    3    4 ar
     8    3   38 1
     9    4    5 ar
    10    4   39 1
    11    5    6 ar
    12    5    8 1
    13    6    7 ar
    14    6   40 1
    15    7   41 1
    16    8    9 am
    17    8   42 1
    18    9   10 2
    19    9   11 1
    20   11   12 1
    21   11   43 1
    22   11   44 1
    23   12   33 am
    24   12   13 1
    25   13   18 ar
    26   13   14 ar
    27   14   15 ar
    28   14   45 1
    29   15   16 ar
    30   15   46 1
    31   16   17 ar
    32   16   47 1
    33   17   18 ar
    34   17   48 1
    35   18   19 1
    36   19   20 2
    37   19   33 1
    38   20   21 1
    39   21   22 am
    40   21   49 1
    41   22   23 2
    42   22   24 1
    43   24   29 ar
    44   24   25 ar
    45   25   26 ar
    46   25   50 1
    47   26   27 ar
    48   26   30 1
    49   27   28 ar
    50   27   51 1
    51   28   29 ar
    52   28   52 1
    53   29   53 1
    54   30   31 2
    55   30   32 1
    56   33   34 2
@<TRIPOS>MOLECULE
ZINC03870338
   36    38     0     0     0
SMALL
USER_CHARGES

@<TRIPOS>ATOM
      1 C1         -0.0167    1.3824    0.0096 C.ar      1 <0>        -0.1065
      2 C2          1.1697    2.0917    0.0021 C.ar      1 <0>        -0.0561
      3 C3          2.3792    1.4226   -0.0135 C.ar      1 <0>        -0.1143
      4 C4          2.4066    0.0362   -0.0217 C.ar      1 <0>         0.0945
      5 C5          1.2160   -0.6806   -0.0137 C.ar      1 <0>         0.0621
      6 C6          0.0021   -0.0041    0.0020 C.ar      1 <0>         0.0975
      7 O1         -1.1658   -0.7009    0.0099 O.3       1 <0>        -0.4887
      8 O2          1.2387   -2.0413   -0.0217 O.3       1 <0>        -0.4807
      9 O3          3.5971   -0.6212   -0.0380 O.3       1 <0>        -0.4839
     10 C7          1.1446    3.5984    0.0105 C.3       1 <0>         0.1452
     11 H1          0.2126    3.9475    0.4550 H         1 <0>         0.0950
     12 C8          1.2611    4.1251   -1.4256 C.3       1 <0>         0.0817
     13 H2          2.2329    3.8544   -1.8385 H         1 <0>         0.0744
     14 C9          1.1215    5.6490   -1.3913 C.3       1 <0>        -0.1050
     15 C10         2.0188    6.2172   -0.3211 C.ar      1 <0>        -0.1946
     16 C11         2.3348    7.5707   -0.3637 C.ar      1 <0>         0.1610
     17 C12         3.1535    8.1275    0.6048 C.ar      1 <0>        -0.1991
     18 C13         3.6597    7.3319    1.6220 C.ar      1 <0>         0.1590
     19 C14         3.3464    5.9836    1.6646 C.ar      1 <0>        -0.1801
     20 C15         2.5265    5.4225    0.6909 C.ar      1 <0>         0.1614
     21 O4          2.2521    4.0938    0.7639 O.3       1 <0>        -0.2952
     22 O5          4.4620    7.8746    2.5751 O.3       1 <0>        -0.4914
     23 O6          1.8385    8.3503   -1.3601 O.3       1 <0>        -0.4912
     24 O7          0.2224    3.5634   -2.2304 O.3       1 <0>        -0.5498
     25 H3         -0.9596    1.9089    0.0260 H         1 <0>         0.1396
     26 H4          3.3040    1.9803   -0.0197 H         1 <0>         0.1400
     27 H5         -1.5123   -0.8977   -0.8712 H         1 <0>         0.3966
     28 H6          1.2542   -2.4396    0.8593 H         1 <0>         0.3906
     29 H7          3.9506   -0.8164    0.8407 H         1 <0>         0.3908
     30 H8          1.4057    6.0611   -2.3595 H         1 <0>         0.0947
     31 H9          0.0865    5.9136   -1.1749 H         1 <0>         0.0887
     32 H10         3.3971    9.1790    0.5682 H         1 <0>         0.1402
     33 H11         3.7408    5.3648    2.4571 H         1 <0>         0.1429
     34 H12         3.9848    8.2124    3.3453 H         1 <0>         0.3975
     35 H13         0.9859    8.7570   -1.1536 H         1 <0>         0.3956
     36 H14         0.2377    3.8553   -3.1522 H         1 <0>         0.3878
@<TRIPOS>BOND
     1    1    6 ar
     2    1    2 ar
     3    1   25 1
     4    2    3 ar
     5    2   10 1
     6    3    4 ar
     7    3   26 1
     8    4    5 ar
     9    4    9 1
    10    5    6 ar
    11    5    8 1
    12    6    7 1
    13    7   27 1
    14    8   28 1
    15    9   29 1
    16   10   11 1
    17   10   21 1
    18   10   12 1
    19   12   13 1
    20   12   14 1
    21   12   24 1
    22   14   15 1
    23   14   30 1
    24   14   31 1
    25   15   20 ar
    26   15   16 ar
    27   16   17 ar
    28   16   23 1
    29   17   18 ar
    30   17   32 1
    31   18   19 ar
    32   18   22 1
    33   19   20 ar
    34   19   33 1
    35   20   21 1
    36   22   34 1
    37   23   35 1
    38   24   36 1
@<TRIPOS>MOLECULE
ZINC03870414
   51    54     0     0     0
SMALL
USER_CHARGES

@<TRIPOS>ATOM
      1 C1         -0.0167    1.3824    0.0096 C.ar      1 <0>        -0.1116
      2 C2          1.1697    2.0917    0.0021 C.ar      1 <0>        -0.0692
      3 C3          2.3792    1.4226   -0.0135 C.ar      1 <0>        -0.1120
      4 C4          2.4066    0.0362   -0.0217 C.ar      1 <0>         0.0966
      5 C5          1.2160   -0.6806   -0.0137 C.ar      1 <0>         0.0654
      6 C6          0.0021   -0.0041    0.0020 C.ar      1 <0>         0.0997
      7 O1         -1.1658   -0.7009    0.0099 O.3       1 <0>        -0.4870
      8 O2          1.2387   -2.0413   -0.0217 O.3       1 <0>        -0.4795
      9 O3          3.5971   -0.6212   -0.0380 O.3       1 <0>        -0.4826
     10 C7          1.1446    3.5984    0.0105 C.3       1 <0>         0.1465
     11 H1          0.2126    3.9475    0.4550 H         1 <0>         0.1019
     12 C8          1.2611    4.1251   -1.4256 C.3       1 <0>         0.0646
     13 H2          2.2329    3.8544   -1.8385 H         1 <0>         0.1051
     14 C9          1.1215    5.6490   -1.3913 C.3       1 <0>        -0.0891
     15 C10         2.0188    6.2172   -0.3211 C.ar      1 <0>        -0.1914
     16 C11         2.3348    7.5707   -0.3637 C.ar      1 <0>         0.1641
     17 C12         3.1535    8.1275    0.6048 C.ar      1 <0>        -0.1972
     18 C13         3.6597    7.3319    1.6220 C.ar      1 <0>         0.1602
     19 C14         3.3464    5.9836    1.6646 C.ar      1 <0>        -0.1778
     20 C15         2.5265    5.4225    0.6909 C.ar      1 <0>         0.1595
     21 O4          2.2521    4.0938    0.7639 O.3       1 <0>        -0.2903
     22 O5          4.4620    7.8746    2.5751 O.3       1 <0>        -0.4908
     23 O6          1.8385    8.3503   -1.3601 O.3       1 <0>        -0.4898
     24 O7          0.2224    3.5634   -2.2304 O.3       1 <0>        -0.3294
     25 C16         0.4902    3.3873   -3.5393 C.2       1 <0>         0.5134
     26 O8          1.5758    3.7020   -3.9850 O.2       1 <0>        -0.4864
     27 C17        -0.5345    2.8126   -4.4307 C.ar      1 <0>        -0.1019
     28 C18        -1.7857    2.4554   -3.9205 C.ar      1 <0>        -0.0815
     29 C19        -2.7441    1.9170   -4.7582 C.ar      1 <0>         0.0862
     30 C20        -2.4639    1.7298   -6.1092 C.ar      1 <0>         0.0957
     31 C21        -1.2180    2.0843   -6.6202 C.ar      1 <0>         0.0894
     32 C22        -0.2582    2.6293   -5.7884 C.ar      1 <0>        -0.0729
     33 O9         -0.9475    1.8997   -7.9402 O.3       1 <0>        -0.4773
     34 O10        -3.4078    1.1998   -6.9305 O.3       1 <0>        -0.4722
     35 O11        -3.9618    1.5692   -4.2623 O.3       1 <0>        -0.4782
     36 H3         -0.9596    1.9089    0.0260 H         1 <0>         0.1418
     37 H4          3.3040    1.9803   -0.0197 H         1 <0>         0.1417
     38 H5         -1.5123   -0.8977   -0.8712 H         1 <0>         0.3976
     39 H6          1.2542   -2.4396    0.8593 H         1 <0>         0.3916
     40 H7          3.9506   -0.8164    0.8407 H         1 <0>         0.3916
     41 H8          1.4057    6.0611   -2.3595 H         1 <0>         0.0998
     42 H9          0.0865    5.9136   -1.1749 H         1 <0>         0.0918
     43 H10         3.3971    9.1790    0.5682 H         1 <0>         0.1412
     44 H11         3.7408    5.3648    2.4571 H         1 <0>         0.1438
     45 H12         3.9848    8.2124    3.3453 H         1 <0>         0.3977
     46 H13         0.9859    8.7570   -1.1536 H         1 <0>         0.3954
     47 H14        -2.0033    2.5997   -2.8725 H         1 <0>         0.1530
     48 H15         0.7063    2.9086   -6.1862 H         1 <0>         0.1540
     49 H16        -1.1721    2.6574   -8.4974 H         1 <0>         0.3936
     50 H17        -3.9840    1.8575   -7.3434 H         1 <0>         0.3923
     51 H18        -4.6168    2.2798   -4.2938 H         1 <0>         0.3929
@<TRIPOS>BOND
     1    1    6 ar
     2    1    2 ar
     3    1   36 1
     4    2    3 ar
     5    2   10 1
     6    3    4 ar
     7    3   37 1
     8    4    5 ar
     9    4    9 1
    10    5    6 ar
    11    5    8 1
    12    6    7 1
    13    7   38 1
    14    8   39 1
    15    9   40 1
    16   10   11 1
    17   10   21 1
    18   10   12 1
    19   12   13 1
    20   12   14 1
    21   12   24 1
    22   14   15 1
    23   14   41 1
    24   14   42 1
    25   15   20 ar
    26   15   16 ar
    27   16   17 ar
    28   16   23 1
    29   17   18 ar
    30   17   43 1
    31   18   19 ar
    32   18   22 1
    33   19   20 ar
    34   19   44 1
    35   20   21 1
    36   22   45 1
    37   23   46 1
    38   24   25 1
    39   25   26 2
    40   25   27 1
    41   27   32 ar
    42   27   28 ar
    43   28   29 ar
    44   28   47 1
    45   29   30 ar
    46   29   35 1
    47   30   31 ar
    48   30   34 1
    49   31   32 ar
    50   31   33 1
    51   32   48 1
    52   33   49 1
    53   34   50 1
    54   35   51 1
@<TRIPOS>MOLECULE
ZINC04544252
   50    53     0     0     0
SMALL
USER_CHARGES
[2-(3,4-dihydroxyphenyl)-5,7-dihydroxy-chroman-3-yl] 3,4,5-trihydroxybenzoate
@<TRIPOS>ATOM
      1 C1          0.9224   -4.5935    1.1167 C.ar      1 <0>        -0.0705
      2 C2          1.0883   -5.9328    1.4186 C.ar      1 <0>        -0.1340
      3 C3          0.6227   -6.9024    0.5457 C.ar      1 <0>         0.0933
      4 C4         -0.0167   -6.5252   -0.6318 C.ar      1 <0>         0.0804
      5 C5         -0.1846   -5.1819   -0.9255 C.ar      1 <0>        -0.1121
      6 C6          0.2826   -4.2191   -0.0497 C.ar      1 <0>        -0.0894
      7 C7          0.0990   -2.7582   -0.3709 C.3       1 <0>         0.1460
      8 H1         -0.0901   -2.6372   -1.4375 H         1 <0>         0.1077
      9 C8         -1.0830   -2.1975    0.4304 C.3       1 <0>         0.0615
     10 H2         -1.9775   -2.7858    0.2258 H         1 <0>         0.1128
     11 C9         -1.3104   -0.7463   -0.0000 C.3       1 <0>        -0.0833
     12 C10         0.0021   -0.0041    0.0020 C.ar      1 <0>        -0.1925
     13 C11        -0.0168    1.3862    0.0097 C.ar      1 <0>         0.1611
     14 C12         1.1697    2.1008    0.0022 C.ar      1 <0>        -0.2007
     15 C13         2.3818    1.4267   -0.0124 C.ar      1 <0>         0.1588
     16 C14         2.4016    0.0420   -0.0183 C.ar      1 <0>        -0.1803
     17 C15         1.2107   -0.6768   -0.0089 C.ar      1 <0>         0.1699
     18 O1          1.2744   -2.0339   -0.0055 O.3       1 <0>        -0.2915
     19 O2          3.5482    2.1241   -0.0217 O.3       1 <0>        -0.4925
     20 O3         -1.2044    2.0468    0.0189 O.3       1 <0>        -0.4921
     21 O4         -0.7793   -2.2461    1.8494 O.3       1 <0>        -0.3290
     22 C16        -1.8190   -2.4003    2.6926 C.2       1 <0>         0.5128
     23 O5         -2.9484   -2.4916    2.2541 O.2       1 <0>        -0.4942
     24 C17        -1.5860   -2.4583    4.1477 C.ar      1 <0>        -0.1031
     25 C18        -0.2867   -2.3591    4.6532 C.ar      1 <0>        -0.0799
     26 C19        -0.0720   -2.4069    6.0177 C.ar      1 <0>         0.0866
     27 C20        -1.1472   -2.5668    6.8878 C.ar      1 <0>         0.0951
     28 C21        -2.4421   -2.6720    6.3866 C.ar      1 <0>         0.0879
     29 C22        -2.6634   -2.6181    5.0235 C.ar      1 <0>        -0.0733
     30 O6         -3.4901   -2.8276    7.2394 O.3       1 <0>        -0.4780
     31 O7         -0.9326   -2.6196    8.2285 O.3       1 <0>        -0.4725
     32 O8          1.1914   -2.3040    6.5106 O.3       1 <0>        -0.4780
     33 O9         -0.4759   -7.4734   -1.4917 O.3       1 <0>        -0.4852
     34 O10         0.7896   -8.2199    0.8387 O.3       1 <0>        -0.4875
     35 H3          1.2898   -3.8385    1.7959 H         1 <0>         0.1387
     36 H4          1.5847   -6.2228    2.3329 H         1 <0>         0.1370
     37 H5         -0.6807   -4.8867   -1.8382 H         1 <0>         0.1379
     38 H6         -1.9998   -0.2659    0.6942 H         1 <0>         0.0927
     39 H7         -1.7357   -0.7281   -1.0034 H         1 <0>         0.1019
     40 H8          1.1511    3.1806    0.0084 H         1 <0>         0.1387
     41 H9          3.3459   -0.4822   -0.0299 H         1 <0>         0.1417
     42 H10         3.8765    2.3295   -0.9077 H         1 <0>         0.3971
     43 H11        -1.5439    2.2331    0.9049 H         1 <0>         0.3956
     44 H12         0.5481   -2.2400    3.9785 H         1 <0>         0.1528
     45 H13        -3.6679   -2.6998    4.6353 H         1 <0>         0.1533
     46 H14        -3.7031   -3.7500    7.4367 H         1 <0>         0.3935
     47 H15        -0.7802   -3.5123    8.5676 H         1 <0>         0.3921
     48 H16         1.6474   -3.1516    6.6040 H         1 <0>         0.3924
     49 H17         0.1682   -7.7425   -2.1610 H         1 <0>         0.3896
     50 H18         1.6148   -8.5960    0.5031 H         1 <0>         0.3907
@<TRIPOS>BOND
     1    1    6 ar
     2    1    2 ar
     3    1   35 1
     4    2    3 ar
     5    2   36 1
     6    3    4 ar
     7    3   34 1
     8    4    5 ar
     9    4   33 1
    10    5    6 ar
    11    5   37 1
    12    6    7 1
    13    7    8 1
    14    7   18 1
    15    7    9 1
    16    9   10 1
    17    9   11 1
    18    9   21 1
    19   11   12 1
    20   11   38 1
    21   11   39 1
    22   12   17 ar
    23   12   13 ar
    24   13   14 ar
    25   13   20 1
    26   14   15 ar
    27   14   40 1
    28   15   16 ar
    29   15   19 1
    30   16   17 ar
    31   16   41 1
    32   17   18 1
    33   19   42 1
    34   20   43 1
    35   21   22 1
    36   22   23 2
    37   22   24 1
    38   24   29 ar
    39   24   25 ar
    40   25   26 ar
    41   25   44 1
    42   26   27 ar
    43   26   32 1
    44   27   28 ar
    45   27   31 1
    46   28   29 ar
    47   28   30 1
    48   29   45 1
    49   30   46 1
    50   31   47 1
    51   32   48 1
    52   33   49 1
    53   34   50 1
@<TRIPOS>MOLECULE
ZINC08438283
   85    90     0     0     0
SMALL
USER_CHARGES
2-[6-[[4,6-bis(1-piperidyl)-1,3,5-triazin-2-yl]amino]benzothiazol-2-yl]sulfanyl-N-[2-(3,4-dimethoxyphenyl)ethyl]acetamide
@<TRIPOS>ATOM
      1 C1          0.9343   10.3493   -3.5631 C.3       1 <0>         0.0254
      2 O1          0.8486    9.8706   -2.2195 O.3       1 <0>        -0.3064
      3 C2          0.9853    8.5306   -2.0316 C.ar      1 <0>         0.1006
      4 C3          1.1967    7.6953   -3.1167 C.ar      1 <0>        -0.1703
      5 C4          1.3406    6.3340   -2.9234 C.ar      1 <0>        -0.1080
      6 C5          1.2628    5.8016   -1.6499 C.ar      1 <0>        -0.0832
      7 C6          1.0521    6.6294   -0.5630 C.ar      1 <0>        -0.1656
      8 C7          0.9126    7.9953   -0.7491 C.ar      1 <0>         0.1020
      9 O2          0.7048    8.8110    0.3190 O.3       1 <0>        -0.3057
     10 C8          0.6410    8.1919    1.6053 C.3       1 <0>         0.0254
     11 C9          1.4143    4.3162   -1.4455 C.3       1 <0>        -0.0868
     12 C10         0.0404    3.6476   -1.5263 C.3       1 <0>         0.1238
     13 N1          0.1877    2.2036   -1.3277 N.am      1 <0>        -0.7234
     14 C11        -0.8977    1.4052   -1.3576 C.2       1 <0>         0.5326
     15 O3         -1.9957    1.8814   -1.5540 O.2       1 <0>        -0.5206
     16 C12        -0.7463   -0.0802   -1.1533 C.3       1 <0>        -0.1598
     17 S1         -2.3715   -0.8712   -1.2489 S.3       1 <0>         0.1267
     18 C13        -1.9104   -2.5509   -0.9830 C.2       1 <0>         0.0959
     19 N2         -0.7147   -3.0541   -0.7762 N.2       1 <0>        -0.5010
     20 C14        -0.5071   -4.3769   -0.5855 C.ar      1 <0>         0.0705
     21 C15         0.7192   -5.0418   -0.3543 C.ar      1 <0>        -0.0388
     22 C16         0.7595   -6.3998   -0.1790 C.ar      1 <0>        -0.1271
     23 C17        -0.3990   -7.1721   -0.2216 C.ar      1 <0>         0.1862
     24 C18        -1.6198   -6.5493   -0.4469 C.ar      1 <0>        -0.0559
     25 C19        -1.6628   -5.1892   -0.6228 C.ar      1 <0>        -0.1247
     26 S2         -2.9515   -4.0021   -0.9184 S.3       1 <0>         0.0510
     27 N3         -0.3337   -8.5594   -0.0391 N.pl3     1 <0>        -0.6240
     28 C20        -1.3346   -9.2128    0.6526 C.ar      1 <0>         0.6328
     29 N4         -2.2977   -8.5143    1.2461 N.ar      1 <0>        -0.6398
     30 C21        -3.2637   -9.1435    1.9079 C.ar      1 <0>         0.5859
     31 N5         -3.2612  -10.4706    1.9850 N.ar      1 <0>        -0.6035
     32 C22        -2.2954  -11.1689    1.3958 C.ar      1 <0>         0.5881
     33 N6         -1.3322  -10.5400    0.7297 N.ar      1 <0>        -0.6447
     34 N7         -2.2926  -12.5467    1.4762 N.pl3     1 <0>        -0.4516
     35 C23        -2.3185  -12.9923    2.8752 C.3       1 <0>         0.0682
     36 C24        -2.4615  -14.5151    2.9244 C.3       1 <0>        -0.1183
     37 C25        -1.2837  -15.1575    2.1863 C.3       1 <0>        -0.1263
     38 C26        -1.2507  -14.6398    0.7457 C.3       1 <0>        -0.1213
     39 C27        -1.1429  -13.1133    0.7597 C.3       1 <0>         0.0695
     40 N8         -4.2666   -8.4187    2.5192 N.pl3     1 <0>        -0.4504
     41 C28        -5.5893   -8.8533    2.0525 C.3       1 <0>         0.0680
     42 C29        -6.6764   -8.1335    2.8540 C.3       1 <0>        -0.1180
     43 C30        -6.5215   -6.6212    2.6710 C.3       1 <0>        -0.1259
     44 C31        -5.1187   -6.2018    3.1191 C.3       1 <0>        -0.1210
     45 C32        -4.0768   -6.9776    2.3100 C.3       1 <0>         0.0715
     46 H1          0.8088   11.4320   -3.5718 H         1 <0>         0.1018
     47 H2          1.9089   10.0932   -3.9786 H         1 <0>         0.0554
     48 H3          0.1506    9.8879   -4.1639 H         1 <0>         0.0558
     49 H4          1.2535    8.1082   -4.1130 H         1 <0>         0.1370
     50 H5          1.5098    5.6846   -3.7695 H         1 <0>         0.1283
     51 H6          0.9964    6.2114    0.4313 H         1 <0>         0.1359
     52 H7          0.4719    8.9531    2.3670 H         1 <0>         0.1019
     53 H8         -0.1779    7.4727    1.6223 H         1 <0>         0.0555
     54 H9          1.5804    7.6776    1.8080 H         1 <0>         0.0549
     55 H10         1.8533    4.1271   -0.4659 H         1 <0>         0.0805
     56 H11         2.0635    3.9072   -2.2197 H         1 <0>         0.0829
     57 H12        -0.3986    3.8367   -2.5059 H         1 <0>         0.0749
     58 H13        -0.6088    4.0566   -0.7521 H         1 <0>         0.0734
     59 H14         1.0663    1.8222   -1.1746 H         1 <0>         0.4051
     60 H15        -0.0971   -0.4892   -1.9274 H         1 <0>         0.1290
     61 H16        -0.3073   -0.2693   -0.1737 H         1 <0>         0.1288
     62 H17         1.6358   -4.4718   -0.3158 H         1 <0>         0.1391
     63 H18         1.7099   -6.8821   -0.0043 H         1 <0>         0.1394
     64 H19        -2.5287   -7.1314   -0.4836 H         1 <0>         0.1385
     65 H20         0.4147   -9.0611   -0.3985 H         1 <0>         0.4300
     66 H21        -1.3913  -12.6984    3.3672 H         1 <0>         0.0465
     67 H22        -3.1631  -12.5315    3.3875 H         1 <0>         0.0982
     68 H23        -3.3952  -14.8087    2.4448 H         1 <0>         0.0769
     69 H24        -2.4650  -14.8470    3.9626 H         1 <0>         0.0774
     70 H25        -1.4040  -16.2408    2.1814 H         1 <0>         0.0704
     71 H26        -0.3525  -14.8958    2.6888 H         1 <0>         0.0621
     72 H27        -2.1654  -14.9353    0.2318 H         1 <0>         0.0736
     73 H28        -0.3892  -15.0608    0.2273 H         1 <0>         0.0765
     74 H29        -1.1336  -12.7405   -0.2645 H         1 <0>         0.0898
     75 H30        -0.2212  -12.8191    1.2617 H         1 <0>         0.0551
     76 H31        -5.6985   -8.6128    0.9950 H         1 <0>         0.0462
     77 H32        -5.6880   -9.9298    2.1921 H         1 <0>         0.0983
     78 H33        -6.5764   -8.3844    3.9099 H         1 <0>         0.0767
     79 H34        -7.6581   -8.4446    2.4968 H         1 <0>         0.0775
     80 H35        -7.2668   -6.1030    3.2745 H         1 <0>         0.0709
     81 H36        -6.6601   -6.3652    1.6206 H         1 <0>         0.0626
     82 H37        -4.9942   -6.4223    4.1793 H         1 <0>         0.0733
     83 H38        -4.9875   -5.1328    2.9513 H         1 <0>         0.0769
     84 H39        -3.0769   -6.6918    2.6365 H         1 <0>         0.0885
     85 H40        -4.1932   -6.7459    1.2513 H         1 <0>         0.0525
@<TRIPOS>BOND
     1    1    2 1
     2    1   46 1
     3    1   47 1
     4    1   48 1
     5    2    3 1
     6    3    8 ar
     7    3    4 ar
     8    4    5 ar
     9    4   49 1
    10    5    6 ar
    11    5   50 1
    12    6    7 ar
    13    6   11 1
    14    7    8 ar
    15    7   51 1
    16    8    9 1
    17    9   10 1
    18   10   52 1
    19   10   53 1
    20   10   54 1
    21   11   12 1
    22   11   55 1
    23   11   56 1
    24   12   13 1
    25   12   57 1
    26   12   58 1
    27   13   14 am
    28   13   59 1
    29   14   15 2
    30   14   16 1
    31   16   17 1
    32   16   60 1
    33   16   61 1
    34   17   18 1
    35   18   26 1
    36   18   19 2
    37   19   20 1
    38   20   25 ar
    39   20   21 ar
    40   21   22 ar
    41   21   62 1
    42   22   23 ar
    43   22   63 1
    44   23   24 ar
    45   23   27 1
    46   24   25 ar
    47   24   64 1
    48   25   26 1
    49   27   28 1
    50   27   65 1
    51   28   33 ar
    52   28   29 ar
    53   29   30 ar
    54   30   31 ar
    55   30   40 1
    56   31   32 ar
    57   32   33 ar
    58   32   34 1
    59   34   39 1
    60   34   35 1
    61   35   36 1
    62   35   66 1
    63   35   67 1
    64   36   37 1
    65   36   68 1
    66   36   69 1
    67   37   38 1
    68   37   70 1
    69   37   71 1
    70   38   39 1
    71   38   72 1
    72   38   73 1
    73   39   74 1
    74   39   75 1
    75   40   45 1
    76   40   41 1
    77   41   42 1
    78   41   76 1
    79   41   77 1
    80   42   43 1
    81   42   78 1
    82   42   79 1
    83   43   44 1
    84   43   80 1
    85   43   81 1
    86   44   45 1
    87   44   82 1
    88   44   83 1
    89   45   84 1
    90   45   85 1
@<TRIPOS>MOLECULE
ZINC64503663
   68    73     0     0     0
SMALL
USER_CHARGES

@<TRIPOS>ATOM
      1 C1          4.8492   -4.4256   -3.6499 C.ar      1 <0>        -0.1095
      2 C2          3.7482   -4.4532   -2.8144 C.ar      1 <0>        -0.1214
      3 C3          3.6144   -3.5068   -1.8158 C.ar      1 <0>        -0.0996
      4 C4          4.5818   -2.5329   -1.6524 C.ar      1 <0>        -0.1142
      5 C5          5.6833   -2.5059   -2.4873 C.ar      1 <0>        -0.0996
      6 C6          5.8164   -3.4515   -3.4867 C.ar      1 <0>        -0.1214
      7 C7          4.4354   -1.5005   -0.5644 C.3       1 <0>         0.1624
      8 N1          5.0700   -1.9901    0.6619 N.am      1 <0>        -0.7185
      9 C8          5.0628   -1.2293    1.7744 C.2       1 <0>         0.5349
     10 O1          4.5311   -0.1393    1.7602 O.2       1 <0>        -0.5204
     11 C9          5.7156   -1.7329    3.0359 C.3       1 <0>        -0.1567
     12 S1          5.5394   -0.4901    4.3455 S.3       1 <0>         0.1156
     13 C10         6.3421   -1.2182    5.7348 C.2       1 <0>         0.0949
     14 N2          6.9411   -2.3841    5.8226 N.2       1 <0>        -0.5014
     15 C11         7.5205   -2.8182    6.9649 C.ar      1 <0>         0.0633
     16 C12         8.1918   -4.0420    7.1909 C.ar      1 <0>        -0.0385
     17 C13         8.7277   -4.3328    8.4176 C.ar      1 <0>        -0.1321
     18 C14         8.6322   -3.4394    9.4820 C.ar      1 <0>         0.1925
     19 C15         7.9791   -2.2284    9.2928 C.ar      1 <0>        -0.0596
     20 C16         7.4414   -1.9347    8.0650 C.ar      1 <0>        -0.1228
     21 S2          6.5552   -0.5551    7.3806 S.3       1 <0>         0.0530
     22 N3          9.1876   -3.7585   10.7278 N.pl3     1 <0>        -0.6246
     23 C17         8.5875   -3.3080   11.8872 C.ar      1 <0>         0.6508
     24 N4          7.4223   -2.6705   11.8282 N.ar      1 <0>        -0.6662
     25 C18         6.8447   -2.2368   12.9442 C.ar      1 <0>         0.6702
     26 N5          7.4322   -2.4404   14.1192 N.ar      1 <0>        -0.6679
     27 C19         8.5974   -3.0779   14.1782 C.ar      1 <0>         0.6729
     28 N6          9.1723   -3.5164   13.0628 N.ar      1 <0>        -0.6710
     29 N7          9.2073   -3.2892   15.3981 N.pl3     1 <0>        -0.5811
     30 C20         8.6786   -2.8703   16.7044 C.3       1 <0>         0.1254
     31 C21         9.7076   -3.2956   17.7730 C.3       1 <0>        -0.1341
     32 C22        11.0214   -3.4258   16.9578 C.3       1 <0>        -0.1352
     33 C23        10.4937   -3.9782   15.6076 C.3       1 <0>         0.1218
     34 N8          5.6353   -1.5747   12.8829 N.pl3     1 <0>        -0.5794
     35 C24         4.8926   -1.0388   14.0330 C.3       1 <0>         0.1255
     36 C25         3.5935   -0.4100   13.4868 C.3       1 <0>        -0.1338
     37 C26         3.4073   -1.1263   12.1231 C.3       1 <0>        -0.1348
     38 C27         4.8774   -1.2820   11.6528 C.3       1 <0>         0.1215
     39 H1          4.9560   -5.1678   -4.4272 H         1 <0>         0.1245
     40 H2          2.9924   -5.2141   -2.9421 H         1 <0>         0.1254
     41 H3          2.7539   -3.5279   -1.1636 H         1 <0>         0.1248
     42 H4          6.4389   -1.7448   -2.3598 H         1 <0>         0.1248
     43 H5          6.6767   -3.4301   -4.1392 H         1 <0>         0.1254
     44 H6          4.9155   -0.5731   -0.8766 H         1 <0>         0.0809
     45 H7          3.3773   -1.3170   -0.3777 H         1 <0>         0.0810
     46 H8          5.4952   -2.8618    0.6733 H         1 <0>         0.4058
     47 H9          5.2355   -2.6603    3.3481 H         1 <0>         0.1274
     48 H10         6.7737   -1.9164    2.8492 H         1 <0>         0.1274
     49 H11         8.2828   -4.7566    6.3863 H         1 <0>         0.1374
     50 H12         9.2349   -5.2752    8.5627 H         1 <0>         0.1385
     51 H13         7.8949   -1.5230   10.1062 H         1 <0>         0.1472
     52 H14         9.9936   -4.2960   10.7761 H         1 <0>         0.4289
     53 H15         8.5508   -1.7880   16.7228 H         1 <0>         0.0697
     54 H16         7.7240   -3.3616   16.8928 H         1 <0>         0.0689
     55 H17         9.8050   -2.5287   18.5414 H         1 <0>         0.0858
     56 H18         9.4315   -4.2530   18.2149 H         1 <0>         0.0785
     57 H19        11.4978   -2.4542   16.8269 H         1 <0>         0.0776
     58 H20        11.7041   -4.1338   17.4276 H         1 <0>         0.0880
     59 H21        10.3413   -5.0557   15.6695 H         1 <0>         0.0689
     60 H22        11.1882   -3.7380   14.8026 H         1 <0>         0.0828
     61 H23         4.6515   -1.8444   14.7265 H         1 <0>         0.0694
     62 H24         5.4888   -0.2785   14.5377 H         1 <0>         0.0691
     63 H25         2.7547   -0.6200   14.1504 H         1 <0>         0.0857
     64 H26         3.7148    0.6639   13.3449 H         1 <0>         0.0789
     65 H27         2.9305   -2.0977   12.2539 H         1 <0>         0.0772
     66 H28         2.8408   -0.5049   11.4296 H         1 <0>         0.0889
     67 H29         5.2330   -0.3568   11.1992 H         1 <0>         0.0686
     68 H30         4.9641   -2.1088   10.9479 H         1 <0>         0.0819
@<TRIPOS>BOND
     1    1    6 ar
     2    1    2 ar
     3    1   39 1
     4    2    3 ar
     5    2   40 1
     6    3    4 ar
     7    3   41 1
     8    4    5 ar
     9    4    7 1
    10    5    6 ar
    11    5   42 1
    12    6   43 1
    13    7    8 1
    14    7   44 1
    15    7   45 1
    16    8    9 am
    17    8   46 1
    18    9   10 2
    19    9   11 1
    20   11   12 1
    21   11   47 1
    22   11   48 1
    23   12   13 1
    24   13   21 1
    25   13   14 2
    26   14   15 1
    27   15   20 ar
    28   15   16 ar
    29   16   17 ar
    30   16   49 1
    31   17   18 ar
    32   17   50 1
    33   18   19 ar
    34   18   22 1
    35   19   20 ar
    36   19   51 1
    37   20   21 1
    38   22   23 1
    39   22   52 1
    40   23   28 ar
    41   23   24 ar
    42   24   25 ar
    43   25   26 ar
    44   25   34 1
    45   26   27 ar
    46   27   28 ar
    47   27   29 1
    48   29   33 1
    49   29   30 1
    50   30   31 1
    51   30   53 1
    52   30   54 1
    53   31   32 1
    54   31   55 1
    55   31   56 1
    56   32   33 1
    57   32   57 1
    58   32   58 1
    59   33   59 1
    60   33   60 1
    61   34   38 1
    62   34   35 1
    63   35   36 1
    64   35   61 1
    65   35   62 1
    66   36   37 1
    67   36   63 1
    68   36   64 1
    69   37   38 1
    70   37   65 1
    71   37   66 1
    72   38   67 1
    73   38   68 1
@<TRIPOS>MOLECULE
ZINC00680536
   60    64     0     0     0
SMALL
USER_CHARGES
ethyl 2-[6-[(4,6-dipyrrolidin-1-yl-1,3,5-triazin-2-yl)amino]benzothiazol-2-yl]sulfanylacetate
@<TRIPOS>ATOM
      1 C1          1.7740  -11.3550  -12.4904 C.3       1 <0>        -0.1545
      2 C2          0.6443  -10.3320  -12.3551 C.3       1 <0>         0.0623
      3 O1          0.8979   -9.4798  -11.2072 O.3       1 <0>        -0.3486
      4 C3         -0.0061   -8.5222  -10.9477 C.2       1 <0>         0.4837
      5 O2         -0.9772   -8.4001  -11.6561 O.2       1 <0>        -0.4912
      6 C4          0.1901   -7.5993   -9.7726 C.3       1 <0>        -0.1348
      7 S1         -1.1868   -6.4274   -9.6893 S.3       1 <0>         0.1249
      8 C5         -0.7132   -5.4994   -8.2683 C.2       1 <0>         0.0922
      9 N1          0.3469   -5.6435   -7.5060 N.2       1 <0>        -0.4973
     10 C6          0.5847   -4.8509   -6.4362 C.ar      1 <0>         0.0670
     11 C7          1.6786   -4.8999   -5.5417 C.ar      1 <0>        -0.0359
     12 C8          1.7726   -4.0172   -4.4983 C.ar      1 <0>        -0.1297
     13 C9          0.8002   -3.0438   -4.2809 C.ar      1 <0>         0.1861
     14 C10        -0.2898   -2.9725   -5.1387 C.ar      1 <0>        -0.0612
     15 C11        -0.3836   -3.8521   -6.1876 C.ar      1 <0>        -0.1227
     16 S2         -1.5533   -4.1232   -7.4974 S.3       1 <0>         0.0593
     17 N2          0.9173   -2.1517   -3.2074 N.pl3     1 <0>        -0.6210
     18 C12         0.4414   -0.8607   -3.3272 C.ar      1 <0>         0.6306
     19 N3         -0.0276   -0.4308   -4.4946 N.ar      1 <0>        -0.6355
     20 C13        -0.4861    0.8116   -4.6097 C.ar      1 <0>         0.5772
     21 N4         -0.4807    1.6225   -3.5562 N.ar      1 <0>        -0.5971
     22 C14        -0.0068    1.1943   -2.3903 C.ar      1 <0>         0.5807
     23 N5          0.4517   -0.0481   -2.2750 N.ar      1 <0>        -0.6416
     24 N6          0.0040    2.0380   -1.2980 N.pl3     1 <0>        -0.4371
     25 C15         0.5668    1.3561   -0.1042 C.3       1 <0>         0.0459
     26 C16         0.0364    2.1680    1.0970 C.3       1 <0>        -0.1280
     27 C17        -1.2457    2.8568    0.5765 C.3       1 <0>        -0.1256
     28 C18        -1.3782    2.4019   -0.8928 C.3       1 <0>         0.0551
     29 N7         -0.9729    1.2580   -5.8215 N.pl3     1 <0>        -0.4374
     30 C19        -0.3092    2.5229   -6.2285 C.3       1 <0>         0.0583
     31 C20        -0.5589    2.5785   -7.7566 C.3       1 <0>        -0.1255
     32 C21        -0.4288    1.0981   -8.1824 C.3       1 <0>        -0.1339
     33 C22        -0.6845    0.2865   -6.8988 C.3       1 <0>         0.0439
     34 H1          2.7216  -10.8339  -12.6270 H         1 <0>         0.0685
     35 H2          1.8216  -11.9651  -11.5883 H         1 <0>         0.0685
     36 H3          1.5836  -11.9948  -13.3521 H         1 <0>         0.0839
     37 H4         -0.3033  -10.8531  -12.2185 H         1 <0>         0.0748
     38 H5          0.5967   -9.7220  -13.2571 H         1 <0>         0.0748
     39 H6          1.1256   -7.0528   -9.8920 H         1 <0>         0.1408
     40 H7          0.2257   -8.1840   -8.8533 H         1 <0>         0.1407
     41 H8          2.4497   -5.6429   -5.6826 H         1 <0>         0.1403
     42 H9          2.6190   -4.0770   -3.8301 H         1 <0>         0.1400
     43 H10        -1.0561   -2.2274   -4.9836 H         1 <0>         0.1464
     44 H11         1.3327   -2.4406   -2.3798 H         1 <0>         0.4307
     45 H12         0.2134    0.3262   -0.0527 H         1 <0>         0.0759
     46 H13         1.6562    1.3825   -0.1296 H         1 <0>         0.0897
     47 H14        -0.1995    1.5037    1.9284 H         1 <0>         0.0779
     48 H15         0.7700    2.9136    1.4035 H         1 <0>         0.0778
     49 H16        -1.1409    3.9404    0.6294 H         1 <0>         0.0806
     50 H17        -2.1113    2.5308    1.1533 H         1 <0>         0.0784
     51 H18        -1.7532    3.2176   -1.5109 H         1 <0>         0.1000
     52 H19        -2.0364    1.5362   -0.9667 H         1 <0>         0.0537
     53 H20        -0.7705    3.3765   -5.7320 H         1 <0>         0.1025
     54 H21         0.7589    2.4830   -6.0145 H         1 <0>         0.0566
     55 H22         0.1976    3.1894   -8.2491 H         1 <0>         0.0828
     56 H23        -1.5593    2.9549   -7.9705 H         1 <0>         0.0828
     57 H24         0.5738    0.9002   -8.5616 H         1 <0>         0.0732
     58 H25        -1.1750    0.8549   -8.9387 H         1 <0>         0.0812
     59 H26         0.2008   -0.2967   -6.6457 H         1 <0>         0.0808
     60 H27        -1.5382   -0.3766   -7.0392 H         1 <0>         0.0881
@<TRIPOS>BOND
     1    1    2 1
     2    1   34 1
     3    1   35 1
     4    1   36 1
     5    2    3 1
     6    2   37 1
     7    2   38 1
     8    3    4 1
     9    4    5 2
    10    4    6 1
    11    6    7 1
    12    6   39 1
    13    6   40 1
    14    7    8 1
    15    8   16 1
    16    8    9 2
    17    9   10 1
    18   10   15 ar
    19   10   11 ar
    20   11   12 ar
    21   11   41 1
    22   12   13 ar
    23   12   42 1
    24   13   14 ar
    25   13   17 1
    26   14   15 ar
    27   14   43 1
    28   15   16 1
    29   17   18 1
    30   17   44 1
    31   18   23 ar
    32   18   19 ar
    33   19   20 ar
    34   20   21 ar
    35   20   29 1
    36   21   22 ar
    37   22   23 ar
    38   22   24 1
    39   24   28 1
    40   24   25 1
    41   25   26 1
    42   25   45 1
    43   25   46 1
    44   26   27 1
    45   26   47 1
    46   26   48 1
    47   27   28 1
    48   27   49 1
    49   27   50 1
    50   28   51 1
    51   28   52 1
    52   29   33 1
    53   29   30 1
    54   30   31 1
    55   30   53 1
    56   30   54 1
    57   31   32 1
    58   31   55 1
    59   31   56 1
    60   32   33 1
    61   32   57 1
    62   32   58 1
    63   33   59 1
    64   33   60 1
@<TRIPOS>MOLECULE
ZINC08445171
   65    70     0     0     0
SMALL
USER_CHARGES
2-[6-[(4,6-dipyrrolidin-1-yl-1,3,5-triazin-2-yl)amino]benzothiazol-2-yl]sulfanyl-N-phenyl-acetamide
@<TRIPOS>ATOM
      1 C1         -4.3342   -7.4702   -2.0624 C.ar      1 <0>        -0.1304
      2 C2         -3.3518   -7.1491   -2.9810 C.ar      1 <0>        -0.1018
      3 C3         -2.1944   -6.5205   -2.5651 C.ar      1 <0>        -0.1190
      4 C4         -2.0179   -6.2110   -1.2229 C.ar      1 <0>         0.1375
      5 C5         -3.0040   -6.5400   -0.3020 C.ar      1 <0>        -0.1414
      6 C6         -4.1614   -7.1638   -0.7251 C.ar      1 <0>        -0.1021
      7 N1         -0.8466   -5.5742   -0.7983 N.am      1 <0>        -0.6654
      8 C7         -0.2533   -4.6578   -1.5888 C.2       1 <0>         0.5342
      9 O1         -0.6775   -4.4558   -2.7069 O.2       1 <0>        -0.5026
     10 C8          0.9371   -3.8842   -1.0832 C.3       1 <0>        -0.1598
     11 S1          1.5028   -2.7405   -2.3670 S.3       1 <0>         0.1297
     12 C9          2.8605   -1.9900   -1.5315 C.2       1 <0>         0.0934
     13 N2          3.3099   -2.2191   -0.3185 N.2       1 <0>        -0.4995
     14 C10         4.3732   -1.5619    0.1977 C.ar      1 <0>         0.0703
     15 C11         4.9531   -1.7133    1.4784 C.ar      1 <0>        -0.0394
     16 C12         6.0382   -0.9646    1.8508 C.ar      1 <0>        -0.1013
     17 C13         6.6076   -0.0318    0.9872 C.ar      1 <0>         0.1930
     18 C14         6.0616    0.1409   -0.2781 C.ar      1 <0>        -0.0931
     19 C15         4.9747   -0.6077   -0.6536 C.ar      1 <0>        -0.1235
     20 S2          3.9812   -0.7292   -2.1216 S.3       1 <0>         0.0547
     21 N3          7.7174    0.7223    1.3896 N.pl3     1 <0>        -0.6228
     22 C16         8.6664    0.1636    2.2231 C.ar      1 <0>         0.6332
     23 N4          9.6674    0.9076    2.6836 N.ar      1 <0>        -0.6445
     24 C17        10.5777    0.3712    3.4903 C.ar      1 <0>         0.5839
     25 N5         10.4933   -0.9120    3.8277 N.ar      1 <0>        -0.6009
     26 C18         9.4955   -1.6573    3.3627 C.ar      1 <0>         0.5762
     27 N6          8.5821   -1.1196    2.5605 N.ar      1 <0>        -0.6320
     28 N7          9.4077   -2.9893    3.7134 N.pl3     1 <0>        -0.4356
     29 C19         9.6899   -3.1788    5.1593 C.3       1 <0>         0.0582
     30 C20         9.0498   -4.5556    5.4680 C.3       1 <0>        -0.1272
     31 C21         7.7676   -4.5420    4.6045 C.3       1 <0>        -0.1353
     32 C22         8.0381   -3.5047    3.4990 C.3       1 <0>         0.0492
     33 N8         11.6136    1.1449    3.9730 N.pl3     1 <0>        -0.4426
     34 C23        12.9161    0.6976    3.4165 C.3       1 <0>         0.0569
     35 C24        13.8296    1.9332    3.6153 C.3       1 <0>        -0.1244
     36 C25        12.8765    3.1169    3.3317 C.3       1 <0>        -0.1324
     37 C26        11.4602    2.5557    3.5562 C.3       1 <0>         0.0357
     38 H1         -5.2384   -7.9618   -2.3901 H         1 <0>         0.1248
     39 H2         -3.4897   -7.3897   -4.0247 H         1 <0>         0.1274
     40 H3         -1.4273   -6.2703   -3.2830 H         1 <0>         0.1395
     41 H4         -2.8678   -6.3046    0.7432 H         1 <0>         0.1263
     42 H5         -4.9304   -7.4163   -0.0100 H         1 <0>         0.1277
     43 H6         -0.4615   -5.7922    0.0649 H         1 <0>         0.4151
     44 H7          1.7410   -4.5766   -0.8336 H         1 <0>         0.1323
     45 H8          0.6535   -3.3210   -0.1942 H         1 <0>         0.1325
     46 H9          4.5350   -2.4280    2.1719 H         1 <0>         0.1371
     47 H10         6.4610   -1.1003    2.8353 H         1 <0>         0.1437
     48 H11         6.4892    0.8597   -0.9614 H         1 <0>         0.1389
     49 H12         7.8194    1.6368    1.0830 H         1 <0>         0.4298
     50 H13        10.7643   -3.2046    5.3414 H         1 <0>         0.1022
     51 H14         9.2173   -2.3938    5.7496 H         1 <0>         0.0598
     52 H15         8.8014   -4.6369    6.5262 H         1 <0>         0.0833
     53 H16         9.7119   -5.3659    5.1627 H         1 <0>         0.0820
     54 H17         6.9099   -4.2396    5.2054 H         1 <0>         0.0744
     55 H18         7.5959   -5.5254    4.1667 H         1 <0>         0.0809
     56 H19         7.3188   -2.6889    3.5713 H         1 <0>         0.0733
     57 H20         7.9678   -3.9756    2.5185 H         1 <0>         0.0921
     58 H21        13.2991   -0.1575    3.9734 H         1 <0>         0.1003
     59 H22        12.8198    0.4568    2.3579 H         1 <0>         0.0547
     60 H23        14.6538    1.9222    2.9022 H         1 <0>         0.0823
     61 H24        14.2037    1.9757    4.6382 H         1 <0>         0.0826
     62 H25        12.9903    3.4560    2.3021 H         1 <0>         0.0734
     63 H26        13.0733    3.9354    4.0242 H         1 <0>         0.0794
     64 H27        10.8884    2.6091    2.6298 H         1 <0>         0.0885
     65 H28        10.9533    3.1209    4.3383 H         1 <0>         0.0868
@<TRIPOS>BOND
     1    1    6 ar
     2    1    2 ar
     3    1   38 1
     4    2    3 ar
     5    2   39 1
     6    3    4 ar
     7    3   40 1
     8    4    5 ar
     9    4    7 1
    10    5    6 ar
    11    5   41 1
    12    6   42 1
    13    7    8 am
    14    7   43 1
    15    8    9 2
    16    8   10 1
    17   10   11 1
    18   10   44 1
    19   10   45 1
    20   11   12 1
    21   12   20 1
    22   12   13 2
    23   13   14 1
    24   14   19 ar
    25   14   15 ar
    26   15   16 ar
    27   15   46 1
    28   16   17 ar
    29   16   47 1
    30   17   18 ar
    31   17   21 1
    32   18   19 ar
    33   18   48 1
    34   19   20 1
    35   21   22 1
    36   21   49 1
    37   22   27 ar
    38   22   23 ar
    39   23   24 ar
    40   24   25 ar
    41   24   33 1
    42   25   26 ar
    43   26   27 ar
    44   26   28 1
    45   28   32 1
    46   28   29 1
    47   29   30 1
    48   29   50 1
    49   29   51 1
    50   30   31 1
    51   30   52 1
    52   30   53 1
    53   31   32 1
    54   31   54 1
    55   31   55 1
    56   32   56 1
    57   32   57 1
    58   33   37 1
    59   33   34 1
    60   34   35 1
    61   34   58 1
    62   34   59 1
    63   35   36 1
    64   35   60 1
    65   35   61 1
    66   36   37 1
    67   36   62 1
    68   36   63 1
    69   37   64 1
    70   37   65 1
@<TRIPOS>MOLECULE
ZINC08438023
   72    77     0     0     0
SMALL
USER_CHARGES
2-[6-[(4,6-dipyrrolidin-1-yl-1,3,5-triazin-2-yl)amino]benzothiazol-2-yl]sulfanyl-N-(2-phenoxyethyl)acetamide
@<TRIPOS>ATOM
      1 C1          7.0994   -3.9677  -17.6833 C.ar      1 <0>        -0.1565
      2 C2          7.7582   -3.2932  -16.6720 C.ar      1 <0>        -0.0801
      3 C3          7.9666   -3.9074  -15.4522 C.ar      1 <0>        -0.1508
      4 C4          7.5143   -5.2020  -15.2425 C.ar      1 <0>         0.1263
      5 C5          6.8586   -5.8787  -16.2607 C.ar      1 <0>        -0.2093
      6 C6          6.6481   -5.2582  -17.4769 C.ar      1 <0>        -0.0802
      7 O1          7.7180   -5.8083  -14.0434 O.3       1 <0>        -0.3138
      8 C7          7.2252   -7.1418  -13.8987 C.3       1 <0>         0.0453
      9 C8          7.5456   -7.6541  -12.4930 C.3       1 <0>         0.1234
     10 N1          6.8113   -6.8602  -11.5048 N.am      1 <0>        -0.7195
     11 C9          6.9395   -7.1332  -10.1912 C.2       1 <0>         0.5346
     12 O2          7.6628   -8.0361   -9.8273 O.2       1 <0>        -0.5220
     13 C10         6.1841   -6.3164   -9.1746 C.3       1 <0>        -0.1595
     14 S1          6.5631   -6.9225   -7.5117 S.3       1 <0>         0.1270
     15 C11         5.5762   -5.8221   -6.5527 C.2       1 <0>         0.0947
     16 N2          4.7965   -4.8467   -6.9607 N.2       1 <0>        -0.5011
     17 C12         4.0908   -4.0748   -6.1032 C.ar      1 <0>         0.0688
     18 C13         3.2221   -3.0021   -6.4099 C.ar      1 <0>        -0.0382
     19 C14         2.5767   -2.3150   -5.4158 C.ar      1 <0>        -0.1294
     20 C15         2.7505   -2.6456   -4.0739 C.ar      1 <0>         0.1837
     21 C16         3.6013   -3.6910   -3.7390 C.ar      1 <0>        -0.0600
     22 C17         4.2448   -4.3841   -4.7330 C.ar      1 <0>        -0.1240
     23 S2          5.3819   -5.7487   -4.7777 S.3       1 <0>         0.0537
     24 N3          2.0800   -1.9289   -3.0744 N.pl3     1 <0>        -0.6209
     25 C18         1.6782   -2.5680   -1.9179 C.ar      1 <0>         0.6307
     26 N4          1.8286   -3.8836   -1.7988 N.ar      1 <0>        -0.6354
     27 C19         1.4422   -4.4986   -0.6855 C.ar      1 <0>         0.5771
     28 N5          0.9104   -3.7975    0.3110 N.ar      1 <0>        -0.5972
     29 C20         0.7551   -2.4827    0.1898 C.ar      1 <0>         0.5806
     30 N6          1.1414   -1.8676   -0.9234 N.ar      1 <0>        -0.6419
     31 N7          0.1978   -1.7557    1.2221 N.pl3     1 <0>        -0.4372
     32 C21         0.1250   -0.3123    0.8781 C.3       1 <0>         0.0459
     33 C22         0.0131    0.4094    2.2381 C.3       1 <0>        -0.1280
     34 C23         0.6302   -0.5714    3.2609 C.3       1 <0>        -0.1256
     35 C24         1.0607   -1.7997    2.4307 C.3       1 <0>         0.0551
     36 N8          1.5983   -5.8643   -0.5619 N.pl3     1 <0>        -0.4374
     37 C25         0.3170   -6.5146   -0.1855 C.3       1 <0>         0.0583
     38 C26         0.5326   -7.9910   -0.6032 C.3       1 <0>        -0.1255
     39 C27         1.3423   -7.8646   -1.9141 C.3       1 <0>        -0.1338
     40 C28         1.9951   -6.4713   -1.8509 C.3       1 <0>         0.0440
     41 H1          6.9375   -3.4859  -18.6362 H         1 <0>         0.1248
     42 H2          8.1098   -2.2853  -16.8356 H         1 <0>         0.1302
     43 H3          8.4815   -3.3802  -14.6627 H         1 <0>         0.1306
     44 H4          6.5096   -6.8882  -16.1014 H         1 <0>         0.1274
     45 H5          6.1344   -5.7833  -18.2687 H         1 <0>         0.1256
     46 H6          7.7005   -7.7870  -14.6376 H         1 <0>         0.0840
     47 H7          6.1459   -7.1488  -14.0507 H         1 <0>         0.0725
     48 H8          8.6161   -7.5640  -12.3087 H         1 <0>         0.0852
     49 H9          7.2496   -8.7000  -12.4113 H         1 <0>         0.0956
     50 H10         6.2327   -6.1380  -11.7958 H         1 <0>         0.4080
     51 H11         5.1136   -6.4066   -9.3590 H         1 <0>         0.1288
     52 H12         6.4801   -5.2706   -9.2563 H         1 <0>         0.1294
     53 H13         3.0656   -2.7206   -7.4408 H         1 <0>         0.1391
     54 H14         1.9187   -1.4998   -5.6783 H         1 <0>         0.1393
     55 H15         3.7522   -3.9590   -2.7037 H         1 <0>         0.1459
     56 H16         1.8979   -0.9837   -3.1945 H         1 <0>         0.4304
     57 H17         1.0291   -0.0001    0.3553 H         1 <0>         0.0759
     58 H18        -0.7551   -0.1110    0.2673 H         1 <0>         0.0897
     59 H19         0.5758    1.3428    2.2189 H         1 <0>         0.0779
     60 H20        -1.0323    0.6016    2.4798 H         1 <0>         0.0777
     61 H21        -0.1126   -0.8589    4.0050 H         1 <0>         0.0806
     62 H22         1.4961   -0.1190    3.7444 H         1 <0>         0.0784
     63 H23         0.8840   -2.7180    2.9907 H         1 <0>         0.0999
     64 H24         2.1113   -1.7223    2.1507 H         1 <0>         0.0537
     65 H25         0.1485   -6.4395    0.8888 H         1 <0>         0.1024
     66 H26        -0.5139   -6.0759   -0.7379 H         1 <0>         0.0565
     67 H27        -0.4224   -8.4836   -0.7857 H         1 <0>         0.0827
     68 H28         1.1055   -8.5263    0.1539 H         1 <0>         0.0828
     69 H29         0.6791   -7.9329   -2.7764 H         1 <0>         0.0731
     70 H30         2.1077   -8.6392   -1.9622 H         1 <0>         0.0812
     71 H31         1.6378   -5.8560   -2.6766 H         1 <0>         0.0807
     72 H32         3.0801   -6.5638   -1.8994 H         1 <0>         0.0882
@<TRIPOS>BOND
     1    1    6 ar
     2    1    2 ar
     3    1   41 1
     4    2    3 ar
     5    2   42 1
     6    3    4 ar
     7    3   43 1
     8    4    5 ar
     9    4    7 1
    10    5    6 ar
    11    5   44 1
    12    6   45 1
    13    7    8 1
    14    8    9 1
    15    8   46 1
    16    8   47 1
    17    9   10 1
    18    9   48 1
    19    9   49 1
    20   10   11 am
    21   10   50 1
    22   11   12 2
    23   11   13 1
    24   13   14 1
    25   13   51 1
    26   13   52 1
    27   14   15 1
    28   15   23 1
    29   15   16 2
    30   16   17 1
    31   17   22 ar
    32   17   18 ar
    33   18   19 ar
    34   18   53 1
    35   19   20 ar
    36   19   54 1
    37   20   21 ar
    38   20   24 1
    39   21   22 ar
    40   21   55 1
    41   22   23 1
    42   24   25 1
    43   24   56 1
    44   25   30 ar
    45   25   26 ar
    46   26   27 ar
    47   27   28 ar
    48   27   36 1
    49   28   29 ar
    50   29   30 ar
    51   29   31 1
    52   31   35 1
    53   31   32 1
    54   32   33 1
    55   32   57 1
    56   32   58 1
    57   33   34 1
    58   33   59 1
    59   33   60 1
    60   34   35 1
    61   34   61 1
    62   34   62 1
    63   35   63 1
    64   35   64 1
    65   36   40 1
    66   36   37 1
    67   37   38 1
    68   37   65 1
    69   37   66 1
    70   38   39 1
    71   38   67 1
    72   38   68 1
    73   39   40 1
    74   39   69 1
    75   39   70 1
    76   40   71 1
    77   40   72 1
@<TRIPOS>MOLECULE
ZINC08706731
   65    70     0     0     0
SMALL
USER_CHARGES
2-[[6-[(4,6-dipyrrolidin-1-yl-1,3,5-triazin-2-yl)amino]-1,3-benzothiazol-2-yl]sulfanyl]-N-(2-furylmethyl)acetamide
@<TRIPOS>ATOM
      1 C1         -4.9991    7.5713   -6.1778 C.2       1 <0>        -0.2185
      2 C2         -4.1682    7.5120   -5.0354 C.2       1 <0>        -0.1778
      3 C3         -2.9322    7.2045   -5.4681 C.2       1 <0>        -0.0462
      4 O1         -2.9691    7.0808   -6.8049 O.3       1 <0>        -0.1711
      5 C4         -4.2212    7.2964   -7.2402 C.2       1 <0>        -0.0237
      6 C5         -1.7118    7.0340   -4.6005 C.3       1 <0>         0.2047
      7 N1         -1.6024    5.6346   -4.1812 N.am      1 <0>        -0.7209
      8 C6         -0.5803    5.2451   -3.3937 C.2       1 <0>         0.5364
      9 O2          0.2488    6.0530   -3.0323 O.2       1 <0>        -0.5194
     10 C7         -0.4677    3.8055   -2.9623 C.3       1 <0>        -0.1594
     11 S1          0.9980    3.6008   -1.9203 S.3       1 <0>         0.1280
     12 C8          0.8865    1.8775   -1.5705 C.2       1 <0>         0.0943
     13 N2         -0.0183    1.0127   -1.9696 N.2       1 <0>        -0.4998
     14 C9          0.0224   -0.2933   -1.6208 C.ar      1 <0>         0.0699
     15 C10        -0.8816   -1.3195   -1.9802 C.ar      1 <0>        -0.0395
     16 C11        -0.6971   -2.6037   -1.5400 C.ar      1 <0>        -0.1026
     17 C12         0.3813   -2.9446   -0.7269 C.ar      1 <0>         0.1916
     18 C13         1.2874   -1.9596   -0.3559 C.ar      1 <0>        -0.0948
     19 C14         1.1049   -0.6727   -0.7954 C.ar      1 <0>        -0.1236
     20 S2          1.9762    0.8613   -0.5836 S.3       1 <0>         0.0520
     21 N3          0.5500   -4.2645   -0.2893 N.pl3     1 <0>        -0.6218
     22 C15        -0.5541   -5.0579   -0.0464 C.ar      1 <0>         0.6335
     23 N4         -0.3956   -6.3420    0.2598 N.ar      1 <0>        -0.6413
     24 C16        -1.4580   -7.1041    0.4993 C.ar      1 <0>         0.5811
     25 N5         -2.6795   -6.5852    0.4216 N.ar      1 <0>        -0.6020
     26 C17        -2.8383   -5.3027    0.1096 C.ar      1 <0>         0.5786
     27 N6         -1.7757   -4.5390   -0.1242 N.ar      1 <0>        -0.6369
     28 N7         -4.1064   -4.7641    0.0289 N.pl3     1 <0>        -0.4388
     29 C18        -4.8471   -4.9531    1.3024 C.3       1 <0>         0.0581
     30 C19        -5.9623   -3.8802    1.2266 C.3       1 <0>        -0.1254
     31 C20        -5.2480   -2.6862    0.5527 C.3       1 <0>        -0.1337
     32 C21        -4.0485   -3.3026   -0.1908 C.3       1 <0>         0.0407
     33 N8         -1.2932   -8.4355    0.8236 N.pl3     1 <0>        -0.4385
     34 C22        -2.0934   -9.3054   -0.0758 C.3       1 <0>         0.0581
     35 C23        -1.4067  -10.6872    0.0643 C.3       1 <0>        -0.1262
     36 C24         0.0912  -10.3198    0.1694 C.3       1 <0>        -0.1343
     37 C25         0.1137   -8.8547    0.6433 C.3       1 <0>         0.0434
     38 H1         -6.0557    7.7941   -6.1943 H         1 <0>         0.1525
     39 H2         -4.4684    7.6806   -4.0118 H         1 <0>         0.1521
     40 H3         -4.5471    7.2605   -8.2692 H         1 <0>         0.2068
     41 H4         -1.7997    7.6712   -3.7206 H         1 <0>         0.1043
     42 H5         -0.8226    7.3147   -5.1651 H         1 <0>         0.0903
     43 H6         -2.2655    4.9884   -4.4702 H         1 <0>         0.4083
     44 H7         -0.3799    3.1683   -3.8423 H         1 <0>         0.1301
     45 H8         -1.3569    3.5248   -2.3978 H         1 <0>         0.1303
     46 H9         -1.7283   -1.0880   -2.6093 H         1 <0>         0.1371
     47 H10        -1.4031   -3.3680   -1.8294 H         1 <0>         0.1476
     48 H11         2.1295   -2.2048    0.2743 H         1 <0>         0.1386
     49 H12         1.4422   -4.6213   -0.1567 H         1 <0>         0.4298
     50 H13        -5.2780   -5.9531    1.3520 H         1 <0>         0.1017
     51 H14        -4.1955   -4.7710    2.1571 H         1 <0>         0.0559
     52 H15        -6.3063   -3.6103    2.2250 H         1 <0>         0.0823
     53 H16        -6.7925   -4.2295    0.6127 H         1 <0>         0.0825
     54 H17        -4.9029   -1.9778    1.3058 H         1 <0>         0.0730
     55 H18        -5.9176   -2.1938   -0.1524 H         1 <0>         0.0797
     56 H19        -3.1174   -2.9033    0.2113 H         1 <0>         0.0849
     57 H20        -4.1164   -3.0843   -1.2565 H         1 <0>         0.0883
     58 H21        -3.1296   -9.3551    0.2589 H         1 <0>         0.1021
     59 H22        -2.0370   -8.9504   -1.1048 H         1 <0>         0.0569
     60 H23        -1.5923  -11.3013   -0.8169 H         1 <0>         0.0828
     61 H24        -1.7435  -11.1955    0.9678 H         1 <0>         0.0824
     62 H25         0.5721  -10.4098   -0.8046 H         1 <0>         0.0738
     63 H26         0.5878  -10.9607    0.8980 H         1 <0>         0.0803
     64 H27         0.5942   -8.2286   -0.1085 H         1 <0>         0.0816
     65 H28         0.6489   -8.7755    1.5895 H         1 <0>         0.0897
@<TRIPOS>BOND
     1    1    5 2
     2    1    2 1
     3    1   38 1
     4    2    3 2
     5    2   39 1
     6    3    4 1
     7    3    6 1
     8    4    5 1
     9    5   40 1
    10    6    7 1
    11    6   41 1
    12    6   42 1
    13    7    8 am
    14    7   43 1
    15    8    9 2
    16    8   10 1
    17   10   11 1
    18   10   44 1
    19   10   45 1
    20   11   12 1
    21   12   20 1
    22   12   13 2
    23   13   14 1
    24   14   19 ar
    25   14   15 ar
    26   15   16 ar
    27   15   46 1
    28   16   17 ar
    29   16   47 1
    30   17   18 ar
    31   17   21 1
    32   18   19 ar
    33   18   48 1
    34   19   20 1
    35   21   22 1
    36   21   49 1
    37   22   27 ar
    38   22   23 ar
    39   23   24 ar
    40   24   25 ar
    41   24   33 1
    42   25   26 ar
    43   26   27 ar
    44   26   28 1
    45   28   32 1
    46   28   29 1
    47   29   30 1
    48   29   50 1
    49   29   51 1
    50   30   31 1
    51   30   52 1
    52   30   53 1
    53   31   32 1
    54   31   54 1
    55   31   55 1
    56   32   56 1
    57   32   57 1
    58   33   37 1
    59   33   34 1
    60   34   35 1
    61   34   58 1
    62   34   59 1
    63   35   36 1
    64   35   60 1
    65   35   61 1
    66   36   37 1
    67   36   62 1
    68   36   63 1
    69   37   64 1
    70   37   65 1
@<TRIPOS>MOLECULE
ZINC08438025
   71    76     0     0     0
SMALL
USER_CHARGES
N-(2,3-dimethylphenyl)-2-[6-[(4,6-dipyrrolidin-1-yl-1,3,5-triazin-2-yl)amino]benzothiazol-2-yl]sulfanyl-acetamide
@<TRIPOS>ATOM
      1 C1          2.9357   -9.2079  -16.4976 C.3       1 <0>        -0.1168
      2 C2          3.9000   -8.9647  -15.3653 C.ar      1 <0>        -0.0697
      3 C3          5.1391   -9.5789  -15.3693 C.ar      1 <0>        -0.1281
      4 C4          6.0268   -9.3580  -14.3326 C.ar      1 <0>        -0.1027
      5 C5          5.6786   -8.5222  -13.2895 C.ar      1 <0>        -0.1234
      6 C6          4.4353   -7.9039  -13.2825 C.ar      1 <0>         0.1418
      7 C7          3.5434   -8.1328  -14.3224 C.ar      1 <0>        -0.1100
      8 C8          2.1906   -7.4688  -14.3157 C.3       1 <0>        -0.1182
      9 N1          4.0795   -7.0566  -12.2274 N.am      1 <0>        -0.6619
     10 C9          4.5361   -7.3015  -10.9831 C.2       1 <0>         0.5335
     11 O1          5.3227   -8.2048  -10.7927 O.2       1 <0>        -0.5015
     12 C10         4.0693   -6.4528   -9.8286 C.3       1 <0>        -0.1603
     13 S1          4.8551   -7.0259   -8.3021 S.3       1 <0>         0.1306
     14 C11         4.1515   -5.8921   -7.1515 C.2       1 <0>         0.0932
     15 N2          3.2997   -4.9166   -7.3720 N.2       1 <0>        -0.5005
     16 C12         2.8401   -4.1169   -6.3829 C.ar      1 <0>         0.0685
     17 C13         1.9286   -3.0408   -6.4852 C.ar      1 <0>        -0.0375
     18 C14         1.5616   -2.3237   -5.3772 C.ar      1 <0>        -0.1291
     19 C15         2.0691   -2.6260   -4.1157 C.ar      1 <0>         0.1847
     20 C16         2.9707   -3.6739   -3.9822 C.ar      1 <0>        -0.0617
     21 C17         3.3358   -4.3972   -5.0895 C.ar      1 <0>        -0.1241
     22 S2          4.4157   -5.7763   -5.3878 S.3       1 <0>         0.0567
     23 N3          1.6794   -1.8788   -2.9968 N.pl3     1 <0>        -0.6212
     24 C18         1.5728   -2.4885   -1.7622 C.ar      1 <0>         0.6293
     25 N4          1.7397   -3.8031   -1.6534 N.ar      1 <0>        -0.6373
     26 C19         1.6375   -4.3899   -0.4650 C.ar      1 <0>         0.5786
     27 N5          1.3739   -3.6616    0.6155 N.ar      1 <0>        -0.5880
     28 C20         1.2016   -2.3479    0.5059 C.ar      1 <0>         0.5791
     29 N6          1.3038   -1.7610   -0.6824 N.ar      1 <0>        -0.6392
     30 N7          0.9224   -1.5927    1.6268 N.pl3     1 <0>        -0.4368
     31 C21         0.7757   -0.1562    1.2779 C.3       1 <0>         0.0457
     32 C22         1.0090    0.5953    2.6061 C.3       1 <0>        -0.1280
     33 C23         1.8543   -0.3711    3.4667 C.3       1 <0>        -0.1256
     34 C24         2.0576   -1.6216    2.5846 C.3       1 <0>         0.0548
     35 N8          1.8107   -5.7544   -0.3521 N.pl3     1 <0>        -0.4408
     36 C25         0.5430   -6.4211    0.0413 C.3       1 <0>         0.0571
     37 C26         0.7681   -7.8926   -0.3887 C.3       1 <0>        -0.1238
     38 C27         1.5548   -7.7496   -1.7118 C.3       1 <0>        -0.1316
     39 C28         2.1930   -6.3495   -1.6510 C.3       1 <0>         0.0342
     40 H1          2.3079  -10.0672  -16.2619 H         1 <0>         0.0721
     41 H2          2.3088   -8.3271  -16.6365 H         1 <0>         0.0690
     42 H3          3.4929   -9.4053  -17.4134 H         1 <0>         0.0686
     43 H4          5.4138  -10.2329  -16.1837 H         1 <0>         0.1240
     44 H5          6.9937   -9.8392  -14.3386 H         1 <0>         0.1269
     45 H6          6.3727   -8.3494  -12.4803 H         1 <0>         0.1424
     46 H7          2.2552   -6.5076  -14.8256 H         1 <0>         0.0721
     47 H8          1.4709   -8.1054  -14.8303 H         1 <0>         0.0752
     48 H9          1.8673   -7.3131  -13.2865 H         1 <0>         0.0628
     49 H10         3.5042   -6.2930  -12.3913 H         1 <0>         0.4141
     50 H11         2.9866   -6.5340   -9.7325 H         1 <0>         0.1320
     51 H12         4.3411   -5.4128  -10.0090 H         1 <0>         0.1320
     52 H13         1.5167   -2.7808   -7.4491 H         1 <0>         0.1394
     53 H14         0.8635   -1.5066   -5.4840 H         1 <0>         0.1397
     54 H15         3.3784   -3.9204   -3.0129 H         1 <0>         0.1457
     55 H16         1.4844   -0.9331   -3.0891 H         1 <0>         0.4306
     56 H17         1.5239    0.1342    0.5403 H         1 <0>         0.0759
     57 H18        -0.2270    0.0427    0.8997 H         1 <0>         0.0899
     58 H19         1.5553    1.5213    2.4263 H         1 <0>         0.0780
     59 H20         0.0575    0.8050    3.0946 H         1 <0>         0.0779
     60 H21         1.3173   -0.6339    4.3781 H         1 <0>         0.0808
     61 H22         2.8158    0.0811    3.7099 H         1 <0>         0.0786
     62 H23         2.0194   -2.5257    3.1922 H         1 <0>         0.1005
     63 H24         3.0065   -1.5627    2.0514 H         1 <0>         0.0539
     64 H25         0.3913   -6.3541    1.1186 H         1 <0>         0.1011
     65 H26        -0.3016   -5.9886   -0.4950 H         1 <0>         0.0544
     66 H27        -0.1843   -8.3948   -0.5585 H         1 <0>         0.0822
     67 H28         1.3592   -8.4258    0.3558 H         1 <0>         0.0831
     68 H29         0.8784   -7.8204   -2.5636 H         1 <0>         0.0727
     69 H30         2.3278   -8.5153   -1.7770 H         1 <0>         0.0806
     70 H31         1.8155   -5.7335   -2.4672 H         1 <0>         0.0885
     71 H32         3.2781   -6.4296   -1.7177 H         1 <0>         0.0856
@<TRIPOS>BOND
     1    1    2 1
     2    1   40 1
     3    1   41 1
     4    1   42 1
     5    2    7 ar
     6    2    3 ar
     7    3    4 ar
     8    3   43 1
     9    4    5 ar
    10    4   44 1
    11    5    6 ar
    12    5   45 1
    13    6    7 ar
    14    6    9 1
    15    7    8 1
    16    8   46 1
    17    8   47 1
    18    8   48 1
    19    9   10 am
    20    9   49 1
    21   10   11 2
    22   10   12 1
    23   12   13 1
    24   12   50 1
    25   12   51 1
    26   13   14 1
    27   14   22 1
    28   14   15 2
    29   15   16 1
    30   16   21 ar
    31   16   17 ar
    32   17   18 ar
    33   17   52 1
    34   18   19 ar
    35   18   53 1
    36   19   20 ar
    37   19   23 1
    38   20   21 ar
    39   20   54 1
    40   21   22 1
    41   23   24 1
    42   23   55 1
    43   24   29 ar
    44   24   25 ar
    45   25   26 ar
    46   26   27 ar
    47   26   35 1
    48   27   28 ar
    49   28   29 ar
    50   28   30 1
    51   30   34 1
    52   30   31 1
    53   31   32 1
    54   31   56 1
    55   31   57 1
    56   32   33 1
    57   32   58 1
    58   32   59 1
    59   33   34 1
    60   33   60 1
    61   33   61 1
    62   34   62 1
    63   34   63 1
    64   35   39 1
    65   35   36 1
    66   36   37 1
    67   36   64 1
    68   36   65 1
    69   37   38 1
    70   37   66 1
    71   37   67 1
    72   38   39 1
    73   38   68 1
    74   38   69 1
    75   39   70 1
    76   39   71 1
@<TRIPOS>MOLECULE
ZINC08681494
   50    53     0     0     0
SMALL
USER_CHARGES

@<TRIPOS>ATOM
      1 C1         -0.0167    1.3779    0.0096 C.ar      1 <0>        -0.0832
      2 C2          1.1696    2.0886    0.0021 C.ar      1 <0>        -0.1311
      3 C3          2.3802    1.4154   -0.0130 C.ar      1 <0>         0.0917
      4 C4          2.3990    0.0236   -0.0206 C.ar      1 <0>         0.0803
      5 C5          1.2071   -0.6822   -0.0130 C.ar      1 <0>        -0.1019
      6 C6          0.0021   -0.0041    0.0020 C.ar      1 <0>        -0.0826
      7 C7         -1.2936   -0.7736    0.0102 C.3       1 <0>         0.1441
      8 H1         -1.1201   -1.7884   -0.3479 H         1 <0>         0.0998
      9 C8         -1.8590   -0.8183    1.4356 C.3       1 <0>         0.0656
     10 H2         -2.1191    0.1894    1.7595 H         1 <0>         0.1043
     11 C9         -3.1120   -1.6975    1.4281 C.3       1 <0>        -0.0874
     12 C10        -4.0118   -1.2895    0.2891 C.ar      1 <0>        -0.1903
     13 C11        -5.3448   -1.6839    0.3168 C.ar      1 <0>         0.1635
     14 C12        -6.1992   -1.3308   -0.7146 C.ar      1 <0>        -0.1965
     15 C13        -5.7231   -0.5806   -1.7796 C.ar      1 <0>         0.1599
     16 C14        -4.3960   -0.1855   -1.8071 C.ar      1 <0>        -0.1784
     17 C15        -3.5373   -0.5380   -0.7709 C.ar      1 <0>         0.1588
     18 O1         -2.2452   -0.1223   -0.8323 O.3       1 <0>        -0.2898
     19 O2         -6.5574   -0.2342   -2.7948 O.3       1 <0>        -0.4911
     20 O3         -5.8113   -2.4194    1.3600 O.3       1 <0>        -0.4902
     21 O4         -0.8856   -1.3731    2.3226 O.3       1 <0>        -0.3279
     22 C16        -0.9111   -0.9489    3.6014 C.2       1 <0>         0.5148
     23 O5         -1.7371   -0.1303    3.9536 O.2       1 <0>        -0.4908
     24 C17         0.0636   -1.4782    4.5734 C.ar      1 <0>        -0.1031
     25 C18         1.0179   -2.4155    4.1683 C.ar      1 <0>        -0.0810
     26 C19         1.9301   -2.9098    5.0813 C.ar      1 <0>         0.0863
     27 C20         1.8987   -2.4752    6.4039 C.ar      1 <0>         0.0960
     28 C21         0.9488   -1.5418    6.8103 C.ar      1 <0>         0.0887
     29 C22         0.0384   -1.0391    5.9000 C.ar      1 <0>        -0.0732
     30 O6          0.9207   -1.1198    8.1029 O.3       1 <0>        -0.4774
     31 O7          2.7965   -2.9632    7.2996 O.3       1 <0>        -0.4719
     32 O8          2.8590   -3.8220    4.6878 O.3       1 <0>        -0.4773
     33 O9          3.5850   -0.6417   -0.0359 O.3       1 <0>        -0.4831
     34 O10         3.5476    2.1129   -0.0209 O.3       1 <0>        -0.4863
     35 H3         -0.9598    1.9038    0.0259 H         1 <0>         0.1345
     36 H4          1.1522    3.1684    0.0077 H         1 <0>         0.1380
     37 H5          1.2190   -1.7621   -0.0189 H         1 <0>         0.1388
     38 H6         -2.8221   -2.7410    1.3054 H         1 <0>         0.0963
     39 H7         -3.6445   -1.5781    2.3716 H         1 <0>         0.0930
     40 H8         -7.2339   -1.6393   -0.6898 H         1 <0>         0.1412
     41 H9         -4.0260    0.3985   -2.6368 H         1 <0>         0.1440
     42 H10        -7.0114    0.6089   -2.6604 H         1 <0>         0.3978
     43 H11        -6.1571   -1.8895    2.0913 H         1 <0>         0.3960
     44 H12         1.0423   -2.7535    3.1428 H         1 <0>         0.1535
     45 H13        -0.6951   -0.3115    6.2147 H         1 <0>         0.1537
     46 H14         1.4699   -0.3427    8.2750 H         1 <0>         0.3935
     47 H15         3.6138   -2.4496    7.3568 H         1 <0>         0.3924
     48 H16         3.6850   -3.4309    4.3717 H         1 <0>         0.3924
     49 H17         3.9367   -0.8389    0.8430 H         1 <0>         0.3864
     50 H18         3.8938    2.3101    0.8602 H         1 <0>         0.3891
@<TRIPOS>BOND
     1    1    6 ar
     2    1    2 ar
     3    1   35 1
     4    2    3 ar
     5    2   36 1
     6    3    4 ar
     7    3   34 1
     8    4    5 ar
     9    4   33 1
    10    5    6 ar
    11    5   37 1
    12    6    7 1
    13    7    8 1
    14    7   18 1
    15    7    9 1
    16    9   10 1
    17    9   11 1
    18    9   21 1
    19   11   12 1
    20   11   38 1
    21   11   39 1
    22   12   17 ar
    23   12   13 ar
    24   13   14 ar
    25   13   20 1
    26   14   15 ar
    27   14   40 1
    28   15   16 ar
    29   15   19 1
    30   16   17 ar
    31   16   41 1
    32   17   18 1
    33   19   42 1
    34   20   43 1
    35   21   22 1
    36   22   23 2
    37   22   24 1
    38   24   29 ar
    39   24   25 ar
    40   25   26 ar
    41   25   44 1
    42   26   27 ar
    43   26   32 1
    44   27   28 ar
    45   27   31 1
    46   28   29 ar
    47   28   30 1
    48   29   45 1
    49   30   46 1
    50   31   47 1
    51   32   48 1
    52   33   49 1
    53   34   50 1
@<TRIPOS>MOLECULE
ZINC03870339
   36    38     0     0     0
SMALL
USER_CHARGES

@<TRIPOS>ATOM
      1 C1         -0.0167    1.3824    0.0096 C.ar      1 <0>        -0.1252
      2 C2          1.1697    2.0917    0.0021 C.ar      1 <0>        -0.0667
      3 C3          2.3792    1.4226   -0.0135 C.ar      1 <0>        -0.0882
      4 C4          2.4066    0.0362   -0.0217 C.ar      1 <0>         0.0918
      5 C5          1.2160   -0.6806   -0.0137 C.ar      1 <0>         0.0636
      6 C6          0.0021   -0.0041    0.0020 C.ar      1 <0>         0.0948
      7 O1         -1.1658   -0.7009    0.0099 O.3       1 <0>        -0.4889
      8 O2          1.2387   -2.0413   -0.0217 O.3       1 <0>        -0.4807
      9 O3          3.5971   -0.6212   -0.0380 O.3       1 <0>        -0.4832
     10 C7          1.1446    3.5984    0.0105 C.3       1 <0>         0.1461
     11 H1          0.1709    3.9512   -0.3294 H         1 <0>         0.0995
     12 C8          1.4132    4.1118    1.4309 C.3       1 <0>         0.0766
     13 H2          0.6899    3.6778    2.1213 H         1 <0>         0.0810
     14 C9          1.2714    5.6359    1.4258 C.3       1 <0>        -0.1005
     15 C10         2.0504    6.2145    0.2717 C.ar      1 <0>        -0.1918
     16 C11         2.3697    7.5676    0.2931 C.ar      1 <0>         0.1574
     17 C12         3.0805    8.1340   -0.7521 C.ar      1 <0>        -0.2023
     18 C13         3.4754    7.3482   -1.8246 C.ar      1 <0>         0.1583
     19 C14         3.1596    5.9999   -1.8458 C.ar      1 <0>        -0.1847
     20 C15         2.4473    5.4295   -0.7959 C.ar      1 <0>         0.1750
     21 O4          2.1661    4.1013   -0.8516 O.3       1 <0>        -0.2919
     22 O5          4.1708    7.9004   -2.8533 O.3       1 <0>        -0.4926
     23 O6          1.9825    8.3377    1.3437 O.3       1 <0>        -0.4917
     24 O7          2.7369    3.7517    1.8310 O.3       1 <0>        -0.5477
     25 H3         -0.9596    1.9089    0.0260 H         1 <0>         0.1391
     26 H4          3.3040    1.9803   -0.0197 H         1 <0>         0.1454
     27 H5         -1.5123   -0.8977   -0.8712 H         1 <0>         0.3966
     28 H6          1.2542   -2.4396    0.8593 H         1 <0>         0.3908
     29 H7          3.9506   -0.8164    0.8407 H         1 <0>         0.3903
     30 H8          0.2194    5.9019    1.3230 H         1 <0>         0.0908
     31 H9          1.6571    6.0391    2.3621 H         1 <0>         0.0885
     32 H10         3.3265    9.1854   -0.7322 H         1 <0>         0.1381
     33 H11         3.4673    5.3887   -2.6814 H         1 <0>         0.1410
     34 H12         5.1305    7.8764   -2.7370 H         1 <0>         0.3968
     35 H13         2.6278    8.3752    2.0628 H         1 <0>         0.3931
     36 H14         2.9726    4.0463    2.7214 H         1 <0>         0.3814
@<TRIPOS>BOND
     1    1    6 ar
     2    1    2 ar
     3    1   25 1
     4    2    3 ar
     5    2   10 1
     6    3    4 ar
     7    3   26 1
     8    4    5 ar
     9    4    9 1
    10    5    6 ar
    11    5    8 1
    12    6    7 1
    13    7   27 1
    14    8   28 1
    15    9   29 1
    16   10   11 1
    17   10   21 1
    18   10   12 1
    19   12   13 1
    20   12   14 1
    21   12   24 1
    22   14   15 1
    23   14   30 1
    24   14   31 1
    25   15   20 ar
    26   15   16 ar
    27   16   17 ar
    28   16   23 1
    29   17   18 ar
    30   17   32 1
    31   18   19 ar
    32   18   22 1
    33   19   20 ar
    34   19   33 1
    35   20   21 1
    36   22   34 1
    37   23   35 1
    38   24   36 1
@<TRIPOS>MOLECULE
ZINC00290868
   28    30     0     0     0
SMALL
USER_CHARGES
2-phenylnaphthalene-1,4-dione
@<TRIPOS>ATOM
      1 C1         -5.0778    5.2836    0.0766 C.ar      1 <0>        -0.1069
      2 C2         -4.6993    4.5058    1.1573 C.ar      1 <0>        -0.1193
      3 C3         -3.4845    3.8534    1.1496 C.ar      1 <0>        -0.0963
      4 C4         -2.6349    3.9786    0.0471 C.ar      1 <0>        -0.0664
      5 C5         -3.0213    4.7699   -1.0381 C.ar      1 <0>        -0.0861
      6 C6         -4.2416    5.4119   -1.0190 C.ar      1 <0>        -0.1183
      7 C7         -1.3319    3.2828    0.0314 C.2       1 <0>        -0.0647
      8 C8         -1.2943    1.9281    0.0186 C.2       1 <0>        -0.1347
      9 C9         -0.0144    1.2117    0.0087 C.2       1 <0>         0.4174
     10 O1          0.0021   -0.0041    0.0020 O.2       1 <0>        -0.4204
     11 C10         1.2565    1.9692    0.0006 C.ar      1 <0>        -0.1256
     12 C11         2.4780    1.3066   -0.0136 C.ar      1 <0>        -0.0665
     13 C12         3.6571    2.0351   -0.0201 C.ar      1 <0>        -0.0971
     14 C13         3.6270    3.4166   -0.0133 C.ar      1 <0>        -0.0977
     15 C14         2.4171    4.0921    0.0009 C.ar      1 <0>        -0.0659
     16 C15         1.2258    3.3751    0.0079 C.ar      1 <0>        -0.1237
     17 C16        -0.0771    4.0729    0.0236 C.2       1 <0>         0.4225
     18 O2         -0.1198    5.2865    0.0304 O.2       1 <0>        -0.4096
     19 H1         -6.0303    5.7926    0.0882 H         1 <0>         0.1264
     20 H2         -5.3569    4.4099    2.0086 H         1 <0>         0.1285
     21 H3         -3.1904    3.2469    1.9934 H         1 <0>         0.1266
     22 H4         -2.3678    4.8747   -1.8915 H         1 <0>         0.1238
     23 H5         -4.5437    6.0198   -1.8590 H         1 <0>         0.1282
     24 H6         -2.2183    1.3689    0.0204 H         1 <0>         0.1571
     25 H7          2.5084    0.2270   -0.0193 H         1 <0>         0.1447
     26 H8          4.6060    1.5194   -0.0304 H         1 <0>         0.1398
     27 H9          4.5523    3.9734   -0.0188 H         1 <0>         0.1399
     28 H10         2.3996    5.1720    0.0068 H         1 <0>         0.1443
@<TRIPOS>BOND
     1    1    6 ar
     2    1    2 ar
     3    1   19 1
     4    2    3 ar
     5    2   20 1
     6    3    4 ar
     7    3   21 1
     8    4    5 ar
     9    4    7 1
    10    5    6 ar
    11    5   22 1
    12    6   23 1
    13    7   17 1
    14    7    8 2
    15    8    9 1
    16    8   24 1
    17    9   10 2
    18    9   11 1
    19   11   16 ar
    20   11   12 ar
    21   12   13 ar
    22   12   25 1
    23   13   14 ar
    24   13   26 1
    25   14   15 ar
    26   14   27 1
    27   15   16 ar
    28   15   28 1
    29   16   17 1
    30   17   18 2
@<TRIPOS>MOLECULE
ZINC36427993
   29    31     0     0     0
SMALL
USER_CHARGES

@<TRIPOS>ATOM
      1 C1         -0.0167    1.3817    0.0096 C.ar      1 <0>        -0.0970
      2 C2          1.1648    2.0985    0.0022 C.ar      1 <0>        -0.0976
      3 C3          2.3843    1.4409   -0.0134 C.ar      1 <0>        -0.0657
      4 C4          2.4192    0.0507   -0.0211 C.ar      1 <0>        -0.1238
      5 C5          1.2169   -0.6785   -0.0131 C.ar      1 <0>        -0.1257
      6 C6          0.0021   -0.0041    0.0020 C.ar      1 <0>        -0.0665
      7 C7          1.2602   -2.1576   -0.0209 C.2       1 <0>         0.4172
      8 O1          0.2251   -2.7963   -0.0140 O.2       1 <0>        -0.4204
      9 C8          2.5490   -2.8523   -0.0373 C.2       1 <0>        -0.1341
     10 C9          3.7142   -2.1568   -0.0452 C.2       1 <0>        -0.0634
     11 C10         3.7076   -0.6735   -0.0373 C.2       1 <0>         0.4222
     12 O2          4.7542   -0.0580   -0.0448 O.2       1 <0>        -0.4087
     13 C11         4.9986   -2.8821   -0.0613 C.ar      1 <0>        -0.0760
     14 C12         5.8692   -2.7917    1.0303 C.ar      1 <0>        -0.0682
     15 C13         7.0667   -3.4702    1.0108 C.ar      1 <0>        -0.1439
     16 C14         7.4117   -4.2447   -0.0916 C.ar      1 <0>         0.1197
     17 C15         6.5497   -4.3372   -1.1790 C.ar      1 <0>        -0.1449
     18 C16         5.3473   -3.6671   -1.1658 C.ar      1 <0>        -0.0781
     19 O3          8.5935   -4.9121   -0.1064 O.3       1 <0>        -0.4978
     20 H1         -0.9613    1.9051    0.0260 H         1 <0>         0.1398
     21 H2          1.1374    3.1781    0.0082 H         1 <0>         0.1399
     22 H3          3.3046    2.0060   -0.0199 H         1 <0>         0.1445
     23 H4         -0.9249   -0.5582    0.0082 H         1 <0>         0.1447
     24 H5          2.5726   -3.9321   -0.0429 H         1 <0>         0.1574
     25 H6          5.6023   -2.1902    1.8866 H         1 <0>         0.1294
     26 H7          7.7395   -3.4007    1.8528 H         1 <0>         0.1350
     27 H8          6.8220   -4.9392   -2.0333 H         1 <0>         0.1353
     28 H9          4.6762   -3.7436   -2.0085 H         1 <0>         0.1322
     29 H10         8.5450   -5.8060    0.2591 H         1 <0>         0.3945
@<TRIPOS>BOND
     1    1    6 ar
     2    1    2 ar
     3    1   20 1
     4    2    3 ar
     5    2   21 1
     6    3    4 ar
     7    3   22 1
     8    4   11 1
     9    4    5 ar
    10    5    6 ar
    11    5    7 1
    12    6   23 1
    13    7    8 2
    14    7    9 1
    15    9   10 2
    16    9   24 1
    17   10   11 1
    18   10   13 1
    19   11   12 2
    20   13   18 ar
    21   13   14 ar
    22   14   15 ar
    23   14   25 1
    24   15   16 ar
    25   15   26 1
    26   16   17 ar
    27   16   19 1
    28   17   18 ar
    29   17   27 1
    30   18   28 1
    31   19   29 1
@<TRIPOS>MOLECULE
ZINC08836022
   53    56     0     0     0
SMALL
USER_CHARGES

@<TRIPOS>ATOM
      1 C1         -7.8820   -0.6768    0.8761 C.3       1 <0>        -0.1053
      2 C2         -6.8307   -1.7565    0.8758 C.ar      1 <0>         0.2419
      3 C3         -6.9506   -2.8780    0.0340 C.ar      1 <0>        -0.2013
      4 C4         -8.0392   -3.0435   -0.8346 C.ar      1 <0>        -0.0721
      5 C5         -8.1028   -4.1497   -1.6275 C.ar      1 <0>        -0.1399
      6 C6         -7.1024   -5.1187   -1.5874 C.ar      1 <0>        -0.0867
      7 C7         -6.0316   -4.9898   -0.7552 C.ar      1 <0>        -0.1018
      8 C8         -5.9313   -3.8638    0.0752 C.ar      1 <0>         0.1946
      9 N1         -4.8996   -3.6884    0.9103 N.ar      1 <0>        -0.4725
     10 C9         -4.8407   -2.6171    1.6757 C.ar      1 <0>         0.5604
     11 N2         -5.7761   -1.6699    1.6591 N.ar      1 <0>        -0.5536
     12 N3         -3.7573   -2.4677    2.5291 N.pl3     1 <0>        -0.6103
     13 C10        -2.7732   -3.4259    2.5643 C.2       1 <0>         0.7533
     14 N4         -1.7307   -3.2821    3.3856 N.2       1 <0>        -0.6968
     15 C11        -0.7024   -4.1192    3.3063 C.2       1 <0>         0.6546
     16 O1         -0.6886   -5.0713    2.3742 O.2       1 <0>        -0.6264
     17 N5          0.3344   -4.0047    4.1749 N.am      1 <0>        -0.6527
     18 C12         1.3715   -4.9432    4.1536 C.ar      1 <0>         0.1813
     19 C13         1.7704   -5.5125    2.9513 C.ar      1 <0>        -0.1171
     20 C14         2.7946   -6.4388    2.9337 C.ar      1 <0>        -0.1057
     21 C15         3.4228   -6.7996    4.1116 C.ar      1 <0>        -0.1537
     22 C16         3.0280   -6.2347    5.3105 C.ar      1 <0>        -0.1066
     23 C17         2.0082   -5.3035    5.3341 C.ar      1 <0>        -0.1613
     24 N6         -2.8597   -4.5007    1.7774 N.2       1 <0>        -0.6739
     25 C18        -3.3967   -5.6231    2.2426 C.2       1 <0>         0.7001
     26 O2         -3.8666   -5.6702    3.4886 O.3       1 <0>        -0.7435
     27 N7         -3.4667   -6.7219    1.4488 N.pl3     1 <0>        -0.6612
     28 C19        -2.9925   -6.6662    0.1340 C.ar      1 <0>         0.1990
     29 C20        -1.8489   -5.9362   -0.1631 C.ar      1 <0>        -0.1097
     30 C21        -1.3834   -5.8832   -1.4622 C.ar      1 <0>        -0.1139
     31 C22        -2.0546   -6.5560   -2.4668 C.ar      1 <0>        -0.1609
     32 C23        -3.1935   -7.2837   -2.1743 C.ar      1 <0>        -0.1144
     33 C24        -3.6610   -7.3454   -0.8762 C.ar      1 <0>        -0.1797
     34 H1         -7.6257    0.0801    0.1348 H         1 <0>         0.0876
     35 H2         -8.8504   -1.1126    0.6305 H         1 <0>         0.0826
     36 H3         -7.9303   -0.2170    1.8632 H         1 <0>         0.0848
     37 H4         -8.8214   -2.2999   -0.8745 H         1 <0>         0.1287
     38 H5         -8.9409   -4.2775   -2.2965 H         1 <0>         0.1234
     39 H6         -7.1774   -5.9863   -2.2261 H         1 <0>         0.1266
     40 H7         -5.2646   -5.7498   -0.7350 H         1 <0>         0.1478
     41 H8         -3.6945   -1.6867    3.1009 H         1 <0>         0.4162
     42 H9          0.3562   -3.2722    4.8103 H         1 <0>         0.4058
     43 H10         1.2800   -5.2313    2.0310 H         1 <0>         0.1486
     44 H11         3.1050   -6.8821    1.9991 H         1 <0>         0.1177
     45 H12         4.2232   -7.5245    4.0953 H         1 <0>         0.1136
     46 H13         3.5203   -6.5189    6.2288 H         1 <0>         0.1171
     47 H14         1.7036   -4.8591    6.2701 H         1 <0>         0.1186
     48 H15        -3.8455   -7.5457    1.7933 H         1 <0>         0.3991
     49 H16        -1.3245   -5.4103    0.6210 H         1 <0>         0.1857
     50 H17        -0.4944   -5.3155   -1.6939 H         1 <0>         0.1075
     51 H18        -1.6887   -6.5127   -3.4820 H         1 <0>         0.1050
     52 H19        -3.7157   -7.8078   -2.9612 H         1 <0>         0.1092
     53 H20        -4.5479   -7.9179   -0.6477 H         1 <0>         0.1102
@<TRIPOS>BOND
     1    1    2 1
     2    1   34 1
     3    1   35 1
     4    1   36 1
     5    2   11 ar
     6    2    3 ar
     7    3    8 ar
     8    3    4 ar
     9    4    5 ar
    10    4   37 1
    11    5    6 ar
    12    5   38 1
    13    6    7 ar
    14    6   39 1
    15    7    8 ar
    16    7   40 1
    17    8    9 ar
    18    9   10 ar
    19   10   11 ar
    20   10   12 1
    21   12   13 1
    22   12   41 1
    23   13   14 2
    24   13   24 1
    25   14   15 1
    26   15   16 2
    27   15   17 am
    28   17   18 1
    29   17   42 1
    30   18   23 ar
    31   18   19 ar
    32   19   20 ar
    33   19   43 1
    34   20   21 ar
    35   20   44 1
    36   21   22 ar
    37   21   45 1
    38   22   23 ar
    39   22   46 1
    40   23   47 1
    41   24   25 2
    42   25   26 1
    43   25   27 1
    44   27   28 1
    45   27   48 1
    46   28   33 ar
    47   28   29 ar
    48   29   30 ar
    49   29   49 1
    50   30   31 ar
    51   30   50 1
    52   31   32 ar
    53   31   51 1
    54   32   33 ar
    55   32   52 1
    56   33   53 1
@<TRIPOS>MOLECULE
ZINC08836022
   54    57     0     0     0
SMALL
USER_CHARGES

@<TRIPOS>ATOM
      1 C1          1.3638    1.7968    4.7874 C.3       1 <0>        -0.1169
      2 C2          1.1562    0.6744    3.8036 C.ar      1 <0>         0.2728
      3 C3          0.4563    0.8905    2.6018 C.ar      1 <0>        -0.1888
      4 C4         -0.0746    2.1441    2.2649 C.ar      1 <0>        -0.0616
      5 C5         -0.7429    2.2951    1.0872 C.ar      1 <0>        -0.1285
      6 C6         -0.9063    1.2225    0.2132 C.ar      1 <0>        -0.0612
      7 C7         -0.4035   -0.0086    0.5091 C.ar      1 <0>        -0.1155
      8 C8          0.2906   -0.2023    1.7125 C.ar      1 <0>         0.1989
      9 N1          0.8048   -1.3913    2.0509 N.ar      1 <0>        -0.5529
     10 C9          1.4510   -1.5342    3.1905 C.ar      1 <0>         0.5577
     11 N2          1.9710   -2.7808    3.5092 N.pl3     1 <0>        -0.5908
     12 C10         1.8056   -3.8307    2.6492 C.2       1 <0>         0.7356
     13 N3          2.2494   -5.0305    2.9785 N.2       1 <0>        -0.6230
     14 C11         2.3775   -5.9796    2.0389 C.2       1 <0>         0.7060
     15 O1          2.1502   -5.7157    0.8718 O.2       1 <0>        -0.5891
     16 N4          2.7578   -7.2250    2.3865 N.am      1 <0>        -0.6505
     17 C12         2.9259   -7.5539    3.7357 C.ar      1 <0>         0.1553
     18 C13         2.0876   -7.0029    4.6960 C.ar      1 <0>        -0.1067
     19 C14         2.2562   -7.3297    6.0273 C.ar      1 <0>        -0.1035
     20 C15         3.2588   -8.2043    6.4044 C.ar      1 <0>        -0.1370
     21 C16         4.0952   -8.7547    5.4507 C.ar      1 <0>        -0.1025
     22 C17         3.9279   -8.4368    4.1171 C.ar      1 <0>        -0.1483
     23 N5          1.1791   -3.6383    1.4449 N.am      1 <0>        -0.6741
     24 C18         0.1747   -4.4551    1.0698 C.2       1 <0>         0.7518
     25 O2         -0.2412   -5.2997    1.8385 O.2       1 <0>        -0.5614
     26 N6         -0.3685   -4.3352   -0.1579 N.am      1 <0>        -0.6669
     27 C19        -1.4811   -5.1078   -0.5091 C.ar      1 <0>         0.1714
     28 C20        -2.3666   -5.5381    0.4703 C.ar      1 <0>        -0.1281
     29 C21        -3.4638   -6.3005    0.1203 C.ar      1 <0>        -0.0986
     30 C22        -3.6810   -6.6354   -1.2036 C.ar      1 <0>        -0.1409
     31 C23        -2.8012   -6.2084   -2.1812 C.ar      1 <0>        -0.0977
     32 C24        -1.7052   -5.4409   -1.8385 C.ar      1 <0>        -0.1505
     33 N7          1.6300   -0.5298    4.0458 N.ar      1 <0>        -0.5446
     34 H1          2.2920    2.3182    4.5533 H         1 <0>         0.0991
     35 H2          0.5290    2.4948    4.7238 H         1 <0>         0.0912
     36 H3          1.4206    1.3894    5.7968 H         1 <0>         0.0940
     37 H4          0.0450    2.9833    2.9340 H         1 <0>         0.1404
     38 H5         -1.1523    3.2602    0.8276 H         1 <0>         0.1354
     39 H6         -1.4407    1.3692   -0.7138 H         1 <0>         0.1376
     40 H7         -0.5387   -0.8304   -0.1785 H         1 <0>         0.1381
     41 H8          2.9150   -7.8931    1.7012 H         1 <0>         0.4186
     42 H9          1.3048   -6.3192    4.4022 H         1 <0>         0.1352
     43 H10         1.6046   -6.9015    6.7746 H         1 <0>         0.1227
     44 H11         3.3890   -8.4577    7.4462 H         1 <0>         0.1210
     45 H12         4.8773   -9.4374    5.7484 H         1 <0>         0.1238
     46 H13         4.5787   -8.8704    3.3722 H         1 <0>         0.1222
     47 H14         0.0118   -3.7134   -0.7979 H         1 <0>         0.4075
     48 H15        -2.1973   -5.2772    1.5045 H         1 <0>         0.1393
     49 H16        -4.1526   -6.6358    0.8816 H         1 <0>         0.1238
     50 H17        -4.5396   -7.2319   -1.4746 H         1 <0>         0.1222
     51 H18        -2.9736   -6.4716   -3.2144 H         1 <0>         0.1258
     52 H19        -1.0210   -5.1037   -2.6031 H         1 <0>         0.1242
     53 H20         2.4519   -2.9072    4.3421 H         1 <0>         0.4478
     54 H21         1.4586   -2.9144    0.8630 H         1 <0>         0.4202
@<TRIPOS>BOND
     1    1    2 1
     2    1   34 1
     3    1   35 1
     4    1   36 1
     5    2   33 ar
     6    2    3 ar
     7    3    8 ar
     8    3    4 ar
     9    4    5 ar
    10    4   37 1
    11    5    6 ar
    12    5   38 1
    13    6    7 ar
    14    6   39 1
    15    7    8 ar
    16    7   40 1
    17    8    9 ar
    18    9   10 ar
    19   10   11 1
    20   10   33 ar
    21   11   12 1
    22   11   53 1
    23   12   13 2
    24   12   23 1
    25   13   14 1
    26   14   15 2
    27   14   16 am
    28   16   17 1
    29   16   41 1
    30   17   22 ar
    31   17   18 ar
    32   18   19 ar
    33   18   42 1
    34   19   20 ar
    35   19   43 1
    36   20   21 ar
    37   20   44 1
    38   21   22 ar
    39   21   45 1
    40   22   46 1
    41   23   24 am
    42   23   54 1
    43   24   25 2
    44   24   26 am
    45   26   27 1
    46   26   47 1
    47   27   32 ar
    48   27   28 ar
    49   28   29 ar
    50   28   48 1
    51   29   30 ar
    52   29   49 1
    53   30   31 ar
    54   30   50 1
    55   31   32 ar
    56   31   51 1
    57   32   52 1
@<TRIPOS>MOLECULE
ZINC14962105
   42    44     0     0     0
SMALL
USER_CHARGES

@<TRIPOS>ATOM
      1 C1         -0.3831    0.7376    0.5113 C.ar      1 <0>        -0.1212
      2 C2         -0.2273   -0.6024    0.2035 C.ar      1 <0>        -0.1112
      3 C3          1.0354   -1.1344    0.0443 C.ar      1 <0>        -0.1278
      4 C4          2.1576   -0.3175    0.1944 C.ar      1 <0>        -0.0164
      5 C5          1.9932    1.0337    0.5050 C.ar      1 <0>        -0.1014
      6 C6          0.7248    1.5528    0.6615 C.ar      1 <0>        -0.1138
      7 C7          3.5134   -0.8806    0.0258 C.2       1 <0>         0.0739
      8 C8          4.6479   -0.1707   -0.2412 C.2       1 <0>        -0.1723
      9 C9          5.7076   -1.0804   -0.3229 C.2       1 <0>        -0.1642
     10 C10         5.1991   -2.3279   -0.1043 C.2       1 <0>         0.0548
     11 N1          3.8509   -2.2068    0.1163 N.pl3     1 <0>        -0.4173
     12 C11         2.9270   -3.3083    0.3979 C.3       1 <0>         0.0680
     13 C12         2.3495   -3.8227   -0.8955 C.2       1 <0>         0.4919
     14 O1          2.6781   -3.3178   -1.9511 O.2       1 <0>        -0.5126
     15 N2          1.4793   -4.8304   -0.8819 N.2       1 <0>        -0.7030
     16 C13         1.6899   -5.8992   -1.6397 C.2       1 <0>         0.7056
     17 N3          2.8478   -6.0146   -2.3480 N.pl3     1 <0>        -0.8633
     18 N4          0.7480   -6.8810   -1.7094 N.pl3     1 <0>        -0.8202
     19 C14         5.9686   -3.5893   -0.0996 C.ar      1 <0>        -0.0042
     20 C15         5.3213   -4.8064   -0.3206 C.ar      1 <0>        -0.1420
     21 C16         6.0457   -5.9804   -0.3149 C.ar      1 <0>        -0.1115
     22 C17         7.4108   -5.9535   -0.0908 C.ar      1 <0>        -0.1227
     23 C18         8.0587   -4.7507    0.1289 C.ar      1 <0>        -0.1071
     24 C19         7.3473   -3.5689    0.1201 C.ar      1 <0>        -0.1013
     25 H1         -1.3741    1.1501    0.6305 H         1 <0>         0.1237
     26 H2         -1.0963   -1.2332    0.0881 H         1 <0>         0.1238
     27 H3          1.1556   -2.1806   -0.1956 H         1 <0>         0.1220
     28 H4          2.8572    1.6710    0.6228 H         1 <0>         0.1288
     29 H5          0.5962    2.5979    0.9014 H         1 <0>         0.1269
     30 H6          4.7154    0.8999   -0.3669 H         1 <0>         0.1430
     31 H7          6.7410   -0.8392   -0.5232 H         1 <0>         0.1427
     32 H8          3.4632   -4.1125    0.9017 H         1 <0>         0.1215
     33 H9          2.1210   -2.9515    1.0392 H         1 <0>         0.1251
     34 H10         0.9019   -7.6622   -2.2634 H         1 <0>         0.4131
     35 H11         3.5506   -5.3548   -2.2394 H         1 <0>         0.4203
     36 H12        -0.0765   -6.7988   -1.2051 H         1 <0>         0.4278
     37 H13         2.9696   -6.7565   -2.9609 H         1 <0>         0.4051
     38 H14         4.2557   -4.8288   -0.4953 H         1 <0>         0.1093
     39 H15         5.5461   -6.9226   -0.4854 H         1 <0>         0.1214
     40 H16         7.9732   -6.8755   -0.0870 H         1 <0>         0.1249
     41 H17         9.1244   -4.7368    0.3032 H         1 <0>         0.1287
     42 H18         7.8548   -2.6304    0.2873 H         1 <0>         0.1312
@<TRIPOS>BOND
     1    1    6 ar
     2    1    2 ar
     3    1   25 1
     4    2    3 ar
     5    2   26 1
     6    3    4 ar
     7    3   27 1
     8    4    5 ar
     9    4    7 1
    10    5    6 ar
    11    5   28 1
    12    6   29 1
    13    7   11 1
    14    7    8 2
    15    8    9 1
    16    8   30 1
    17    9   10 2
    18    9   31 1
    19   10   11 1
    20   10   19 1
    21   11   12 1
    22   12   32 1
    23   12   33 1
    24   12   13 1
    25   13   15 1
    26   13   14 2
    27   15   16 2
    28   16   17 1
    29   16   18 1
    30   17   35 1
    31   17   37 1
    32   18   36 1
    33   18   34 1
    34   19   24 ar
    35   19   20 ar
    36   20   21 ar
    37   20   38 1
    38   21   22 ar
    39   21   39 1
    40   22   23 ar
    41   22   40 1
    42   23   24 ar
    43   23   41 1
    44   24   42 1
@<TRIPOS>MOLECULE
ZINC43552589
   60    65     0     0     0
SMALL
USER_CHARGES

@<TRIPOS>ATOM
      1 C1         -0.0169    1.3935    0.0097 C.ar      1 <0>        -0.0572
      2 C2          1.1676    2.0963    0.0022 C.ar      1 <0>        -0.1490
      3 C3          2.3803    1.4179   -0.0131 C.ar      1 <0>         0.1365
      4 C4          2.4038    0.0284   -0.0212 C.ar      1 <0>        -0.1479
      5 C5          1.2241   -0.6823   -0.0138 C.ar      1 <0>        -0.0610
      6 C6          0.0021   -0.0041    0.0020 C.ar      1 <0>        -0.0851
      7 C7         -1.2640   -0.7610    0.0105 C.2       1 <0>         0.2104
      8 C8         -1.2139   -2.1205    0.0083 C.2       1 <0>        -0.3136
      9 C9         -2.4186   -2.8624    0.0164 C.2       1 <0>         0.4239
     10 O1         -2.4116   -4.0828    0.0150 O.2       1 <0>        -0.4531
     11 C10        -3.6817   -2.1044    0.0270 C.ar      1 <0>        -0.2637
     12 C11        -4.9213   -2.7580    0.0360 C.ar      1 <0>         0.2241
     13 C12        -6.0888   -2.0162    0.0464 C.ar      1 <0>        -0.2036
     14 C13        -6.0372   -0.6287    0.0474 C.ar      1 <0>         0.2018
     15 C14        -4.8076    0.0353    0.0385 C.ar      1 <0>        -0.1077
     16 C15        -3.6205   -0.7023    0.0285 C.ar      1 <0>         0.2023
     17 O2         -2.4222   -0.0825    0.0257 O.3       1 <0>        -0.2089
     18 C16        -4.7625    1.5169    0.0391 C.ar      1 <0>        -0.0617
     19 C17        -4.7263    2.2154    1.2442 C.ar      1 <0>        -0.0698
     20 C18        -4.6845    3.5951    1.2393 C.ar      1 <0>        -0.1009
     21 C19        -4.6788    4.2877    0.0415 C.ar      1 <0>        -0.0653
     22 C20        -4.7149    3.6044   -1.1597 C.ar      1 <0>        -0.1430
     23 C21        -4.7504    2.2198   -1.1698 C.ar      1 <0>         0.1469
     24 O3         -4.7798    1.5470   -2.3501 O.3       1 <0>        -0.4922
     25 C22        -4.6453    4.3497    2.5432 C.3       1 <0>         0.1480
     26 H1         -4.2205    3.7130    3.3193 H         1 <0>         0.0905
     27 C23        -6.0707    4.7604    2.9405 C.3       1 <0>        -0.1929
     28 C24        -5.9675    5.5437    4.2370 C.2       1 <0>         0.4029
     29 O4         -6.7736    5.4025    5.1334 O.2       1 <0>        -0.4312
     30 C25        -4.8435    6.4794    4.3510 C.ar      1 <0>        -0.2943
     31 C26        -4.8014    7.4256    5.3872 C.ar      1 <0>         0.2229
     32 C27        -3.7240    8.2884    5.4787 C.ar      1 <0>        -0.2200
     33 C28        -2.6941    8.2171    4.5485 C.ar      1 <0>         0.1986
     34 C29        -2.7331    7.2869    3.5178 C.ar      1 <0>        -0.2008
     35 C30        -3.8025    6.4158    3.4063 C.ar      1 <0>         0.2143
     36 O5         -3.8405    5.5190    2.3928 O.3       1 <0>        -0.2965
     37 O6         -1.6398    9.0652    4.6478 O.3       1 <0>        -0.4898
     38 O7         -5.8098    7.4937    6.2915 O.3       1 <0>        -0.4787
     39 O8         -7.1896    0.0881    0.0566 O.3       1 <0>        -0.4816
     40 O9         -4.9762   -4.1139    0.0342 O.3       1 <0>        -0.4712
     41 O10         3.5455    2.1145   -0.0204 O.3       1 <0>        -0.4962
     42 H2         -0.9589    1.9215    0.0260 H         1 <0>         0.1389
     43 H3          1.1538    3.1762    0.0077 H         1 <0>         0.1388
     44 H4          3.3485   -0.4949   -0.0337 H         1 <0>         0.1412
     45 H5          1.2432   -1.7622   -0.0205 H         1 <0>         0.1412
     46 H6         -0.2616   -2.6297    0.0000 H         1 <0>         0.1640
     47 H7         -7.0449   -2.5185    0.0533 H         1 <0>         0.1527
     48 H8         -4.7314    1.6780    2.1809 H         1 <0>         0.1300
     49 H9         -4.6463    5.3672    0.0450 H         1 <0>         0.1359
     50 H10        -4.7107    4.1507   -2.0914 H         1 <0>         0.1370
     51 H11        -5.6713    1.3791   -2.6850 H         1 <0>         0.3961
     52 H12        -6.5070    5.3866    2.1623 H         1 <0>         0.1173
     53 H13        -6.6845    3.8724    3.0912 H         1 <0>         0.1153
     54 H14        -3.6833    9.0183    6.2737 H         1 <0>         0.1463
     55 H15        -1.9265    7.2436    2.8010 H         1 <0>         0.1489
     56 H16        -0.9126    8.7271    5.1881 H         1 <0>         0.4029
     57 H17        -5.6805    6.9317    7.0677 H         1 <0>         0.4036
     58 H18        -7.5170    0.2950    0.9427 H         1 <0>         0.4023
     59 H19        -4.9849   -4.5084    0.9170 H         1 <0>         0.4037
     60 H20         3.8915    2.3116    0.8608 H         1 <0>         0.3978
@<TRIPOS>BOND
     1    1    6 ar
     2    1    2 ar
     3    1   42 1
     4    2    3 ar
     5    2   43 1
     6    3    4 ar
     7    3   41 1
     8    4    5 ar
     9    4   44 1
    10    5    6 ar
    11    5   45 1
    12    6    7 1
    13    7   17 1
    14    7    8 2
    15    8    9 1
    16    8   46 1
    17    9   10 2
    18    9   11 1
    19   11   16 ar
    20   11   12 ar
    21   12   13 ar
    22   12   40 1
    23   13   14 ar
    24   13   47 1
    25   14   15 ar
    26   14   39 1
    27   15   16 ar
    28   15   18 1
    29   16   17 1
    30   18   23 ar
    31   18   19 ar
    32   19   20 ar
    33   19   48 1
    34   20   21 ar
    35   20   25 1
    36   21   22 ar
    37   21   49 1
    38   22   23 ar
    39   22   50 1
    40   23   24 1
    41   24   51 1
    42   25   26 1
    43   25   36 1
    44   25   27 1
    45   27   28 1
    46   27   52 1
    47   27   53 1
    48   28   29 2
    49   28   30 1
    50   30   35 ar
    51   30   31 ar
    52   31   32 ar
    53   31   38 1
    54   32   33 ar
    55   32   54 1
    56   33   34 ar
    57   33   37 1
    58   34   35 ar
    59   34   55 1
    60   35   36 1
    61   37   56 1
    62   38   57 1
    63   39   58 1
    64   40   59 1
    65   41   60 1
@<TRIPOS>MOLECULE
ZINC11726158
   57    61     0     0     0
SMALL
USER_CHARGES

@<TRIPOS>ATOM
      1 C1         -0.0167    1.3781    0.0096 C.ar      1 <0>        -0.1053
      2 C2          1.1709    2.0855    0.0021 C.ar      1 <0>        -0.1196
      3 C3          2.3773    1.4107   -0.0130 C.ar      1 <0>        -0.0937
      4 C4          2.3960    0.0285   -0.0201 C.ar      1 <0>        -0.1009
      5 C5          1.2084   -0.6789   -0.0117 C.ar      1 <0>        -0.0980
      6 C6          0.0021   -0.0041    0.0020 C.ar      1 <0>        -0.1238
      7 C7          3.7112   -0.7071   -0.0376 C.3       1 <0>         0.1013
      8 O1          4.1410   -0.9464    1.3041 O.3       1 <0>        -0.3056
      9 C8          5.3184   -1.6049    1.4665 C.ar      1 <0>         0.1484
     10 C9          6.0467   -2.0066    0.3546 C.ar      1 <0>        -0.2046
     11 C10         7.2418   -2.6750    0.5161 C.ar      1 <0>        -0.0536
     12 C11         7.7189   -2.9473    1.7976 C.ar      1 <0>        -0.0676
     13 C12         6.9856   -2.5427    2.9118 C.ar      1 <0>        -0.0498
     14 C13         5.7936   -1.8695    2.7436 C.ar      1 <0>        -0.1549
     15 C14         5.0033   -1.4258    3.9477 C.3       1 <0>         0.1740
     16 N1          3.9155   -2.3755    4.1948 N.pl3     1 <0>        -0.7096
     17 C15         3.0396   -2.1728    5.2682 C.ar      1 <0>         0.1680
     18 C16         3.1886   -1.0721    6.1016 C.ar      1 <0>        -0.0767
     19 C17         2.2956   -0.9129    7.1526 C.ar      1 <0>        -0.1027
     20 C18         1.2943   -1.8445    7.3375 C.ar      1 <0>         0.0689
     21 N2          1.1741   -2.8827    6.5305 N.ar      1 <0>        -0.4615
     22 C19         1.9985   -3.0716    5.5137 C.ar      1 <0>         0.3842
     23 N3          1.8310   -4.1782    4.6846 N.pl3     1 <0>        -0.8323
     24 C20         9.0038   -3.6664    1.9749 C.ar      1 <0>        -0.0311
     25 C21         9.4746   -3.9419    3.2634 C.ar      1 <0>        -0.1389
     26 C22        10.6546   -4.6020    3.4407 C.ar      1 <0>        -0.0647
     27 C23        11.4004   -5.0075    2.3302 C.ar      1 <0>        -0.1043
     28 C24        12.6719   -5.7154    2.1657 C.2       1 <0>        -0.2058
     29 C25        12.8924   -5.8259    0.8457 C.2       1 <0>         0.0584
     30 N4         11.8659   -5.2465    0.1509 N.pl3     1 <0>        -0.5958
     31 H1         11.8023   -5.2021   -0.8160 H         1 <0>         0.4177
     32 C26        10.9358   -4.7359    1.0296 C.ar      1 <0>         0.0966
     33 C27         9.7300   -4.0675    0.8607 C.ar      1 <0>        -0.1177
     34 H2         -0.9591    1.9053    0.0259 H         1 <0>         0.1271
     35 H3          1.1563    3.1654    0.0076 H         1 <0>         0.1287
     36 H4          3.3051    1.9634   -0.0196 H         1 <0>         0.1256
     37 H5          1.2231   -1.7588   -0.0176 H         1 <0>         0.1204
     38 H6         -0.9258   -0.5567    0.0082 H         1 <0>         0.1253
     39 H7          3.5884   -1.6586   -0.5549 H         1 <0>         0.0737
     40 H8          4.4573   -0.1052   -0.5563 H         1 <0>         0.0761
     41 H9          5.6764   -1.7957   -0.6377 H         1 <0>         0.1351
     42 H10         7.8076   -2.9875   -0.3491 H         1 <0>         0.1328
     43 H11         7.3524   -2.7525    3.9057 H         1 <0>         0.1378
     44 H12         5.6579   -1.3886    4.8184 H         1 <0>         0.0839
     45 H13         4.5864   -0.4356    3.7639 H         1 <0>         0.0875
     46 H14         3.8021   -3.1447    3.6149 H         1 <0>         0.4055
     47 H15         3.9808   -0.3570    5.9363 H         1 <0>         0.1690
     48 H16         2.3839   -0.0680    7.8196 H         1 <0>         0.1793
     49 H17         0.5987   -1.7227    8.1547 H         1 <0>         0.2029
     50 H18         2.4359   -4.3225    3.9401 H         1 <0>         0.4299
     51 H19         1.1095   -4.8046    4.8517 H         1 <0>         0.4221
     52 H20         8.9001   -3.6295    4.1229 H         1 <0>         0.1226
     53 H21        11.0127   -4.8108    4.4379 H         1 <0>         0.1262
     54 H22        13.3113   -6.0794    2.9563 H         1 <0>         0.1498
     55 H23        13.7527   -6.3017    0.3986 H         1 <0>         0.1744
     56 H24         9.3609   -3.8568   -0.1322 H         1 <0>         0.1223
     57 H25         0.4606   -3.5214    6.6853 H         1 <0>         0.4431
@<TRIPOS>BOND
     1    1    6 ar
     2    1    2 ar
     3    1   34 1
     4    2    3 ar
     5    2   35 1
     6    3    4 ar
     7    3   36 1
     8    4    5 ar
     9    4    7 1
    10    5    6 ar
    11    5   37 1
    12    6   38 1
    13    7    8 1
    14    7   39 1
    15    7   40 1
    16    8    9 1
    17    9   14 ar
    18    9   10 ar
    19   10   11 ar
    20   10   41 1
    21   11   12 ar
    22   11   42 1
    23   12   13 ar
    24   12   24 1
    25   13   14 ar
    26   13   43 1
    27   14   15 1
    28   15   16 1
    29   15   44 1
    30   15   45 1
    31   16   17 1
    32   16   46 1
    33   17   22 ar
    34   17   18 ar
    35   18   19 ar
    36   18   47 1
    37   19   20 ar
    38   19   48 1
    39   20   21 ar
    40   20   49 1
    41   21   22 ar
    42   21   57 1
    43   22   23 1
    44   23   50 1
    45   23   51 1
    46   24   33 ar
    47   24   25 ar
    48   25   26 ar
    49   25   52 1
    50   26   27 ar
    51   26   53 1
    52   27   32 ar
    53   27   28 1
    54   28   29 2
    55   28   54 1
    56   29   30 1
    57   29   55 1
    58   30   31 1
    59   30   32 1
    60   32   33 ar
    61   33   56 1
@<TRIPOS>MOLECULE
ZINC28706449
   72    74     0     0     0
SMALL
USER_CHARGES
N-[(1S,2R)-2-amino-1-benzyl-3-fluoro-propyl]-2-[isopropylsulfonyl(methyl)amino]-6-[[(1S,2S)-2-methylcyclopropyl]methylamino]pyridine-4-carboxamide
@<TRIPOS>ATOM
      1 C1          0.5462    9.9223    0.9486 C.3       1 <0>        -0.1515
      2 C2          0.3315    8.6294    0.1593 C.3       1 <0>        -0.1875
      3 H1         -0.7115    8.5303    0.4946 H         1 <0>         0.1285
      4 C3          1.0563    8.4915   -1.1819 C.3       1 <0>        -0.1416
      5 C4          1.5214    7.6767    0.0267 C.3       1 <0>        -0.1232
      6 H2          2.4766    7.5463    0.5563 H         1 <0>         0.1311
      7 C5          1.2272    6.1753    0.0220 C.3       1 <0>         0.1327
      8 N1          2.4887    5.4306    0.0060 N.pl3     1 <0>        -0.7275
      9 C6          2.4752    4.0405   -0.0008 C.ar      1 <0>         0.4545
     10 C7          1.2602    3.3660    0.0022 C.ar      1 <0>        -0.2481
     11 C8          1.2587    1.9692    0.0006 C.ar      1 <0>        -0.0259
     12 C9          2.4879    1.3051   -0.0147 C.ar      1 <0>        -0.2077
     13 C10         3.6592    2.0520   -0.0223 C.ar      1 <0>         0.4320
     14 N2          3.6199    3.3756   -0.0153 N.ar      1 <0>        -0.5381
     15 N3          4.8879    1.4017   -0.0371 N.pl3     1 <0>        -0.9221
     16 C11         4.9418   -0.0623   -0.0445 C.3       1 <0>         0.0667
     17 S1          6.2905    2.2819   -0.0463 S.o2      1 <0>         2.6092
     18 O1          7.2481    1.4318   -0.6624 O.2       1 <0>        -0.9472
     19 O2          5.9357    3.5233   -0.6400 O.2       1 <0>        -0.9002
     20 C12         6.7021    2.5215    1.7040 C.3       1 <0>        -0.6008
     21 C13         7.9237    3.4353    1.8203 C.3       1 <0>        -0.1482
     22 C14         5.5145    3.1637    2.4239 C.3       1 <0>        -0.1350
     23 C15        -0.0144    1.2109    0.0087 C.2       1 <0>         0.5764
     24 O3          0.0021   -0.0041    0.0020 O.2       1 <0>        -0.5182
     25 N4         -1.1906    1.8689    0.0179 N.am      1 <0>        -0.7316
     26 C16        -2.4493    1.1192    0.0197 C.3       1 <0>         0.1385
     27 H3         -2.2845    0.2102    0.6168 H         1 <0>         0.1261
     28 C17        -3.5535    1.9781    0.6393 C.3       1 <0>        -0.1010
     29 C18        -3.2381    2.2313    2.0910 C.ar      1 <0>        -0.1014
     30 C19        -3.6985    1.3601    3.0605 C.ar      1 <0>        -0.1135
     31 C20        -3.4051    1.5897    4.3917 C.ar      1 <0>        -0.1118
     32 C21        -2.6601    2.6962    4.7543 C.ar      1 <0>        -0.1067
     33 C22        -2.2042    3.5703    3.7853 C.ar      1 <0>        -0.1104
     34 C23        -2.4932    3.3378    2.4537 C.ar      1 <0>        -0.1071
     35 C24        -2.8299    0.7580   -1.4175 C.3       1 <0>        -0.0091
     36 H4         -2.1111    0.0396   -1.8384 H         1 <0>         0.1548
     37 C25        -2.8784    2.0295   -2.2671 C.3       1 <0>         0.0369
     38 F1         -3.2265    1.6993   -3.5812 F         1 <0>        -0.1978
     39 N5         -4.1493    0.1121   -1.4270 N.4       1 <0>        -0.6850
     40 H5         -0.3874   10.5039    0.9605 H         1 <0>         0.0597
     41 H6          1.3413   10.5148    0.4724 H         1 <0>         0.0504
     42 H7          0.8391    9.6777    1.9803 H         1 <0>         0.0588
     43 H8          0.3482    8.1402   -1.9469 H         1 <0>         0.1004
     44 H9          1.4638    9.4686   -1.4806 H         1 <0>         0.1005
     45 H10         0.6566    5.9107    0.9244 H         1 <0>         0.0671
     46 H11         0.6391    5.9197   -0.8718 H         1 <0>         0.0600
     47 H12         3.4466    5.9714   -0.0006 H         1 <0>         0.4369
     48 H13         0.3298    3.9143    0.0097 H         1 <0>         0.1294
     49 H14         2.5268    0.2259   -0.0208 H         1 <0>         0.1483
     50 H15         5.9916   -0.3905   -0.0561 H         1 <0>         0.1056
     51 H16         4.4285   -0.4436   -0.9396 H         1 <0>         0.0821
     52 H17         4.4457   -0.4520    0.8566 H         1 <0>         0.0788
     53 H18         6.9544    1.6421    2.3147 H         1 <0>         0.1456
     54 H19         8.1732    3.5805    2.8817 H         1 <0>         0.0852
     55 H20         7.6986    4.4087    1.3600 H         1 <0>         0.0743
     56 H21         8.7775    2.9736    1.3027 H         1 <0>         0.0734
     57 H22         5.7641    3.3090    3.4853 H         1 <0>         0.0746
     58 H23         4.6362    2.5067    2.3404 H         1 <0>         0.0600
     59 H24         5.2894    4.1371    1.9636 H         1 <0>         0.0782
     60 H25        -1.2055    2.9688    0.0241 H         1 <0>         0.4314
     61 H26        -3.6152    2.9375    0.1048 H         1 <0>         0.0975
     62 H27        -4.5159    1.4514    0.5596 H         1 <0>         0.0860
     63 H28        -4.2843    0.4980    2.7775 H         1 <0>         0.1200
     64 H29        -3.7616    0.9070    5.1488 H         1 <0>         0.1274
     65 H30        -2.4347    2.8780    5.7948 H         1 <0>         0.1276
     66 H31        -1.6225    4.4350    4.0687 H         1 <0>         0.1271
     67 H32        -2.1372    4.0209    1.6966 H         1 <0>         0.1182
     68 H33        -3.6275    2.7197   -1.8517 H         1 <0>         0.1061
     69 H34        -1.8905    2.5132   -2.2600 H         1 <0>         0.1210
     70 H35        -4.4230   -0.1476   -2.4603 H         1 <0>         0.4658
     71 H36        -4.8984    0.8023   -1.0117 H         1 <0>         0.4492
     72 H37        -4.1144   -0.8020   -0.8161 H         1 <0>         0.4645
@<TRIPOS>BOND
     1    1    2 1
     2    1   40 1
     3    1   41 1
     4    1   42 1
     5    2    3 1
     6    2    5 1
     7    2    4 1
     8    4    5 1
     9    4   43 1
    10    4   44 1
    11    5    6 1
    12    5    7 1
    13    7    8 1
    14    7   45 1
    15    7   46 1
    16    8    9 1
    17    8   47 1
    18    9   14 ar
    19    9   10 ar
    20   10   11 ar
    21   10   48 1
    22   11   12 ar
    23   11   23 1
    24   12   13 ar
    25   12   49 1
    26   13   14 ar
    27   13   15 1
    28   15   16 1
    29   15   17 1
    30   16   50 1
    31   16   51 1
    32   16   52 1
    33   17   18 2
    34   17   19 2
    35   17   20 1
    36   20   21 1
    37   20   22 1
    38   20   53 1
    39   21   54 1
    40   21   55 1
    41   21   56 1
    42   22   57 1
    43   22   58 1
    44   22   59 1
    45   23   24 2
    46   23   25 am
    47   25   26 1
    48   25   60 1
    49   26   27 1
    50   26   28 1
    51   26   35 1
    52   28   29 1
    53   28   61 1
    54   28   62 1
    55   29   34 ar
    56   29   30 ar
    57   30   31 ar
    58   30   63 1
    59   31   32 ar
    60   31   64 1
    61   32   33 ar
    62   32   65 1
    63   33   34 ar
    64   33   66 1
    65   34   67 1
    66   35   36 1
    67   35   37 1
    68   35   39 1
    69   37   38 1
    70   37   68 1
    71   37   69 1
    72   39   70 1
    73   39   71 1
    74   39   72 1
@<TRIPOS>MOLECULE
ZINC28826085
   62    64     0     0     0
SMALL
USER_CHARGES

@<TRIPOS>ATOM
      1 C1         -4.1094   -2.0775    1.9998 C.3       1 <0>        -0.1516
      2 C2         -4.3611   -1.8129    0.5140 C.3       1 <0>        -0.1252
      3 C3         -3.1080   -2.1718   -0.2872 C.3       1 <0>         0.0572
      4 O1         -3.3430   -1.9247   -1.6750 O.3       1 <0>        -0.3108
      5 C4         -2.3223   -2.1934   -2.5310 C.ar      1 <0>         0.1494
      6 C5         -1.1215   -2.6903   -2.0423 C.ar      1 <0>        -0.2079
      7 C6         -0.0833   -2.9637   -2.9075 C.ar      1 <0>        -0.0614
      8 C7         -0.2409   -2.7406   -4.2762 C.ar      1 <0>        -0.0634
      9 C8         -1.4498   -2.2414   -4.7636 C.ar      1 <0>        -0.0518
     10 C9         -2.4849   -1.9755   -3.8925 C.ar      1 <0>        -0.1479
     11 C10         0.8701   -3.0320   -5.2075 C.2       1 <0>        -0.0768
     12 C11         1.6167   -4.1699   -5.3230 C.2       1 <0>        -0.1011
     13 C12         2.6195   -4.2155   -6.2813 C.2       1 <0>        -0.0779
     14 C13         2.8206   -3.1177   -7.0731 C.2       1 <0>        -0.1545
     15 S1          1.5739   -1.9897   -6.4739 S.3       1 <0>         0.1095
     16 C14         3.4569   -5.4298   -6.4437 C.ar      1 <0>        -0.0272
     17 C15         3.3646   -6.1927   -7.6061 C.ar      1 <0>        -0.0966
     18 C16         4.1456   -7.3211   -7.7520 C.ar      1 <0>        -0.1128
     19 C17         5.0194   -7.6959   -6.7470 C.ar      1 <0>        -0.1034
     20 C18         5.1159   -6.9433   -5.5909 C.ar      1 <0>        -0.1071
     21 C19         4.3432   -5.8086   -5.4362 C.ar      1 <0>        -0.0367
     22 Cl1         4.4707   -4.8601   -3.9878 Cl        1 <0>        -0.0531
     23 C20         1.3568   -5.3531   -4.4266 C.3       1 <0>        -0.0871
     24 C21         0.3927   -6.2934   -5.1028 C.2       1 <0>         0.5310
     25 O2         -0.1181   -5.9828   -6.1577 O.2       1 <0>        -0.4556
     26 N1          0.0981   -7.4797   -4.5350 N.am      1 <0>        -0.6635
     27 C22        -0.6967   -8.3886   -5.2065 C.cat     1 <0>         0.7402
     28 N2         -1.0844   -9.4793   -4.6107 N.pl3     1 <0>        -0.6317
     29 C23        -1.9272  -10.4431   -5.3228 C.3       1 <0>         0.0839
     30 C24        -2.2376  -11.6260   -4.4035 C.3       1 <0>        -0.1403
     31 C25        -3.1177  -12.6326   -5.1472 C.3       1 <0>         0.0794
     32 O3         -3.4077  -13.7375   -4.2886 O.3       1 <0>        -0.5708
     33 N3         -1.0779   -8.1415   -6.5037 N.pl3     1 <0>        -0.7925
     34 H1         -3.8740   -3.1316    2.1464 H         1 <0>         0.0570
     35 H2         -3.2730   -1.4675    2.3409 H         1 <0>         0.0595
     36 H3         -5.0021   -1.8218    2.5707 H         1 <0>         0.0687
     37 H4         -5.1975   -2.4229    0.1729 H         1 <0>         0.0743
     38 H5         -4.5965   -0.7588    0.3675 H         1 <0>         0.0768
     39 H6         -2.2716   -1.5619    0.0539 H         1 <0>         0.0665
     40 H7         -2.8726   -3.2259   -0.1407 H         1 <0>         0.0626
     41 H8         -1.0003   -2.8626   -0.9830 H         1 <0>         0.1355
     42 H9          0.8507   -3.3495   -2.5265 H         1 <0>         0.1301
     43 H10        -1.5756   -2.0675   -5.8220 H         1 <0>         0.1347
     44 H11        -3.4222   -1.5933   -4.2693 H         1 <0>         0.1392
     45 H12         3.5446   -2.9728   -7.8613 H         1 <0>         0.1921
     46 H13         2.6827   -5.9016   -8.3914 H         1 <0>         0.1342
     47 H14         4.0743   -7.9130   -8.6525 H         1 <0>         0.1332
     48 H15         5.6283   -8.5800   -6.8657 H         1 <0>         0.1363
     49 H16         5.7994   -7.2407   -4.8094 H         1 <0>         0.1391
     50 H17         2.2944   -5.8732   -4.2305 H         1 <0>         0.1217
     51 H18         0.9286   -5.0087   -3.4853 H         1 <0>         0.1252
     52 H19         0.4441   -7.6954   -3.6548 H         1 <0>         0.4430
     53 H20        -2.8580   -9.9608   -5.6213 H         1 <0>         0.1056
     54 H21        -1.4022  -10.7996   -6.2090 H         1 <0>         0.1112
     55 H22        -1.3068  -12.1082   -4.1050 H         1 <0>         0.0924
     56 H23        -2.7626  -11.2695   -3.5172 H         1 <0>         0.0916
     57 H24        -4.0486  -12.1504   -5.4457 H         1 <0>         0.0549
     58 H25        -2.5928  -12.9891   -6.0334 H         1 <0>         0.0552
     59 H26        -3.9631  -14.4165   -4.6954 H         1 <0>         0.3953
     60 H27        -0.4990   -7.6299   -7.0902 H         1 <0>         0.4468
     61 H28        -1.9259   -8.4786   -6.8326 H         1 <0>         0.4344
     62 H29        -0.8154   -9.6537   -3.6952 H         1 <0>         0.4411
@<TRIPOS>BOND
     1    1    2 1
     2    1   34 1
     3    1   35 1
     4    1   36 1
     5    2    3 1
     6    2   37 1
     7    2   38 1
     8    3    4 1
     9    3   39 1
    10    3   40 1
    11    4    5 1
    12    5   10 ar
    13    5    6 ar
    14    6    7 ar
    15    6   41 1
    16    7    8 ar
    17    7   42 1
    18    8    9 ar
    19    8   11 1
    20    9   10 ar
    21    9   43 1
    22   10   44 1
    23   11   15 1
    24   11   12 2
    25   12   13 1
    26   12   23 1
    27   13   14 2
    28   13   16 1
    29   14   15 1
    30   14   45 1
    31   16   21 ar
    32   16   17 ar
    33   17   18 ar
    34   17   46 1
    35   18   19 ar
    36   18   47 1
    37   19   20 ar
    38   19   48 1
    39   20   21 ar
    40   20   49 1
    41   21   22 1
    42   23   24 1
    43   23   50 1
    44   23   51 1
    45   24   25 2
    46   24   26 am
    47   26   27 1
    48   26   52 1
    49   27   28 2
    50   27   33 1
    51   28   29 1
    52   28   62 1
    53   29   30 1
    54   29   53 1
    55   29   54 1
    56   30   31 1
    57   30   55 1
    58   30   56 1
    59   31   32 1
    60   31   57 1
    61   31   58 1
    62   32   59 1
    63   33   60 1
    64   33   61 1
@<TRIPOS>MOLECULE
ZINC28826085
   62    64     0     0     0
SMALL
USER_CHARGES
(NZ)-N-[amino-(3-hydroxypropylamino)methylene]-2-[4-(2-chlorophenyl)-2-(4-propoxyphenyl)-3-thienyl]acetamide
@<TRIPOS>ATOM
      1 C1          5.2801   11.6697    7.0723 C.3       1 <0>        -0.1532
      2 C2          6.1708   10.5662    6.4979 C.3       1 <0>        -0.1264
      3 C3          5.3839    9.7649    5.4588 C.3       1 <0>         0.0557
      4 O1          6.2158    8.7343    4.9223 O.3       1 <0>        -0.3104
      5 C4          5.6652    7.9254    3.9791 C.ar      1 <0>         0.1492
      6 C5          6.4194    6.9042    3.4171 C.ar      1 <0>        -0.1480
      7 C6          5.8645    6.0814    2.4599 C.ar      1 <0>        -0.0527
      8 C7          4.5428    6.2763    2.0561 C.ar      1 <0>        -0.0632
      9 C8          3.7897    7.3077    2.6193 C.ar      1 <0>        -0.0626
     10 C9          4.3503    8.1229    3.5798 C.ar      1 <0>        -0.2080
     11 C10         3.9437    5.3963    1.0299 C.2       1 <0>        -0.0798
     12 C11         2.7548    4.7247    1.0636 C.2       1 <0>        -0.1019
     13 C12         2.3976    3.9453   -0.0278 C.2       1 <0>        -0.0770
     14 C13         3.2462    3.8895   -1.0998 C.2       1 <0>        -0.1536
     15 S1          4.5855    4.9453   -0.5734 S.3       1 <0>         0.1113
     16 C14         1.1186    3.1928   -0.0345 C.ar      1 <0>        -0.0282
     17 C15         1.1271    1.7996   -0.0584 C.ar      1 <0>        -0.0938
     18 C16        -0.0652    1.1046   -0.0641 C.ar      1 <0>        -0.1099
     19 C17        -1.2679    1.7882   -0.0520 C.ar      1 <0>        -0.1025
     20 C18        -1.2833    3.1707   -0.0225 C.ar      1 <0>        -0.1068
     21 C19        -0.0961    3.8770   -0.0165 C.ar      1 <0>        -0.0390
     22 Cl1        -0.1165    5.6127    0.0127 Cl        1 <0>        -0.0555
     23 C20         1.8507    4.8238    2.2652 C.3       1 <0>        -0.0882
     24 C21         2.2834    3.8208    3.3034 C.2       1 <0>         0.5478
     25 O2          3.2345    3.0953    3.0883 O.2       1 <0>        -0.4630
     26 N1          1.6238    3.7295    4.4564 N.am      1 <0>        -0.6597
     27 C22         2.0717    2.9291    5.4154 C.cat     1 <0>         0.7220
     28 N2          1.4608    2.9169    6.6330 N.pl3     1 <0>        -0.8304
     29 N3          3.1424    2.1197    5.1824 N.pl3     1 <0>        -0.6688
     30 C23         3.5614    1.1491    6.1966 C.3       1 <0>         0.0850
     31 C24         4.7782    0.3733    5.6882 C.3       1 <0>        -0.1347
     32 C25         5.2158   -0.6403    6.7474 C.3       1 <0>         0.0907
     33 O3          6.3523   -1.3649    6.2725 O.3       1 <0>        -0.6024
     34 H1          5.8458   12.2458    7.8194 H         1 <0>         0.0696
     35 H2          4.3978   11.2177    7.5490 H         1 <0>         0.0572
     36 H3          4.9564   12.3388    6.2615 H         1 <0>         0.0601
     37 H4          7.0531   11.0182    6.0212 H         1 <0>         0.0778
     38 H5          6.4945    9.8970    7.3087 H         1 <0>         0.0748
     39 H6          4.5016    9.3130    5.9356 H         1 <0>         0.0626
     40 H7          5.0601   10.4341    4.6480 H         1 <0>         0.0675
     41 H8          7.4422    6.7542    3.7298 H         1 <0>         0.1392
     42 H9          6.4519    5.2875    2.0229 H         1 <0>         0.1350
     43 H10         2.7682    7.4648    2.3060 H         1 <0>         0.1300
     44 H11         3.7669    8.9186    4.0191 H         1 <0>         0.1355
     45 H12         3.1345    3.3457   -2.0262 H         1 <0>         0.1928
     46 H13         2.0651    1.2645   -0.0728 H         1 <0>         0.1340
     47 H14        -0.0594    0.0248   -0.0827 H         1 <0>         0.1337
     48 H15        -2.1984    1.2399   -0.0610 H         1 <0>         0.1368
     49 H16        -2.2251    3.6992   -0.0085 H         1 <0>         0.1392
     50 H17         1.9115    5.8378    2.6872 H         1 <0>         0.1293
     51 H18         0.8142    4.6142    1.9625 H         1 <0>         0.1289
     52 H19         1.8320    2.2534    7.4280 H         1 <0>         0.4671
     53 H20         3.6924    2.1949    4.2327 H         1 <0>         0.4661
     54 H21         3.8254    1.6786    7.1239 H         1 <0>         0.0896
     55 H22         2.7372    0.4486    6.3964 H         1 <0>         0.0928
     56 H23         4.5142   -0.1562    4.7609 H         1 <0>         0.0867
     57 H24         5.6024    1.0738    5.4884 H         1 <0>         0.0865
     58 H25         5.4798   -0.1107    7.6747 H         1 <0>         0.0478
     59 H26         4.3916   -1.3408    6.9472 H         1 <0>         0.0478
     60 H27         6.8109   -2.1424    6.9012 H         1 <0>         0.4250
     61 H28         0.7076    4.3175    4.6140 H         1 <0>         0.4795
     62 H29         0.5963    3.5705    6.8212 H         1 <0>         0.4645
@<TRIPOS>BOND
     1    1    2 1
     2    1   34 1
     3    1   35 1
     4    1   36 1
     5    2    3 1
     6    2   37 1
     7    2   38 1
     8    3    4 1
     9    3   39 1
    10    3   40 1
    11    4    5 1
    12    5   10 ar
    13    5    6 ar
    14    6    7 ar
    15    6   41 1
    16    7    8 ar
    17    7   42 1
    18    8    9 ar
    19    8   11 1
    20    9   10 ar
    21    9   43 1
    22   10   44 1
    23   11   15 1
    24   11   12 2
    25   12   13 1
    26   12   23 1
    27   13   14 2
    28   13   16 1
    29   14   15 1
    30   14   45 1
    31   16   21 ar
    32   16   17 ar
    33   17   18 ar
    34   17   46 1
    35   18   19 ar
    36   18   47 1
    37   19   20 ar
    38   19   48 1
    39   20   21 ar
    40   20   49 1
    41   21   22 1
    42   23   24 1
    43   23   50 1
    44   23   51 1
    45   24   25 2
    46   24   26 am
    47   26   27 1
    48   26   61 1
    49   27   28 2
    50   27   29 1
    51   28   52 1
    52   28   62 1
    53   29   30 1
    54   29   53 1
    55   30   31 1
    56   30   54 1
    57   30   55 1
    58   31   32 1
    59   31   56 1
    60   31   57 1
    61   32   33 1
    62   32   58 1
    63   32   59 1
    64   33   60 1
@<TRIPOS>MOLECULE
ZINC28826085
   61    63     0     0     0
SMALL
USER_CHARGES

@<TRIPOS>ATOM
      1 C1          0.3315   -0.1048    0.4897 C.3       1 <0>        -0.1511
      2 C2         -0.7857   -0.1791    1.5323 C.3       1 <0>        -0.1237
      3 C3         -1.8412   -1.1892    1.0777 C.3       1 <0>         0.0571
      4 O1         -2.8847   -1.2586    2.0516 O.3       1 <0>        -0.3137
      5 C4         -3.9086   -2.1157    1.7987 C.ar      1 <0>         0.1383
      6 C5         -3.9031   -2.8776    0.6380 C.ar      1 <0>        -0.2053
      7 C6         -4.9402   -3.7479    0.3776 C.ar      1 <0>        -0.0596
      8 C7         -5.9964   -3.8628    1.2829 C.ar      1 <0>        -0.0420
      9 C8         -5.9980   -3.0954    2.4487 C.ar      1 <0>        -0.0586
     10 C9         -4.9545   -2.2312    2.7044 C.ar      1 <0>        -0.1490
     11 C10        -7.1109   -4.7946    1.0072 C.2       1 <0>        -0.1009
     12 C11        -7.0592   -6.1084    0.6373 C.2       1 <0>        -0.0670
     13 C12        -8.2500   -6.7909    0.4311 C.2       1 <0>        -0.0690
     14 C13        -9.4295   -6.1198    0.6068 C.2       1 <0>        -0.1619
     15 S1         -8.8685   -4.4929    1.0803 S.3       1 <0>         0.0678
     16 C14        -8.2441   -8.2189    0.0279 C.ar      1 <0>        -0.0190
     17 C15        -8.7357   -9.1925    0.8951 C.ar      1 <0>        -0.0877
     18 C16        -8.7279  -10.5192    0.5151 C.ar      1 <0>        -0.1122
     19 C17        -8.2333  -10.8841   -0.7243 C.ar      1 <0>        -0.1057
     20 C18        -7.7440   -9.9228   -1.5898 C.ar      1 <0>        -0.1089
     21 C19        -7.7520   -8.5911   -1.2225 C.ar      1 <0>        -0.0274
     22 Cl1        -7.1447   -7.3843   -2.3127 Cl        1 <0>        -0.0620
     23 C20        -5.7345   -6.8035    0.4559 C.3       1 <0>        -0.0937
     24 C21        -5.3290   -7.4579    1.7515 C.2       1 <0>         0.5212
     25 O2         -6.0021   -7.2963    2.7506 O.2       1 <0>        -0.5362
     26 N1         -4.2335   -8.2129    1.8017 N.2       1 <0>        -0.7011
     27 C22        -3.3062   -7.9765    2.7210 C.2       1 <0>         0.6996
     28 N2         -3.4097   -6.8833    3.5274 N.pl3     1 <0>        -0.8612
     29 N3         -2.2508   -8.8268    2.8585 N.pl3     1 <0>        -0.7042
     30 C23        -1.2271   -8.5658    3.8734 C.3       1 <0>         0.1147
     31 C24        -0.1623   -9.6630    3.8178 C.3       1 <0>        -0.1329
     32 C25         0.9068   -9.3904    4.8777 C.3       1 <0>         0.0796
     33 O3          1.9013  -10.4152    4.8258 O.3       1 <0>        -0.5731
     34 H1          1.0835    0.6148    0.8135 H         1 <0>         0.0661
     35 H2          0.7918   -1.0867    0.3797 H         1 <0>         0.0576
     36 H3         -0.0848    0.2105   -0.4671 H         1 <0>         0.0584
     37 H4         -0.3694   -0.4944    2.4891 H         1 <0>         0.0735
     38 H5         -1.2460    0.8028    1.6422 H         1 <0>         0.0746
     39 H6         -2.2575   -0.8739    0.1210 H         1 <0>         0.0639
     40 H7         -1.3809   -2.1711    0.9678 H         1 <0>         0.0623
     41 H8         -3.0855   -2.7881   -0.0619 H         1 <0>         0.1317
     42 H9         -4.9356   -4.3397   -0.5258 H         1 <0>         0.1296
     43 H10        -6.8134   -3.1815    3.1517 H         1 <0>         0.1335
     44 H11        -4.9528   -1.6403    3.6084 H         1 <0>         0.1356
     45 H12       -10.4403   -6.4827    0.4928 H         1 <0>         0.1876
     46 H13        -9.1218   -8.9094    1.8632 H         1 <0>         0.1312
     47 H14        -9.1084  -11.2744    1.1869 H         1 <0>         0.1299
     48 H15        -8.2290  -11.9236   -1.0170 H         1 <0>         0.1324
     49 H16        -7.3587  -10.2133   -2.5560 H         1 <0>         0.1349
     50 H17        -5.8256   -7.5622   -0.3213 H         1 <0>         0.1058
     51 H18        -4.9783   -6.0743    0.1650 H         1 <0>         0.0983
     52 H19        -4.1753   -6.2931    3.4483 H         1 <0>         0.4212
     53 H20        -2.1772   -9.6052    2.2843 H         1 <0>         0.4252
     54 H21        -0.7627   -7.5987    3.6806 H         1 <0>         0.0712
     55 H22        -1.6885   -8.5569    4.8609 H         1 <0>         0.0727
     56 H23        -0.6268  -10.6301    4.0105 H         1 <0>         0.0831
     57 H24         0.2990   -9.6719    2.8303 H         1 <0>         0.0828
     58 H25         1.3712   -8.4233    4.6850 H         1 <0>         0.0500
     59 H26         0.4455   -9.3815    5.8652 H         1 <0>         0.0504
     60 H27         2.6124  -10.3063    5.4720 H         1 <0>         0.3858
     61 H28        -2.7177   -6.6952    4.1806 H         1 <0>         0.3991
@<TRIPOS>BOND
     1    1    2 1
     2    1   34 1
     3    1   35 1
     4    1   36 1
     5    2    3 1
     6    2   37 1
     7    2   38 1
     8    3    4 1
     9    3   39 1
    10    3   40 1
    11    4    5 1
    12    5   10 ar
    13    5    6 ar
    14    6    7 ar
    15    6   41 1
    16    7    8 ar
    17    7   42 1
    18    8    9 ar
    19    8   11 1
    20    9   10 ar
    21    9   43 1
    22   10   44 1
    23   11   15 1
    24   11   12 2
    25   12   13 1
    26   12   23 1
    27   13   14 2
    28   13   16 1
    29   14   15 1
    30   14   45 1
    31   16   21 ar
    32   16   17 ar
    33   17   18 ar
    34   17   46 1
    35   18   19 ar
    36   18   47 1
    37   19   20 ar
    38   19   48 1
    39   20   21 ar
    40   20   49 1
    41   21   22 1
    42   23   24 1
    43   23   50 1
    44   23   51 1
    45   24   26 1
    46   24   25 2
    47   26   27 2
    48   27   28 1
    49   27   29 1
    50   28   52 1
    51   28   61 1
    52   29   30 1
    53   29   53 1
    54   30   31 1
    55   30   54 1
    56   30   55 1
    57   31   32 1
    58   31   56 1
    59   31   57 1
    60   32   33 1
    61   32   58 1
    62   32   59 1
    63   33   60 1
@<TRIPOS>MOLECULE
ZINC28826085
   61    63     0     0     0
SMALL
USER_CHARGES

@<TRIPOS>ATOM
      1 C1          0.3608   -0.1179    0.5030 C.3       1 <0>        -0.1508
      2 C2         -0.7594   -0.1892    1.5427 C.3       1 <0>        -0.1237
      3 C3         -1.8169   -1.1957    1.0848 C.3       1 <0>         0.0575
      4 O1         -2.8632   -1.2623    2.0559 O.3       1 <0>        -0.3124
      5 C4         -3.8891   -2.1160    1.7998 C.ar      1 <0>         0.1393
      6 C5         -3.8830   -2.8772    0.6388 C.ar      1 <0>        -0.2059
      7 C6         -4.9223   -3.7442    0.3752 C.ar      1 <0>        -0.0600
      8 C7         -5.9811   -3.8561    1.2776 C.ar      1 <0>        -0.0428
      9 C8         -5.9833   -3.0894    2.4439 C.ar      1 <0>        -0.0583
     10 C9         -4.9378   -2.2286    2.7027 C.ar      1 <0>        -0.1474
     11 C10        -7.0979   -4.7843    0.9985 C.2       1 <0>        -0.0997
     12 C11        -7.0494   -6.0980    0.6278 C.2       1 <0>        -0.0678
     13 C12        -8.2418   -6.7765    0.4182 C.2       1 <0>        -0.0690
     14 C13        -9.4196   -6.1019    0.5914 C.2       1 <0>        -0.1624
     15 S1         -8.8547   -4.4771    1.0674 S.3       1 <0>         0.0680
     16 C14        -8.2394   -8.2044    0.0141 C.ar      1 <0>        -0.0185
     17 C15        -8.7362   -9.1770    0.8795 C.ar      1 <0>        -0.0877
     18 C16        -8.7316  -10.5035    0.4986 C.ar      1 <0>        -0.1122
     19 C17        -8.2351  -10.8690   -0.7399 C.ar      1 <0>        -0.1060
     20 C18        -7.7406   -9.9088   -1.6035 C.ar      1 <0>        -0.1091
     21 C19        -7.7454   -8.5772   -1.2354 C.ar      1 <0>        -0.0275
     22 Cl1        -7.1316   -7.3717   -2.3233 Cl        1 <0>        -0.0618
     23 C20        -5.7264   -6.7972    0.4494 C.3       1 <0>        -0.0936
     24 C21        -5.3263   -7.4537    1.7455 C.2       1 <0>         0.5200
     25 O2         -6.0023   -7.2921    2.7426 O.2       1 <0>        -0.5352
     26 N1         -4.2324   -8.2108    1.7984 N.2       1 <0>        -0.7003
     27 C22        -3.3077   -7.9771    2.7210 C.2       1 <0>         0.6981
     28 N2         -2.2549   -8.8302    2.8616 N.pl3     1 <0>        -0.8258
     29 N3         -3.4111   -6.8841    3.5275 N.pl3     1 <0>        -0.7375
     30 C23        -2.3660   -6.6002    4.5141 C.3       1 <0>         0.1094
     31 C24        -2.7228   -5.3263    5.2828 C.3       1 <0>        -0.1331
     32 C25        -1.6313   -5.0299    6.3132 C.3       1 <0>         0.0820
     33 O3         -1.9645   -3.8401    7.0311 O.3       1 <0>        -0.5710
     34 H1          1.1141    0.5991    0.8292 H         1 <0>         0.0659
     35 H2          0.8182   -1.1012    0.3938 H         1 <0>         0.0573
     36 H3         -0.0520    0.1992   -0.4547 H         1 <0>         0.0583
     37 H4         -0.3466   -0.5063    2.5004 H         1 <0>         0.0736
     38 H5         -1.2169    0.7941    1.6519 H         1 <0>         0.0746
     39 H6         -2.2297   -0.8786    0.1271 H         1 <0>         0.0634
     40 H7         -1.3594   -2.1790    0.9756 H         1 <0>         0.0617
     41 H8         -3.0633   -2.7900   -0.0590 H         1 <0>         0.1313
     42 H9         -4.9172   -4.3355   -0.5285 H         1 <0>         0.1293
     43 H10        -6.8009   -3.1733    3.1446 H         1 <0>         0.1331
     44 H11        -4.9366   -1.6383    3.6071 H         1 <0>         0.1359
     45 H12       -10.4313   -6.4615    0.4746 H         1 <0>         0.1875
     46 H13        -9.1238   -8.8933    1.8468 H         1 <0>         0.1313
     47 H14        -9.1161  -11.2579    1.1690 H         1 <0>         0.1299
     48 H15        -8.2333  -11.9084   -1.0332 H         1 <0>         0.1323
     49 H16        -7.3539  -10.1998   -2.5690 H         1 <0>         0.1348
     50 H17        -5.8180   -7.5550   -0.3287 H         1 <0>         0.1057
     51 H18        -4.9672   -6.0701    0.1609 H         1 <0>         0.0982
     52 H19        -2.1812   -9.6084    2.2873 H         1 <0>         0.4245
     53 H20        -4.1767   -6.2937    3.4485 H         1 <0>         0.4223
     54 H21        -2.2875   -7.4349    5.2107 H         1 <0>         0.0715
     55 H22        -1.4127   -6.4618    4.0040 H         1 <0>         0.0706
     56 H23        -2.8012   -4.4916    4.5862 H         1 <0>         0.0803
     57 H24        -3.6761   -5.4647    5.7929 H         1 <0>         0.0813
     58 H25        -1.5529   -5.8646    7.0097 H         1 <0>         0.0493
     59 H26        -0.6780   -4.8915    5.8031 H         1 <0>         0.0486
     60 H27        -1.3150   -3.5911    7.7029 H         1 <0>         0.3842
     61 H28        -1.5789   -8.6593    3.5359 H         1 <0>         0.4087
@<TRIPOS>BOND
     1    1    2 1
     2    1   34 1
     3    1   35 1
     4    1   36 1
     5    2    3 1
     6    2   37 1
     7    2   38 1
     8    3    4 1
     9    3   39 1
    10    3   40 1
    11    4    5 1
    12    5   10 ar
    13    5    6 ar
    14    6    7 ar
    15    6   41 1
    16    7    8 ar
    17    7   42 1
    18    8    9 ar
    19    8   11 1
    20    9   10 ar
    21    9   43 1
    22   10   44 1
    23   11   15 1
    24   11   12 2
    25   12   13 1
    26   12   23 1
    27   13   14 2
    28   13   16 1
    29   14   15 1
    30   14   45 1
    31   16   21 ar
    32   16   17 ar
    33   17   18 ar
    34   17   46 1
    35   18   19 ar
    36   18   47 1
    37   19   20 ar
    38   19   48 1
    39   20   21 ar
    40   20   49 1
    41   21   22 1
    42   23   24 1
    43   23   50 1
    44   23   51 1
    45   24   26 1
    46   24   25 2
    47   26   27 2
    48   27   28 1
    49   27   29 1
    50   28   52 1
    51   28   61 1
    52   29   30 1
    53   29   53 1
    54   30   31 1
    55   30   54 1
    56   30   55 1
    57   31   32 1
    58   31   56 1
    59   31   57 1
    60   32   33 1
    61   32   58 1
    62   32   59 1
    63   33   60 1
@<TRIPOS>MOLECULE
ZINC14711629
   62    64     0     0     0
SMALL
USER_CHARGES
(2S)-2-(2,4-dihydroxyphenyl)-7-hydroxy-8-[(2R)-2-isopropenyl-5-methyl-hex-4-enyl]-5-methoxy-chroman-4-one
@<TRIPOS>ATOM
      1 C1          6.6800    4.2333    3.4176 C.3       1 <0>        -0.1174
      2 C2          7.4033    3.5596    2.2801 C.2       1 <0>        -0.1366
      3 C3          7.2441    2.2762    2.0712 C.2       1 <0>        -0.1589
      4 C4          6.2523    1.4960    2.8952 C.3       1 <0>        -0.0856
      5 C5          5.2804    0.7654    1.9664 C.3       1 <0>        -0.0382
      6 H1          4.8150    1.4829    1.2905 H         1 <0>         0.0736
      7 C6          4.1994    0.0751    2.8005 C.3       1 <0>        -0.0520
      8 C7          3.1601   -0.5178    1.8843 C.ar      1 <0>        -0.1829
      9 C8          3.2453   -1.8540    1.5133 C.ar      1 <0>         0.2289
     10 C9          2.2962   -2.4174    0.6698 C.ar      1 <0>        -0.2820
     11 C10         1.2529   -1.6468    0.1876 C.ar      1 <0>         0.2319
     12 C11         1.1641   -0.2953    0.5555 C.ar      1 <0>        -0.2939
     13 C12         2.1246    0.2703    1.4149 C.ar      1 <0>         0.2346
     14 O1          2.0417    1.5693    1.7867 O.3       1 <0>        -0.2927
     15 C13         1.3021    2.4716    0.9643 C.3       1 <0>         0.1493
     16 H2          1.8153    2.5989    0.0111 H         1 <0>         0.0973
     17 C14        -0.1020    1.9002    0.7180 C.3       1 <0>        -0.1816
     18 C15         0.0746    0.5478    0.0512 C.2       1 <0>         0.4029
     19 O2         -0.6484    0.1829   -0.8530 O.2       1 <0>        -0.4277
     20 C16         1.1880    3.8051    1.6569 C.ar      1 <0>        -0.1268
     21 C17         1.2570    3.8753    3.0353 C.ar      1 <0>        -0.0581
     22 C18         1.1584    5.0970    3.6729 C.ar      1 <0>        -0.1536
     23 C19         0.9785    6.2559    2.9306 C.ar      1 <0>         0.1331
     24 C20         0.9034    6.1875    1.5482 C.ar      1 <0>        -0.1712
     25 C21         1.0083    4.9608    0.9104 C.ar      1 <0>         0.1415
     26 O3          0.9355    4.8906   -0.4448 O.3       1 <0>        -0.4929
     27 O4          0.8756    7.4567    3.5586 O.3       1 <0>        -0.4959
     28 O5          0.3230   -2.1936   -0.6342 O.3       1 <0>        -0.2858
     29 C22         0.4804   -3.5751   -0.9638 C.3       1 <0>         0.0209
     30 O6          4.2662   -2.6163    1.9794 O.3       1 <0>        -0.4813
     31 C23         6.0314   -0.2661    1.1645 C.2       1 <0>        -0.0949
     32 C24         5.9490   -0.2665   -0.1429 C.2       1 <0>        -0.2047
     33 C25         6.8771   -1.2970    1.8666 C.3       1 <0>        -0.1119
     34 C26         8.3098    4.3622    1.3829 C.3       1 <0>        -0.1170
     35 H3          7.0354    3.8281    4.3650 H         1 <0>         0.0645
     36 H4          6.8724    5.3057    3.3861 H         1 <0>         0.0576
     37 H5          5.6090    4.0535    3.3245 H         1 <0>         0.0664
     38 H6          7.8235    1.7772    1.3086 H         1 <0>         0.1067
     39 H7          5.6967    2.1791    3.5378 H         1 <0>         0.0730
     40 H8          6.7829    0.7692    3.5102 H         1 <0>         0.0715
     41 H9          3.7288    0.8039    3.4603 H         1 <0>         0.0770
     42 H10         4.6516   -0.7168    3.3976 H         1 <0>         0.0759
     43 H11         2.3724   -3.4578    0.3904 H         1 <0>         0.1429
     44 H12        -0.6166    2.5230    0.1286 H         1 <0>         0.0972
     45 H13        -0.6258    1.7810    1.6664 H         1 <0>         0.1139
     46 H14         1.3925    2.9741    3.6149 H         1 <0>         0.1406
     47 H15         1.2166    5.1498    4.7500 H         1 <0>         0.1361
     48 H16         0.7631    7.0881    0.9689 H         1 <0>         0.1402
     49 H17         0.0385    4.7678   -0.7847 H         1 <0>         0.3953
     50 H18        -0.0300    7.7016    3.7931 H         1 <0>         0.3957
     51 H19         0.4523   -4.1716   -0.0520 H         1 <0>         0.0598
     52 H20        -0.3282   -3.8851   -1.6258 H         1 <0>         0.1064
     53 H21         1.4370   -3.7223   -1.4650 H         1 <0>         0.0609
     54 H22         4.0738   -3.0630    2.8152 H         1 <0>         0.3966
     55 H23         6.4872   -1.0058   -0.7176 H         1 <0>         0.0918
     56 H24         5.3429    0.4723   -0.6461 H         1 <0>         0.0881
     57 H25         6.7517   -1.1968    2.9447 H         1 <0>         0.0577
     58 H26         6.5665   -2.2946    1.5558 H         1 <0>         0.0720
     59 H27         7.9249   -1.1454    1.6070 H         1 <0>         0.0565
     60 H28         8.7410    3.7092    0.6241 H         1 <0>         0.0588
     61 H29         7.7354    5.1519    0.8987 H         1 <0>         0.0645
     62 H30         9.1088    4.8060    1.9768 H         1 <0>         0.0624
@<TRIPOS>BOND
     1    1    2 1
     2    1   35 1
     3    1   36 1
     4    1   37 1
     5    2    3 2
     6    2   34 1
     7    3    4 1
     8    3   38 1
     9    4    5 1
    10    4   39 1
    11    4   40 1
    12    5    6 1
    13    5    7 1
    14    5   31 1
    15    7    8 1
    16    7   41 1
    17    7   42 1
    18    8   13 ar
    19    8    9 ar
    20    9   10 ar
    21    9   30 1
    22   10   11 ar
    23   10   43 1
    24   11   12 ar
    25   11   28 1
    26   12   18 1
    27   12   13 ar
    28   13   14 1
    29   14   15 1
    30   15   16 1
    31   15   17 1
    32   15   20 1
    33   17   18 1
    34   17   44 1
    35   17   45 1
    36   18   19 2
    37   20   25 ar
    38   20   21 ar
    39   21   22 ar
    40   21   46 1
    41   22   23 ar
    42   22   47 1
    43   23   24 ar
    44   23   27 1
    45   24   25 ar
    46   24   48 1
    47   25   26 1
    48   26   49 1
    49   27   50 1
    50   28   29 1
    51   29   51 1
    52   29   52 1
    53   29   53 1
    54   30   54 1
    55   31   32 2
    56   31   33 1
    57   32   55 1
    58   32   56 1
    59   33   57 1
    60   33   58 1
    61   33   59 1
    62   34   60 1
    63   34   61 1
    64   34   62 1
@<TRIPOS>MOLECULE
ZINC14711632
   62    64     0     0     0
SMALL
USER_CHARGES
(2S)-2-(2,4-dihydroxyphenyl)-7-hydroxy-8-[(2S)-2-isopropenyl-5-methyl-hex-4-enyl]-5-methoxy-chroman-4-one
@<TRIPOS>ATOM
      1 C1          9.9905    1.1899    2.6220 C.3       1 <0>        -0.1193
      2 C2          9.5228    1.9402    1.4016 C.2       1 <0>        -0.1380
      3 C3          8.2449    2.0013    1.1201 C.2       1 <0>        -0.1580
      4 C4          7.2510    1.2423    1.9610 C.3       1 <0>        -0.0858
      5 C5          6.3843    0.3632    1.0571 C.3       1 <0>        -0.0379
      6 H1          7.0248   -0.2805    0.4541 H         1 <0>         0.0775
      7 C6          5.4604   -0.4996    1.9189 C.3       1 <0>        -0.0519
      8 C7          4.7037   -1.4601    1.0379 C.ar      1 <0>        -0.1812
      9 C8          5.2672   -2.6857    0.7056 C.ar      1 <0>         0.2193
     10 C9          4.5844   -3.5834   -0.1054 C.ar      1 <0>        -0.2857
     11 C10         3.3304   -3.2610   -0.5935 C.ar      1 <0>         0.2320
     12 C11         2.7578   -2.0225   -0.2646 C.ar      1 <0>        -0.2934
     13 C12         3.4505   -1.1183    0.5623 C.ar      1 <0>         0.2442
     14 O1          2.9014    0.0726    0.8985 O.3       1 <0>        -0.2863
     15 C13         1.8808    0.6170    0.0622 C.3       1 <0>         0.1497
     16 H2          2.3086    0.8916   -0.9019 H         1 <0>         0.0974
     17 C14         0.7802   -0.4336   -0.1460 C.3       1 <0>        -0.1827
     18 C15         1.4343   -1.6501   -0.7762 C.2       1 <0>         0.4035
     19 O2          0.8904   -2.2819   -1.6584 O.2       1 <0>        -0.4282
     20 C16         1.2917    1.8391    0.7183 C.ar      1 <0>        -0.1243
     21 C17         1.3483    1.9804    2.0918 C.ar      1 <0>        -0.0582
     22 C18         0.8142    3.1024    2.6957 C.ar      1 <0>        -0.1532
     23 C19         0.2093    4.0853    1.9248 C.ar      1 <0>         0.1327
     24 C20         0.1463    3.9432    0.5474 C.ar      1 <0>        -0.1711
     25 C21         0.6881    2.8190   -0.0568 C.ar      1 <0>         0.1405
     26 O3          0.6283    2.6771   -1.4070 O.3       1 <0>        -0.4929
     27 O4         -0.3212    5.1859    2.5199 O.3       1 <0>        -0.4961
     28 O5          2.6593   -4.1355   -1.3835 O.3       1 <0>        -0.2857
     29 C22         3.3069   -5.3757   -1.6744 C.3       1 <0>         0.0208
     30 O6          6.4974   -3.0092    1.1777 O.3       1 <0>        -0.4869
     31 C23         5.5553    1.2372    0.1515 C.2       1 <0>        -0.0964
     32 C24         5.5644    1.0343   -1.1426 C.2       1 <0>        -0.2078
     33 C25         4.7159    2.3446    0.7348 C.3       1 <0>        -0.1112
     34 C26        10.5252    2.6203    0.5051 C.3       1 <0>        -0.1174
     35 H3         10.0902    0.1314    2.3816 H         1 <0>         0.0655
     36 H4         10.9558    1.5823    2.9420 H         1 <0>         0.0594
     37 H5          9.2639    1.3133    3.4250 H         1 <0>         0.0651
     38 H6          7.9036    2.5956    0.2854 H         1 <0>         0.1068
     39 H7          6.6167    1.9472    2.4986 H         1 <0>         0.0710
     40 H8          7.7837    0.6149    2.6755 H         1 <0>         0.0734
     41 H9          4.7548    0.1405    2.4485 H         1 <0>         0.0794
     42 H10         6.0550   -1.0599    2.6405 H         1 <0>         0.0741
     43 H11         5.0324   -4.5339   -0.3547 H         1 <0>         0.1429
     44 H12         0.0720   -0.0602   -0.7451 H         1 <0>         0.0965
     45 H13         0.3392   -0.7044    0.8133 H         1 <0>         0.1135
     46 H14         1.8146    1.2145    2.6938 H         1 <0>         0.1405
     47 H15         0.8632    3.2124    3.7690 H         1 <0>         0.1356
     48 H16        -0.3243    4.7068   -0.0541 H         1 <0>         0.1396
     49 H17        -0.1645    2.2201   -1.7197 H         1 <0>         0.3950
     50 H18        -1.2500    5.0883    2.7705 H         1 <0>         0.3955
     51 H19         3.5017   -5.9106   -0.7449 H         1 <0>         0.0597
     52 H20         2.6635   -5.9803   -2.3136 H         1 <0>         0.1065
     53 H21         4.2494   -5.1821   -2.1866 H         1 <0>         0.0608
     54 H22         6.4815   -3.5336    1.9900 H         1 <0>         0.3994
     55 H23         6.1660    0.2407   -1.5606 H         1 <0>         0.0909
     56 H24         4.9703    1.6606   -1.7916 H         1 <0>         0.0917
     57 H25         5.2757    3.2793    0.7045 H         1 <0>         0.0593
     58 H26         3.7999    2.4507    0.1537 H         1 <0>         0.0600
     59 H27         4.4651    2.1046    1.7680 H         1 <0>         0.0638
     60 H28        10.6848    3.6425    0.8481 H         1 <0>         0.0639
     61 H29        11.4687    2.0753    0.5359 H         1 <0>         0.0616
     62 H30        10.1473    2.6349   -0.5172 H         1 <0>         0.0605
@<TRIPOS>BOND
     1    1    2 1
     2    1   35 1
     3    1   36 1
     4    1   37 1
     5    2    3 2
     6    2   34 1
     7    3    4 1
     8    3   38 1
     9    4    5 1
    10    4   39 1
    11    4   40 1
    12    5    6 1
    13    5    7 1
    14    5   31 1
    15    7    8 1
    16    7   41 1
    17    7   42 1
    18    8   13 ar
    19    8    9 ar
    20    9   10 ar
    21    9   30 1
    22   10   11 ar
    23   10   43 1
    24   11   12 ar
    25   11   28 1
    26   12   18 1
    27   12   13 ar
    28   13   14 1
    29   14   15 1
    30   15   16 1
    31   15   17 1
    32   15   20 1
    33   17   18 1
    34   17   44 1
    35   17   45 1
    36   18   19 2
    37   20   25 ar
    38   20   21 ar
    39   21   22 ar
    40   21   46 1
    41   22   23 ar
    42   22   47 1
    43   23   24 ar
    44   23   27 1
    45   24   25 ar
    46   24   48 1
    47   25   26 1
    48   26   49 1
    49   27   50 1
    50   28   29 1
    51   29   51 1
    52   29   52 1
    53   29   53 1
    54   30   54 1
    55   31   32 2
    56   31   33 1
    57   32   55 1
    58   32   56 1
    59   33   57 1
    60   33   58 1
    61   33   59 1
    62   34   60 1
    63   34   61 1
    64   34   62 1
@<TRIPOS>MOLECULE
ZINC26179223
  101   103     0     0     0
SMALL
USER_CHARGES

@<TRIPOS>ATOM
      1 C1          0.5596    3.9644   -2.2977 C.3       1 <0>        -0.1644
      2 C2          0.7418    2.7561   -1.3769 C.3       1 <0>        -0.0910
      3 C3          1.9817    2.9622   -0.5044 C.3       1 <0>        -0.1489
      4 C4         -0.4911    2.6053   -0.4835 C.3       1 <0>        -0.1174
      5 C5         -1.6978    2.2181   -1.3408 C.3       1 <0>         0.1356
      6 H1         -1.4556    1.3342   -1.9310 H         1 <0>         0.1094
      7 C6         -2.8736    1.9186   -0.4470 C.2       1 <0>         0.5148
      8 O1         -3.7327    2.7570   -0.2739 O.2       1 <0>        -0.5199
      9 N1         -2.9704    0.7192    0.1599 N.am      1 <0>        -0.7041
     10 C7         -4.1135    0.4281    1.0288 C.3       1 <0>         0.1372
     11 H2         -5.0047    0.9142    0.6319 H         1 <0>         0.1163
     12 C8         -4.3395   -1.0841    1.0847 C.3       1 <0>        -0.0837
     13 C9         -4.7388   -1.5831   -0.2801 C.ar      1 <0>        -0.0864
     14 C10        -6.0735   -1.6245   -0.6376 C.ar      1 <0>        -0.1140
     15 C11        -6.4398   -2.0823   -1.8895 C.ar      1 <0>        -0.1155
     16 C12        -5.4714   -2.4982   -2.7840 C.ar      1 <0>        -0.1163
     17 C13        -4.1367   -2.4560   -2.4267 C.ar      1 <0>        -0.1109
     18 C14        -3.7701   -1.9942   -1.1764 C.ar      1 <0>        -0.1080
     19 C15        -3.8345    0.9459    2.4163 C.2       1 <0>         0.5070
     20 O2         -2.7843    1.5033    2.6557 O.2       1 <0>        -0.5290
     21 N2         -4.7521    0.7897    3.3910 N.am      1 <0>        -0.8535
     22 N3         -2.0356    3.3264   -2.2373 N.am      1 <0>        -0.7017
     23 C16        -2.6401    3.0792   -3.4163 C.2       1 <0>         0.5264
     24 O3         -2.9884    1.9512   -3.6945 O.2       1 <0>        -0.5302
     25 C17        -2.8831    4.2043   -4.3890 C.3       1 <0>        -0.0915
     26 H3         -2.8388    5.1569   -3.8611 H         1 <0>         0.0985
     27 C18        -4.2641    4.0381   -5.0263 C.3       1 <0>        -0.0677
     28 C19        -5.3278    4.2164   -3.9737 C.ar      1 <0>        -0.0904
     29 C20        -5.8749    3.1108   -3.3498 C.ar      1 <0>        -0.0968
     30 C21        -6.8506    3.2743   -2.3843 C.ar      1 <0>        -0.1113
     31 C22        -7.2789    4.5434   -2.0424 C.ar      1 <0>        -0.1187
     32 C23        -6.7312    5.6490   -2.6657 C.ar      1 <0>        -0.1214
     33 C24        -5.7524    5.4857   -3.6282 C.ar      1 <0>        -0.1143
     34 C25        -1.8111    4.1756   -5.4803 C.3       1 <0>        -0.1407
     35 C26        -1.9829    5.3891   -6.3960 C.3       1 <0>         0.1002
     36 H4         -3.0003    5.4083   -6.7867 H         1 <0>         0.1158
     37 C27        -0.9921    5.2954   -7.5581 C.3       1 <0>         0.1403
     38 H5         -1.1223    4.3423   -8.0706 H         1 <0>         0.1027
     39 C28         0.4365    5.3939   -7.0195 C.3       1 <0>        -0.1040
     40 C29         1.4141    5.1791   -8.1461 C.ar      1 <0>        -0.0620
     41 C30         1.8555    3.9035   -8.4443 C.ar      1 <0>        -0.1054
     42 C31         2.7522    3.7064   -9.4777 C.ar      1 <0>        -0.1112
     43 C32         3.2072    4.7848  -10.2132 C.ar      1 <0>        -0.1221
     44 C33         2.7651    6.0603   -9.9155 C.ar      1 <0>        -0.1096
     45 C34         1.8651    6.2569   -8.8848 C.ar      1 <0>        -0.1097
     46 N4         -1.2364    6.3925   -8.4978 N.am      1 <0>        -0.7050
     47 C35        -0.8780    6.2648   -9.7907 C.2       1 <0>         0.6487
     48 O4         -0.3522    5.2397  -10.1770 O.2       1 <0>        -0.5469
     49 O5         -1.1025    7.2730  -10.6543 O.3       1 <0>        -0.3614
     50 C36        -0.6971    7.0691  -12.0093 C.3       1 <0>         0.1386
     51 C37        -1.4371    5.8608  -12.5867 C.3       1 <0>        -0.1851
     52 C38        -1.0309    8.3135  -12.8344 C.3       1 <0>        -0.1417
     53 C39         0.8108    6.8145  -12.0577 C.3       1 <0>        -0.1918
     54 O6         -1.7350    6.5848   -5.6539 O.3       1 <0>        -0.5516
     55 H6          1.4896    4.1571   -2.8326 H         1 <0>         0.0553
     56 H7         -0.2356    3.7585   -3.0142 H         1 <0>         0.0678
     57 H8          0.2950    4.8383   -1.7024 H         1 <0>         0.0552
     58 H9          0.8667    1.8561   -1.9789 H         1 <0>         0.0724
     59 H10         1.8568    3.8623    0.0975 H         1 <0>         0.0559
     60 H11         2.1115    2.1015    0.1516 H         1 <0>         0.0556
     61 H12         2.8600    3.0697   -1.1409 H         1 <0>         0.0570
     62 H13        -0.3088    1.8285    0.2591 H         1 <0>         0.0860
     63 H14        -0.6921    3.5503    0.0210 H         1 <0>         0.0776
     64 H15        -2.2833    0.0487    0.0215 H         1 <0>         0.4019
     65 H16        -3.4193   -1.5777    1.3971 H         1 <0>         0.0864
     66 H17        -5.1319   -1.3069    1.7992 H         1 <0>         0.0934
     67 H18        -6.8301   -1.2996    0.0612 H         1 <0>         0.1205
     68 H19        -7.4826   -2.1153   -2.1685 H         1 <0>         0.1217
     69 H20        -5.7577   -2.8565   -3.7617 H         1 <0>         0.1210
     70 H21        -3.3801   -2.7813   -3.1255 H         1 <0>         0.1218
     71 H22        -2.7271   -1.9577   -0.8987 H         1 <0>         0.1171
     72 H23        -5.5921    0.3439    3.1995 H         1 <0>         0.4011
     73 H24        -4.5726    1.1230    4.2840 H         1 <0>         0.4038
     74 H25        -1.8243    4.2381   -1.9824 H         1 <0>         0.4067
     75 H26        -4.3965    4.7871   -5.8071 H         1 <0>         0.0824
     76 H27        -4.3463    3.0419   -5.4608 H         1 <0>         0.0844
     77 H28        -5.5402    2.1193   -3.6168 H         1 <0>         0.1201
     78 H29        -7.2785    2.4105   -1.8973 H         1 <0>         0.1136
     79 H30        -8.0417    4.6711   -1.2886 H         1 <0>         0.1161
     80 H31        -7.0660    6.6405   -2.3989 H         1 <0>         0.1183
     81 H32        -5.3218    6.3497   -4.1125 H         1 <0>         0.1201
     82 H33        -0.8234    4.2046   -5.0201 H         1 <0>         0.0802
     83 H34        -1.9126    3.2615   -6.0654 H         1 <0>         0.0892
     84 H35         0.5938    6.3813   -6.5852 H         1 <0>         0.0784
     85 H36         0.5899    4.6322   -6.2550 H         1 <0>         0.0867
     86 H37         1.5000    3.0609   -7.8697 H         1 <0>         0.1138
     87 H38         3.0976    2.7098   -9.7103 H         1 <0>         0.1157
     88 H39         3.9083    4.6309  -11.0201 H         1 <0>         0.1149
     89 H40         3.1208    6.9028  -10.4899 H         1 <0>         0.1135
     90 H41         1.5168    7.2529   -8.6547 H         1 <0>         0.1084
     91 H42        -1.6562    7.2108   -8.1894 H         1 <0>         0.4087
     92 H43        -2.5113    6.0421  -12.5522 H         1 <0>         0.0570
     93 H44        -1.1278    5.7052  -13.6202 H         1 <0>         0.0675
     94 H45        -1.1993    4.9742  -11.9989 H         1 <0>         0.0882
     95 H46        -0.5037    9.1743  -12.4231 H         1 <0>         0.0653
     96 H47        -0.7216    8.1579  -13.8679 H         1 <0>         0.0791
     97 H48        -2.1051    8.4949  -12.7999 H         1 <0>         0.0653
     98 H49         1.0486    5.9279  -11.4699 H         1 <0>         0.1023
     99 H50         1.1201    6.6589  -13.0912 H         1 <0>         0.0643
    100 H51         1.3380    7.6753  -11.6463 H         1 <0>         0.0561
    101 H52        -0.8463    6.6361   -5.2760 H         1 <0>         0.3759
@<TRIPOS>BOND
     1    1    2 1
     2    1   55 1
     3    1   56 1
     4    1   57 1
     5    2    3 1
     6    2    4 1
     7    2   58 1
     8    3   59 1
     9    3   60 1
    10    3   61 1
    11    4    5 1
    12    4   62 1
    13    4   63 1
    14    5    6 1
    15    5    7 1
    16    5   22 1
    17    7    8 2
    18    7    9 am
    19    9   10 1
    20    9   64 1
    21   10   11 1
    22   10   12 1
    23   10   19 1
    24   12   13 1
    25   12   65 1
    26   12   66 1
    27   13   18 ar
    28   13   14 ar
    29   14   15 ar
    30   14   67 1
    31   15   16 ar
    32   15   68 1
    33   16   17 ar
    34   16   69 1
    35   17   18 ar
    36   17   70 1
    37   18   71 1
    38   19   20 2
    39   19   21 am
    40   21   72 1
    41   21   73 1
    42   22   23 am
    43   22   74 1
    44   23   24 2
    45   23   25 1
    46   25   26 1
    47   25   27 1
    48   25   34 1
    49   27   28 1
    50   27   75 1
    51   27   76 1
    52   28   33 ar
    53   28   29 ar
    54   29   30 ar
    55   29   77 1
    56   30   31 ar
    57   30   78 1
    58   31   32 ar
    59   31   79 1
    60   32   33 ar
    61   32   80 1
    62   33   81 1
    63   34   35 1
    64   34   82 1
    65   34   83 1
    66   35   36 1
    67   35   37 1
    68   35   54 1
    69   37   38 1
    70   37   39 1
    71   37   46 1
    72   39   40 1
    73   39   84 1
    74   39   85 1
    75   40   45 ar
    76   40   41 ar
    77   41   42 ar
    78   41   86 1
    79   42   43 ar
    80   42   87 1
    81   43   44 ar
    82   43   88 1
    83   44   45 ar
    84   44   89 1
    85   45   90 1
    86   46   47 am
    87   46   91 1
    88   47   48 2
    89   47   49 1
    90   49   50 1
    91   50   51 1
    92   50   52 1
    93   50   53 1
    94   51   92 1
    95   51   93 1
    96   51   94 1
    97   52   95 1
    98   52   96 1
    99   52   97 1
   100   53   98 1
   101   53   99 1
   102   53  100 1
   103   54  101 1
@<TRIPOS>MOLECULE
ZINC01893945
   79    84     0     0     0
SMALL
USER_CHARGES

@<TRIPOS>ATOM
      1 C1         -4.3674  -12.0500   -0.6935 C.ar      1 <0>        -0.1084
      2 C2         -3.2283  -12.4382    0.0076 C.ar      1 <0>        -0.0299
      3 C3         -2.0127  -12.4917   -0.6026 C.ar      1 <0>        -0.1478
      4 C4         -1.8984  -12.1507   -1.9615 C.ar      1 <0>         0.1538
      5 C5         -3.0585  -11.7581   -2.6709 C.ar      1 <0>        -0.1057
      6 C6         -4.2945  -11.7134   -2.0119 C.ar      1 <0>        -0.0611
      7 C7         -2.9337  -11.4204   -4.0369 C.ar      1 <0>         0.3440
      8 C8         -1.6732  -11.4852   -4.6233 C.ar      1 <0>        -0.1441
      9 C9         -0.5831  -11.8727   -3.8640 C.ar      1 <0>         0.2496
     10 N1         -0.7214  -12.1902   -2.5879 N.ar      1 <0>        -0.4773
     11 C10         0.8097  -11.9455   -4.4399 C.3       1 <0>        -0.1140
     12 C11         0.7589  -11.9899   -5.9651 C.3       1 <0>        -0.1221
     13 C12        -0.1140  -10.8287   -6.4553 C.3       1 <0>        -0.1317
     14 C13        -1.5646  -11.1271   -6.0818 C.3       1 <0>        -0.0717
     15 N2         -4.0410  -11.0339   -4.7762 N.pl3     1 <0>        -0.7950
     16 C14        -4.4753   -9.6347   -4.7678 C.3       1 <0>         0.1342
     17 C15        -5.4341   -9.4053   -3.5978 C.3       1 <0>        -0.1553
     18 C16        -5.8877   -7.9441   -3.5892 C.3       1 <0>        -0.1209
     19 C17        -6.8465   -7.7147   -2.4192 C.3       1 <0>        -0.1174
     20 C18        -7.3001   -6.2534   -2.4105 C.3       1 <0>        -0.1208
     21 C19        -8.2589   -6.0240   -1.2405 C.3       1 <0>        -0.1454
     22 C20        -8.7124   -4.5628   -1.2318 C.3       1 <0>         0.1352
     23 N3         -9.6305   -4.3431   -0.1115 N.pl3     1 <0>        -0.7952
     24 C21       -10.9513   -3.9988   -0.3549 C.ar      1 <0>         0.3431
     25 C22       -11.9243   -4.9933   -0.5993 C.ar      1 <0>        -0.1056
     26 C23       -11.5974   -6.3561   -0.6049 C.ar      1 <0>        -0.0599
     27 C24       -12.5693   -7.2807   -0.8438 C.ar      1 <0>        -0.1060
     28 C25       -13.8839   -6.8879   -1.0830 C.ar      1 <0>        -0.0301
     29 C26       -14.2345   -5.5726   -1.0849 C.ar      1 <0>        -0.1466
     30 C27       -13.2589   -4.5899   -0.8428 C.ar      1 <0>         0.1534
     31 N4        -13.5687   -3.2925   -0.8408 N.ar      1 <0>        -0.4769
     32 C28       -12.6724   -2.3467   -0.6160 C.ar      1 <0>         0.2497
     33 C29       -11.3506   -2.6657   -0.3584 C.ar      1 <0>        -0.1441
     34 C30       -10.3007   -1.6241   -0.0753 C.3       1 <0>        -0.0711
     35 C31       -10.7756   -0.2454   -0.5294 C.3       1 <0>        -0.1323
     36 C32       -12.1684    0.0035    0.0612 C.3       1 <0>        -0.1214
     37 C33       -13.1598   -0.9191   -0.6521 C.3       1 <0>        -0.1143
     38 H1         -5.3209  -12.0198   -0.1872 H         1 <0>         0.1503
     39 H2         -3.3108  -12.7004    1.0520 H         1 <0>         0.1557
     40 H3         -1.1392  -12.7948   -0.0446 H         1 <0>         0.1568
     41 H4         -5.1842  -11.4141   -2.5460 H         1 <0>         0.1614
     42 H5          1.3753  -11.0687   -4.1245 H         1 <0>         0.1235
     43 H6          1.3047  -12.8437   -4.0705 H         1 <0>         0.1133
     44 H7          1.7663  -11.8866   -6.3684 H         1 <0>         0.0985
     45 H8          0.3262  -12.9361   -6.2899 H         1 <0>         0.0815
     46 H9          0.2052   -9.9023   -5.9777 H         1 <0>         0.0750
     47 H10        -0.0254  -10.7341   -7.5375 H         1 <0>         0.0922
     48 H11        -1.9268  -11.9601   -6.6843 H         1 <0>         0.0966
     49 H12        -2.1756  -10.2470   -6.2822 H         1 <0>         0.0969
     50 H13        -4.5282  -11.6898   -5.2989 H         1 <0>         0.4197
     51 H14        -3.6067   -8.9853   -4.6585 H         1 <0>         0.0703
     52 H15        -4.9839   -9.4066   -5.7045 H         1 <0>         0.0922
     53 H16        -6.3027  -10.0547   -3.7072 H         1 <0>         0.0723
     54 H17        -4.9255   -9.6334   -2.6612 H         1 <0>         0.0671
     55 H18        -5.0191   -7.2947   -3.4798 H         1 <0>         0.0652
     56 H19        -6.3963   -7.7159   -4.5258 H         1 <0>         0.0685
     57 H20        -7.7151   -8.3640   -2.5285 H         1 <0>         0.0628
     58 H21        -6.3379   -7.9428   -1.4825 H         1 <0>         0.0620
     59 H22        -6.4315   -5.6041   -2.3011 H         1 <0>         0.0681
     60 H23        -7.8087   -6.0253   -3.3471 H         1 <0>         0.0655
     61 H24        -9.1275   -6.6734   -1.3498 H         1 <0>         0.0663
     62 H25        -7.7503   -6.2522   -0.3038 H         1 <0>         0.0718
     63 H26        -7.8439   -3.9134   -1.1224 H         1 <0>         0.0785
     64 H27        -9.2210   -4.3347   -2.1685 H         1 <0>         0.0735
     65 H28        -9.3144   -4.4385    0.8006 H         1 <0>         0.4186
     66 H29       -10.5810   -6.6715   -0.4211 H         1 <0>         0.1572
     67 H30       -12.3171   -8.3309   -0.8481 H         1 <0>         0.1508
     68 H31       -14.6372   -7.6388   -1.2703 H         1 <0>         0.1563
     69 H32       -15.2585   -5.2850   -1.2720 H         1 <0>         0.1571
     70 H33       -10.0980   -1.5998    0.9954 H         1 <0>         0.0961
     71 H34        -9.3854   -1.8824   -0.6080 H         1 <0>         0.0967
     72 H35       -10.0836    0.5174   -0.1725 H         1 <0>         0.0917
     73 H36       -10.8274   -0.2147   -1.6178 H         1 <0>         0.0754
     74 H37       -12.1574   -0.2131    1.1294 H         1 <0>         0.0821
     75 H38       -12.4554    1.0423   -0.1022 H         1 <0>         0.0982
     76 H39       -13.2782   -0.6061   -1.6895 H         1 <0>         0.1244
     77 H40       -14.1230   -0.8554   -0.1460 H         1 <0>         0.1127
     78 H41         0.0637  -12.4627   -2.0878 H         1 <0>         0.4430
     79 H42       -14.4876   -3.0326   -1.0112 H         1 <0>         0.4432
@<TRIPOS>BOND
     1    1    6 ar
     2    1    2 ar
     3    1   38 1
     4    2    3 ar
     5    2   39 1
     6    3    4 ar
     7    3   40 1
     8    4   10 ar
     9    4    5 ar
    10    5    6 ar
    11    5    7 ar
    12    6   41 1
    13    7    8 ar
    14    7   15 1
    15    8   14 1
    16    8    9 ar
    17    9   10 ar
    18    9   11 1
    19   10   78 1
    20   11   12 1
    21   11   42 1
    22   11   43 1
    23   12   13 1
    24   12   44 1
    25   12   45 1
    26   13   14 1
    27   13   46 1
    28   13   47 1
    29   14   48 1
    30   14   49 1
    31   15   16 1
    32   15   50 1
    33   16   17 1
    34   16   51 1
    35   16   52 1
    36   17   18 1
    37   17   53 1
    38   17   54 1
    39   18   19 1
    40   18   55 1
    41   18   56 1
    42   19   20 1
    43   19   57 1
    44   19   58 1
    45   20   21 1
    46   20   59 1
    47   20   60 1
    48   21   22 1
    49   21   61 1
    50   21   62 1
    51   22   23 1
    52   22   63 1
    53   22   64 1
    54   23   24 1
    55   23   65 1
    56   24   33 ar
    57   24   25 ar
    58   25   30 ar
    59   25   26 ar
    60   26   27 ar
    61   26   66 1
    62   27   28 ar
    63   27   67 1
    64   28   29 ar
    65   28   68 1
    66   29   30 ar
    67   29   69 1
    68   30   31 ar
    69   31   32 ar
    70   31   79 1
    71   32   37 1
    72   32   33 ar
    73   33   34 1
    74   34   35 1
    75   34   70 1
    76   34   71 1
    77   35   36 1
    78   35   72 1
    79   35   73 1
    80   36   37 1
    81   36   74 1
    82   36   75 1
    83   37   76 1
    84   37   77 1
@<TRIPOS>MOLECULE
ZINC03870415
   51    54     0     0     0
SMALL
USER_CHARGES

@<TRIPOS>ATOM
      1 C1         -0.0167    1.3824    0.0096 C.ar      1 <0>        -0.1216
      2 C2          1.1697    2.0917    0.0021 C.ar      1 <0>        -0.0751
      3 C3          2.3792    1.4226   -0.0135 C.ar      1 <0>        -0.0978
      4 C4          2.4066    0.0362   -0.0217 C.ar      1 <0>         0.0950
      5 C5          1.2160   -0.6806   -0.0137 C.ar      1 <0>         0.0667
      6 C6          0.0021   -0.0041    0.0020 C.ar      1 <0>         0.0981
      7 O1         -1.1658   -0.7009    0.0099 O.3       1 <0>        -0.4876
      8 O2          1.2387   -2.0413   -0.0217 O.3       1 <0>        -0.4799
      9 O3          3.5971   -0.6212   -0.0380 O.3       1 <0>        -0.4813
     10 C7          1.1446    3.5984    0.0105 C.3       1 <0>         0.1467
     11 H1          0.1709    3.9512   -0.3294 H         1 <0>         0.1102
     12 C8          1.4132    4.1118    1.4309 C.3       1 <0>         0.0595
     13 H2          0.6899    3.6778    2.1213 H         1 <0>         0.1122
     14 C9          1.2714    5.6359    1.4258 C.3       1 <0>        -0.0838
     15 C10         2.0504    6.2145    0.2717 C.ar      1 <0>        -0.1930
     16 C11         2.3697    7.5676    0.2931 C.ar      1 <0>         0.1600
     17 C12         3.0805    8.1340   -0.7521 C.ar      1 <0>        -0.2000
     18 C13         3.4754    7.3482   -1.8246 C.ar      1 <0>         0.1588
     19 C14         3.1596    5.9999   -1.8458 C.ar      1 <0>        -0.1813
     20 C15         2.4473    5.4295   -0.7959 C.ar      1 <0>         0.1709
     21 O4          2.1661    4.1013   -0.8516 O.3       1 <0>        -0.2906
     22 O5          4.1708    7.9004   -2.8533 O.3       1 <0>        -0.4918
     23 O6          1.9825    8.3377    1.3437 O.3       1 <0>        -0.4907
     24 O7          2.7369    3.7517    1.8310 O.3       1 <0>        -0.3244
     25 C16         2.9436    3.5452    3.1464 C.2       1 <0>         0.5112
     26 O8          2.0250    3.6676    3.9323 O.2       1 <0>        -0.4923
     27 C17         4.2847    3.1707    3.6323 C.ar      1 <0>        -0.1039
     28 C18         5.3436    3.0352    2.7302 C.ar      1 <0>        -0.0806
     29 C19         6.5994    2.6841    3.1883 C.ar      1 <0>         0.0872
     30 C20         6.8101    2.4650    4.5472 C.ar      1 <0>         0.0955
     31 C21         5.7569    2.5989    5.4482 C.ar      1 <0>         0.0883
     32 C22         4.5005    2.9563    4.9964 C.ar      1 <0>        -0.0740
     33 O9          5.9661    2.3838    6.7747 O.3       1 <0>        -0.4778
     34 O10         8.0457    2.1195    4.9948 O.3       1 <0>        -0.4723
     35 O11         7.6302    2.5520    2.3110 O.3       1 <0>        -0.4776
     36 H3         -0.9596    1.9089    0.0260 H         1 <0>         0.1414
     37 H4          3.3040    1.9803   -0.0197 H         1 <0>         0.1446
     38 H5         -1.5123   -0.8977   -0.8712 H         1 <0>         0.3975
     39 H6          1.2542   -2.4396    0.8593 H         1 <0>         0.3921
     40 H7          3.9506   -0.8164    0.8407 H         1 <0>         0.3911
     41 H8          0.2194    5.9019    1.3230 H         1 <0>         0.1019
     42 H9          1.6571    6.0391    2.3621 H         1 <0>         0.0919
     43 H10         3.3265    9.1854   -0.7322 H         1 <0>         0.1388
     44 H11         3.4673    5.3887   -2.6814 H         1 <0>         0.1423
     45 H12         5.1305    7.8764   -2.7370 H         1 <0>         0.3967
     46 H13         2.6278    8.3752    2.0628 H         1 <0>         0.3935
     47 H14         5.1805    3.2043    1.6760 H         1 <0>         0.1529
     48 H15         3.6851    3.0647    5.6962 H         1 <0>         0.1534
     49 H16         6.2266    3.1753    7.2652 H         1 <0>         0.3936
     50 H17         8.6034    2.8733    5.2309 H         1 <0>         0.3925
     51 H18         8.1282    3.3677    2.1636 H         1 <0>         0.3930
@<TRIPOS>BOND
     1    1    6 ar
     2    1    2 ar
     3    1   36 1
     4    2    3 ar
     5    2   10 1
     6    3    4 ar
     7    3   37 1
     8    4    5 ar
     9    4    9 1
    10    5    6 ar
    11    5    8 1
    12    6    7 1
    13    7   38 1
    14    8   39 1
    15    9   40 1
    16   10   11 1
    17   10   21 1
    18   10   12 1
    19   12   13 1
    20   12   14 1
    21   12   24 1
    22   14   15 1
    23   14   41 1
    24   14   42 1
    25   15   20 ar
    26   15   16 ar
    27   16   17 ar
    28   16   23 1
    29   17   18 ar
    30   17   43 1
    31   18   19 ar
    32   18   22 1
    33   19   20 ar
    34   19   44 1
    35   20   21 1
    36   22   45 1
    37   23   46 1
    38   24   25 1
    39   25   26 2
    40   25   27 1
    41   27   32 ar
    42   27   28 ar
    43   28   29 ar
    44   28   47 1
    45   29   30 ar
    46   29   35 1
    47   30   31 ar
    48   30   34 1
    49   31   32 ar
    50   31   33 1
    51   32   48 1
    52   33   49 1
    53   34   50 1
    54   35   51 1
@<TRIPOS>MOLECULE
ZINC14962120
   62    64     0     0     0
SMALL
USER_CHARGES

@<TRIPOS>ATOM
      1 C1         -2.5885   -2.5504    0.7298 C.3       1 <0>        -0.1507
      2 C2         -1.3989   -1.7888    0.1418 C.3       1 <0>        -0.1237
      3 C3         -0.7679   -2.6160   -0.9801 C.3       1 <0>         0.0574
      4 O1          0.3432   -1.9046   -1.5292 O.3       1 <0>        -0.3146
      5 C4          1.0197   -2.5049   -2.5434 C.ar      1 <0>         0.1311
      6 C5          0.6158   -3.7516   -3.0026 C.ar      1 <0>        -0.1999
      7 C6          1.2995   -4.3643   -4.0309 C.ar      1 <0>        -0.0838
      8 C7          2.3994   -3.7292   -4.6113 C.ar      1 <0>        -0.0544
      9 C8          2.8019   -2.4753   -4.1469 C.ar      1 <0>        -0.0590
     10 C9          2.1094   -1.8674   -3.1216 C.ar      1 <0>        -0.1456
     11 C10         3.1355   -4.3823   -5.7135 C.2       1 <0>         0.0809
     12 C11         3.9008   -3.7505   -6.6503 C.2       1 <0>        -0.1769
     13 C12         4.4171   -4.7296   -7.5064 C.2       1 <0>        -0.1499
     14 C13         3.9570   -5.9398   -7.0755 C.2       1 <0>         0.0495
     15 N1          3.1731   -5.7293   -5.9691 N.pl3     1 <0>        -0.4156
     16 C14         2.4892   -6.7674   -5.1939 C.3       1 <0>         0.0729
     17 C15         1.1603   -7.0780   -5.8330 C.2       1 <0>         0.4920
     18 O2          0.8173   -6.4889   -6.8393 O.2       1 <0>        -0.5095
     19 N2          0.3618   -7.9979   -5.2954 N.2       1 <0>        -0.7032
     20 C16        -0.1060   -8.9893   -6.0431 C.2       1 <0>         0.7056
     21 N3         -1.0180   -9.8599   -5.5272 N.pl3     1 <0>        -0.8215
     22 N4          0.3259   -9.1366   -7.3268 N.pl3     1 <0>        -0.7356
     23 C17        -0.2735  -10.1585   -8.1886 C.3       1 <0>         0.1089
     24 C18         0.3865  -10.1134   -9.5681 C.3       1 <0>        -0.1337
     25 C19        -0.2394  -11.1806  -10.4682 C.3       1 <0>         0.0820
     26 O3          0.3770  -11.1385  -11.7567 O.3       1 <0>        -0.5712
     27 C20         4.2553   -7.2498   -7.6902 C.ar      1 <0>        -0.0059
     28 C21         4.7077   -8.3085   -6.9003 C.ar      1 <0>        -0.1105
     29 C22         4.9840   -9.5290   -7.4804 C.ar      1 <0>        -0.1121
     30 C23         4.8143   -9.7061   -8.8424 C.ar      1 <0>        -0.1072
     31 C24         4.3665   -8.6623   -9.6319 C.ar      1 <0>        -0.1075
     32 C25         4.0806   -7.4366   -9.0637 C.ar      1 <0>        -0.0186
     33 Cl1         3.5118   -6.1295  -10.0544 Cl        1 <0>        -0.0484
     34 H1         -3.3281   -2.7278   -0.0510 H         1 <0>         0.0577
     35 H2         -2.2468   -3.5049    1.1302 H         1 <0>         0.0578
     36 H3         -3.0380   -1.9611    1.5290 H         1 <0>         0.0655
     37 H4         -1.7405   -0.8343   -0.2586 H         1 <0>         0.0740
     38 H5         -0.6592   -1.6115    0.9226 H         1 <0>         0.0741
     39 H6         -0.4262   -3.5705   -0.5797 H         1 <0>         0.0626
     40 H7         -1.5075   -2.7933   -1.7608 H         1 <0>         0.0622
     41 H8         -0.2350   -4.2421   -2.5531 H         1 <0>         0.1288
     42 H9          0.9851   -5.3342   -4.3870 H         1 <0>         0.1243
     43 H10         3.6523   -1.9809   -4.5928 H         1 <0>         0.1368
     44 H11         2.4176   -0.8958   -2.7645 H         1 <0>         0.1354
     45 H12         4.0760   -2.6870   -6.7188 H         1 <0>         0.1413
     46 H13         5.0631   -4.5584   -8.3549 H         1 <0>         0.1391
     47 H14         3.1021   -7.6686   -5.1735 H         1 <0>         0.1144
     48 H15         2.3288   -6.4139   -4.1754 H         1 <0>         0.1248
     49 H16        -1.3255   -9.7550   -4.6132 H         1 <0>         0.4261
     50 H17        -1.3599  -10.5846   -6.0738 H         1 <0>         0.4109
     51 H18         1.0302   -8.5648   -7.6702 H         1 <0>         0.4205
     52 H19        -0.1215  -11.1425   -7.7451 H         1 <0>         0.0725
     53 H20        -1.3417   -9.9669   -8.2904 H         1 <0>         0.0741
     54 H21         0.2346   -9.1293  -10.0116 H         1 <0>         0.0821
     55 H22         1.4547  -10.3049   -9.4663 H         1 <0>         0.0801
     56 H23        -0.0875  -12.1646  -10.0247 H         1 <0>         0.0494
     57 H24        -1.3076  -10.9890  -10.5700 H         1 <0>         0.0497
     58 H25         0.0286  -11.7897  -12.3809 H         1 <0>         0.3850
     59 H26         4.8414   -8.1719   -5.8373 H         1 <0>         0.1285
     60 H27         5.3340  -10.3484   -6.8702 H         1 <0>         0.1308
     61 H28         5.0329  -10.6639   -9.2911 H         1 <0>         0.1331
     62 H29         4.2366   -8.8072  -10.6942 H         1 <0>         0.1372
@<TRIPOS>BOND
     1    1    2 1
     2    1   34 1
     3    1   35 1
     4    1   36 1
     5    2    3 1
     6    2   37 1
     7    2   38 1
     8    3    4 1
     9    3   39 1
    10    3   40 1
    11    4    5 1
    12    5   10 ar
    13    5    6 ar
    14    6    7 ar
    15    6   41 1
    16    7    8 ar
    17    7   42 1
    18    8    9 ar
    19    8   11 1
    20    9   10 ar
    21    9   43 1
    22   10   44 1
    23   11   15 1
    24   11   12 2
    25   12   13 1
    26   12   45 1
    27   13   14 2
    28   13   46 1
    29   14   15 1
    30   14   27 1
    31   15   16 1
    32   16   17 1
    33   16   47 1
    34   16   48 1
    35   17   18 2
    36   17   19 1
    37   19   20 2
    38   20   21 1
    39   20   22 1
    40   21   49 1
    41   21   50 1
    42   22   23 1
    43   22   51 1
    44   23   24 1
    45   23   52 1
    46   23   53 1
    47   24   25 1
    48   24   54 1
    49   24   55 1
    50   25   26 1
    51   25   56 1
    52   25   57 1
    53   26   58 1
    54   27   32 ar
    55   27   28 ar
    56   28   29 ar
    57   28   59 1
    58   29   30 ar
    59   29   60 1
    60   30   31 ar
    61   30   61 1
    62   31   32 ar
    63   31   62 1
    64   32   33 1
@<TRIPOS>MOLECULE
ZINC14711612
   62    64     0     0     0
SMALL
USER_CHARGES
(2S)-5,7-dihydroxy-2-(4-hydroxy-2-methoxy-phenyl)-8-[(2R)-2-isopropenyl-5-methyl-hex-4-enyl]chroman-4-one
@<TRIPOS>ATOM
      1 C1          3.4225   -2.7924    3.2358 C.3       1 <0>        -0.1172
      2 C2          4.5987   -2.7841    2.2936 C.2       1 <0>        -0.1360
      3 C3          4.7883   -1.7657    1.4917 C.2       1 <0>        -0.1596
      4 C4          3.9062   -0.5485    1.5979 C.3       1 <0>        -0.0851
      5 C5          4.7751    0.6957    1.7924 C.3       1 <0>        -0.0373
      6 H1          5.4252    0.5535    2.6557 H         1 <0>         0.0740
      7 C6          3.8779    1.9131    2.0247 C.3       1 <0>        -0.0564
      8 C7          4.7298    3.1046    2.3793 C.ar      1 <0>        -0.1566
      9 C8          5.1157    3.9993    1.3890 C.ar      1 <0>         0.2052
     10 C9          5.8945    5.1072    1.6988 C.ar      1 <0>        -0.2182
     11 C10         6.3070    5.3218    3.0021 C.ar      1 <0>         0.2162
     12 C11         5.9300    4.4149    4.0047 C.ar      1 <0>        -0.2894
     13 C12         5.1298    3.3009    3.6890 C.ar      1 <0>         0.2148
     14 O1          4.7488    2.4272    4.6503 O.3       1 <0>        -0.2960
     15 C13         5.5216    2.3463    5.8478 C.3       1 <0>         0.1572
     16 H2          6.5036    1.9318    5.6196 H         1 <0>         0.0930
     17 C14         5.6841    3.7521    6.4440 C.3       1 <0>        -0.1815
     18 C15         6.3645    4.6100    5.3923 C.2       1 <0>         0.4044
     19 O2          7.2235    5.4161    5.6846 O.2       1 <0>        -0.4321
     20 C16         4.8187    1.4570    6.8408 C.ar      1 <0>        -0.1335
     21 C17         3.4456    1.3107    6.7857 C.ar      1 <0>        -0.0359
     22 C18         2.7990    0.4918    7.6911 C.ar      1 <0>        -0.1813
     23 C19         3.5260   -0.1773    8.6658 C.ar      1 <0>         0.1568
     24 C20         4.9027   -0.0278    8.7268 C.ar      1 <0>        -0.2355
     25 C21         5.5500    0.7903    7.8133 C.ar      1 <0>         0.1622
     26 O3          6.8997    0.9385    7.8703 O.3       1 <0>        -0.3133
     27 C22         7.5883    0.2223    8.8974 C.3       1 <0>         0.0247
     28 O4          2.8887   -0.9781    9.5599 O.3       1 <0>        -0.4974
     29 O5          7.0694    6.4006    3.3084 O.3       1 <0>        -0.4809
     30 O6          4.7232    3.7919    0.1069 O.3       1 <0>        -0.4808
     31 C23         5.6158    0.9187    0.5617 C.2       1 <0>        -0.0946
     32 C24         6.9154    1.0426    0.6699 C.2       1 <0>        -0.2050
     33 C25         4.9613    0.9993   -0.7934 C.3       1 <0>        -0.1133
     34 C26         5.5566   -3.9473    2.2740 C.3       1 <0>        -0.1173
     35 H3          2.5029   -2.6422    2.6703 H         1 <0>         0.0642
     36 H4          3.5356   -1.9903    3.9652 H         1 <0>         0.0662
     37 H5          3.3784   -3.7506    3.7534 H         1 <0>         0.0578
     38 H6          5.5769   -1.7984    0.7545 H         1 <0>         0.1068
     39 H7          3.3205   -0.4435    0.6847 H         1 <0>         0.0718
     40 H8          3.2348   -0.6595    2.4494 H         1 <0>         0.0729
     41 H9          3.3137    2.1271    1.1170 H         1 <0>         0.0778
     42 H10         3.1868    1.7046    2.8414 H         1 <0>         0.0792
     43 H11         6.1822    5.7990    0.9210 H         1 <0>         0.1433
     44 H12         4.7844    4.1215    6.6767 H         1 <0>         0.1020
     45 H13         6.3013    3.7057    7.3412 H         1 <0>         0.1132
     46 H14         2.8776    1.8340    6.0307 H         1 <0>         0.1423
     47 H15         1.7263    0.3758    7.6434 H         1 <0>         0.1351
     48 H16         5.4703   -0.5479    9.4842 H         1 <0>         0.1396
     49 H17         8.6565    0.4285    8.8305 H         1 <0>         0.1050
     50 H18         7.2175    0.5389    9.8723 H         1 <0>         0.0593
     51 H19         7.4161   -0.8468    8.7729 H         1 <0>         0.0596
     52 H20         2.6054   -0.5220   10.3642 H         1 <0>         0.3965
     53 H21         8.0210    6.2408    3.2442 H         1 <0>         0.4024
     54 H22         3.8800    4.2082   -0.1185 H         1 <0>         0.3964
     55 H23         7.3844    0.9848    1.6410 H         1 <0>         0.0877
     56 H24         7.5179    1.2024   -0.2121 H         1 <0>         0.0925
     57 H25         3.8793    0.9355   -0.6786 H         1 <0>         0.0578
     58 H26         5.2213    1.9461   -1.2667 H         1 <0>         0.0735
     59 H27         5.3101    0.1746   -1.4149 H         1 <0>         0.0569
     60 H28         5.2149   -4.6872    1.5503 H         1 <0>         0.0640
     61 H29         6.5493   -3.5957    1.9930 H         1 <0>         0.0603
     62 H30         5.5985   -4.4002    3.2645 H         1 <0>         0.0615
@<TRIPOS>BOND
     1    1    2 1
     2    1   35 1
     3    1   36 1
     4    1   37 1
     5    2    3 2
     6    2   34 1
     7    3    4 1
     8    3   38 1
     9    4    5 1
    10    4   39 1
    11    4   40 1
    12    5    6 1
    13    5    7 1
    14    5   31 1
    15    7    8 1
    16    7   41 1
    17    7   42 1
    18    8   13 ar
    19    8    9 ar
    20    9   10 ar
    21    9   30 1
    22   10   11 ar
    23   10   43 1
    24   11   12 ar
    25   11   29 1
    26   12   18 1
    27   12   13 ar
    28   13   14 1
    29   14   15 1
    30   15   16 1
    31   15   17 1
    32   15   20 1
    33   17   18 1
    34   17   44 1
    35   17   45 1
    36   18   19 2
    37   20   25 ar
    38   20   21 ar
    39   21   22 ar
    40   21   46 1
    41   22   23 ar
    42   22   47 1
    43   23   24 ar
    44   23   28 1
    45   24   25 ar
    46   24   48 1
    47   25   26 1
    48   26   27 1
    49   27   49 1
    50   27   50 1
    51   27   51 1
    52   28   52 1
    53   29   53 1
    54   30   54 1
    55   31   32 2
    56   31   33 1
    57   32   55 1
    58   32   56 1
    59   33   57 1
    60   33   58 1
    61   33   59 1
    62   34   60 1
    63   34   61 1
    64   34   62 1
@<TRIPOS>MOLECULE
ZINC02008845
   59    61     0     0     0
SMALL
USER_CHARGES
2-(2,4-dihydroxyphenyl)-5,7-dihydroxy-8-(2-isopropenyl-5-methyl-hex-4-enyl)-chroman-4-one
@<TRIPOS>ATOM
      1 C1         -5.8133   -0.0549    6.7635 C.3       1 <0>        -0.1215
      2 C2         -4.8651    1.0991    6.9640 C.2       1 <0>        -0.1322
      3 C3         -4.3051    1.6742    5.9288 C.2       1 <0>        -0.1585
      4 C4         -4.6090    1.1817    4.5373 C.3       1 <0>        -0.0856
      5 C5         -5.1125    2.3466    3.6826 C.3       1 <0>        -0.0384
      6 H1         -4.3839    3.1569    3.7074 H         1 <0>         0.0733
      7 C6         -5.3024    1.8755    2.2394 C.3       1 <0>        -0.0568
      8 C7         -5.6670    3.0518    1.3709 C.ar      1 <0>        -0.1561
      9 C8         -7.0014    3.3185    1.0908 C.ar      1 <0>         0.2053
     10 C9         -7.3559    4.3973    0.2904 C.ar      1 <0>        -0.2168
     11 C10        -6.3768    5.2222   -0.2345 C.ar      1 <0>         0.2159
     12 C11        -5.0274    4.9612    0.0499 C.ar      1 <0>        -0.2897
     13 C12        -4.6720    3.8627    0.8549 C.ar      1 <0>         0.2140
     14 O1         -3.3728    3.5912    1.1216 O.3       1 <0>        -0.2946
     15 C13        -2.4167    4.6456    1.0134 C.3       1 <0>         0.1498
     16 H2         -2.6007    5.3854    1.7924 H         1 <0>         0.0968
     17 C14        -2.5463    5.3100   -0.3651 C.3       1 <0>        -0.1823
     18 C15        -3.9692    5.8261   -0.4830 C.2       1 <0>         0.4003
     19 O2         -4.2184    6.8992   -0.9925 O.2       1 <0>        -0.4253
     20 C16        -1.0276    4.0831    1.1720 C.ar      1 <0>        -0.1279
     21 C17        -0.7804    2.7580    0.8674 C.ar      1 <0>        -0.0579
     22 C18         0.4907    2.2380    1.0172 C.ar      1 <0>        -0.1536
     23 C19         1.5253    3.0486    1.4632 C.ar      1 <0>         0.1335
     24 C20         1.2811    4.3795    1.7639 C.ar      1 <0>        -0.1713
     25 C21         0.0032    4.8976    1.6182 C.ar      1 <0>         0.1411
     26 O3         -0.2394    6.2019    1.9127 O.3       1 <0>        -0.4929
     27 O4          2.7765    2.5378    1.6054 O.3       1 <0>        -0.4957
     28 O5         -6.7185    6.2754   -1.0175 O.3       1 <0>        -0.4764
     29 O6         -7.9683    2.5170    1.6039 O.3       1 <0>        -0.4795
     30 C22        -6.4287    2.8377    4.2281 C.2       1 <0>        -0.0932
     31 C23        -6.5711    4.0968    4.5604 C.2       1 <0>        -0.2037
     32 C24        -7.5810    1.8803    4.3912 C.3       1 <0>        -0.1142
     33 C25        -4.5612    1.5916    8.3555 C.3       1 <0>        -0.1174
     34 H3         -5.2929   -0.8693    6.2594 H         1 <0>         0.0635
     35 H4         -6.1759   -0.3997    7.7318 H         1 <0>         0.0571
     36 H5         -6.6568    0.2696    6.1542 H         1 <0>         0.0701
     37 H6         -3.6256    2.5013    6.0725 H         1 <0>         0.1039
     38 H7         -5.3754    0.4082    4.5850 H         1 <0>         0.0745
     39 H8         -3.7036    0.7692    4.0921 H         1 <0>         0.0713
     40 H9         -6.1007    1.1344    2.2012 H         1 <0>         0.0777
     41 H10        -4.3756    1.4302    1.8776 H         1 <0>         0.0789
     42 H11        -8.3966    4.5920    0.0774 H         1 <0>         0.1440
     43 H12        -1.8889    6.0601   -0.4367 H         1 <0>         0.0976
     44 H13        -2.3505    4.5788   -1.1494 H         1 <0>         0.1145
     45 H14        -1.5832    2.1268    0.5159 H         1 <0>         0.1407
     46 H15         0.6805    1.2009    0.7827 H         1 <0>         0.1365
     47 H16         2.0847    5.0117    2.1115 H         1 <0>         0.1406
     48 H17        -0.1241    6.8023    1.1635 H         1 <0>         0.3952
     49 H18         3.3243    2.6123    0.8120 H         1 <0>         0.3959
     50 H19        -6.7665    6.0653   -1.9602 H         1 <0>         0.3985
     51 H20        -8.2011    1.7691    1.0369 H         1 <0>         0.3958
     52 H21        -5.7453    4.7829    4.4435 H         1 <0>         0.0874
     53 H22        -7.5144    4.4487    4.9513 H         1 <0>         0.0921
     54 H23        -7.2669    0.8797    4.0941 H         1 <0>         0.0565
     55 H24        -7.8975    1.8670    5.4342 H         1 <0>         0.0568
     56 H25        -8.4120    2.2017    3.7634 H         1 <0>         0.0768
     57 H26        -5.2754    2.3679    8.6302 H         1 <0>         0.0648
     58 H27        -4.6372    0.7625    9.0590 H         1 <0>         0.0606
     59 H28        -3.5512    2.0006    8.3836 H         1 <0>         0.0600
@<TRIPOS>BOND
     1    1    2 1
     2    1   34 1
     3    1   35 1
     4    1   36 1
     5    2    3 2
     6    2   33 1
     7    3    4 1
     8    3   37 1
     9    4    5 1
    10    4   38 1
    11    4   39 1
    12    5    6 1
    13    5    7 1
    14    5   30 1
    15    7    8 1
    16    7   40 1
    17    7   41 1
    18    8   13 ar
    19    8    9 ar
    20    9   10 ar
    21    9   29 1
    22   10   11 ar
    23   10   42 1
    24   11   12 ar
    25   11   28 1
    26   12   18 1
    27   12   13 ar
    28   13   14 1
    29   14   15 1
    30   15   16 1
    31   15   17 1
    32   15   20 1
    33   17   18 1
    34   17   43 1
    35   17   44 1
    36   18   19 2
    37   20   25 ar
    38   20   21 ar
    39   21   22 ar
    40   21   45 1
    41   22   23 ar
    42   22   46 1
    43   23   24 ar
    44   23   27 1
    45   24   25 ar
    46   24   47 1
    47   25   26 1
    48   26   48 1
    49   27   49 1
    50   28   50 1
    51   29   51 1
    52   30   31 2
    53   30   32 1
    54   31   52 1
    55   31   53 1
    56   32   54 1
    57   32   55 1
    58   32   56 1
    59   33   57 1
    60   33   58 1
    61   33   59 1
@<TRIPOS>MOLECULE
ZINC02008847
   59    61     0     0     0
SMALL
USER_CHARGES
2-(2,4-dihydroxyphenyl)-5,7-dihydroxy-8-(2-isopropenyl-5-methyl-hex-4-enyl)-chroman-4-one
@<TRIPOS>ATOM
      1 C1         -5.8718    0.0213    6.5151 C.3       1 <0>        -0.1209
      2 C2         -5.2216    1.3424    6.8360 C.2       1 <0>        -0.1364
      3 C3         -4.3994    1.8933    5.9778 C.2       1 <0>        -0.1588
      4 C4         -4.0979    1.2024    4.6729 C.3       1 <0>        -0.0874
      5 C5         -4.4446    2.1345    3.5102 C.3       1 <0>        -0.0390
      6 H1         -5.4814    2.4584    3.6010 H         1 <0>         0.0791
      7 C6         -4.2569    1.3904    2.1866 C.3       1 <0>        -0.0564
      8 C7         -4.7495    2.2513    1.0521 C.ar      1 <0>        -0.1542
      9 C8         -6.0999    2.2608    0.7257 C.ar      1 <0>         0.1963
     10 C9         -6.5715    3.0474   -0.3177 C.ar      1 <0>        -0.2204
     11 C10        -5.6950    3.8354   -1.0427 C.ar      1 <0>         0.2162
     12 C11        -4.3306    3.8341   -0.7140 C.ar      1 <0>        -0.2893
     13 C12        -3.8555    3.0298    0.3389 C.ar      1 <0>         0.2225
     14 O1         -2.5390    3.0075    0.6535 O.3       1 <0>        -0.2888
     15 C13        -1.7253    4.1172    0.2740 C.3       1 <0>         0.1493
     16 H2         -2.0226    4.9982    0.8428 H         1 <0>         0.0971
     17 C14        -1.9062    4.3907   -1.2262 C.3       1 <0>        -0.1830
     18 C15        -3.3806    4.6688   -1.4576 C.2       1 <0>         0.4007
     19 O2         -3.7543    5.5370   -2.2191 O.2       1 <0>        -0.4256
     20 C16        -0.2794    3.8004    0.5567 C.ar      1 <0>        -0.1267
     21 C17         0.1444    2.4856    0.5969 C.ar      1 <0>        -0.0578
     22 C18         1.4681    2.1919    0.8614 C.ar      1 <0>        -0.1533
     23 C19         2.3782    3.2175    1.0763 C.ar      1 <0>         0.1337
     24 C20         1.9569    4.5372    1.0309 C.ar      1 <0>        -0.1711
     25 C21         0.6266    4.8293    0.7708 C.ar      1 <0>         0.1410
     26 O3          0.2104    6.1222    0.7261 O.3       1 <0>        -0.4927
     27 O4          3.6813    2.9281    1.3314 O.3       1 <0>        -0.4959
     28 O5         -6.1510    4.6028   -2.0636 O.3       1 <0>        -0.4764
     29 O6         -6.9670    1.4942    1.4336 O.3       1 <0>        -0.4849
     30 C22        -3.5377    3.3375    3.5432 C.2       1 <0>        -0.0991
     31 C23        -4.0494    4.5434    3.5583 C.2       1 <0>        -0.2066
     32 C24        -2.0420    3.1535    3.5587 C.3       1 <0>        -0.1152
     33 C25        -5.5174    2.0298    8.1441 C.3       1 <0>        -0.1178
     34 H3         -5.1944   -0.7907    6.7792 H         1 <0>         0.0647
     35 H4         -6.7960   -0.0767    7.0847 H         1 <0>         0.0591
     36 H5         -6.0954   -0.0242    5.4493 H         1 <0>         0.0683
     37 H6         -3.9376    2.8427    6.2054 H         1 <0>         0.1066
     38 H7         -4.6922    0.2917    4.5982 H         1 <0>         0.0754
     39 H8         -3.0385    0.9493    4.6321 H         1 <0>         0.0726
     40 H9         -4.8241    0.4598    2.2093 H         1 <0>         0.0758
     41 H10        -3.1997    1.1680    2.0415 H         1 <0>         0.0815
     42 H11        -7.6232    3.0436   -0.5635 H         1 <0>         0.1442
     43 H12        -1.3500    5.1785   -1.4908 H         1 <0>         0.0971
     44 H13        -1.5981    3.5182   -1.8024 H         1 <0>         0.1144
     45 H14        -0.5614    1.6863    0.4255 H         1 <0>         0.1406
     46 H15         1.7960    1.1634    0.8967 H         1 <0>         0.1360
     47 H16         2.6635    5.3367    1.1981 H         1 <0>         0.1401
     48 H17         0.2649    6.5228   -0.1523 H         1 <0>         0.3951
     49 H18         4.2336    2.8701    0.5397 H         1 <0>         0.3959
     50 H19        -6.1484    4.1576   -2.9220 H         1 <0>         0.3986
     51 H20        -7.1462    0.6320    1.0342 H         1 <0>         0.3988
     52 H21        -5.1212    4.6753    3.5471 H         1 <0>         0.0921
     53 H22        -3.3994    5.4056    3.5819 H         1 <0>         0.0920
     54 H23        -1.8053    2.0939    3.4613 H         1 <0>         0.0607
     55 H24        -1.5997    3.7025    2.7275 H         1 <0>         0.0674
     56 H25        -1.6393    3.5308    4.4987 H         1 <0>         0.0584
     57 H26        -5.9567    3.0081    7.9493 H         1 <0>         0.0636
     58 H27        -6.2170    1.4258    8.7218 H         1 <0>         0.0599
     59 H28        -4.5922    2.1525    8.7073 H         1 <0>         0.0631
@<TRIPOS>BOND
     1    1    2 1
     2    1   34 1
     3    1   35 1
     4    1   36 1
     5    2    3 2
     6    2   33 1
     7    3    4 1
     8    3   37 1
     9    4    5 1
    10    4   38 1
    11    4   39 1
    12    5    6 1
    13    5    7 1
    14    5   30 1
    15    7    8 1
    16    7   40 1
    17    7   41 1
    18    8   13 ar
    19    8    9 ar
    20    9   10 ar
    21    9   29 1
    22   10   11 ar
    23   10   42 1
    24   11   12 ar
    25   11   28 1
    26   12   18 1
    27   12   13 ar
    28   13   14 1
    29   14   15 1
    30   15   16 1
    31   15   17 1
    32   15   20 1
    33   17   18 1
    34   17   43 1
    35   17   44 1
    36   18   19 2
    37   20   25 ar
    38   20   21 ar
    39   21   22 ar
    40   21   45 1
    41   22   23 ar
    42   22   46 1
    43   23   24 ar
    44   23   27 1
    45   24   25 ar
    46   24   47 1
    47   25   26 1
    48   26   48 1
    49   27   49 1
    50   28   50 1
    51   29   51 1
    52   30   31 2
    53   30   32 1
    54   31   52 1
    55   31   53 1
    56   32   54 1
    57   32   55 1
    58   32   56 1
    59   33   57 1
    60   33   58 1
    61   33   59 1
@<TRIPOS>MOLECULE
ZINC02008848
   59    61     0     0     0
SMALL
USER_CHARGES
2-(2,4-dihydroxyphenyl)-5,7-dihydroxy-8-(2-isopropenyl-5-methyl-hex-4-enyl)-chroman-4-one
@<TRIPOS>ATOM
      1 C1          4.1349   -1.1099    6.6710 C.3       1 <0>        -0.1217
      2 C2          4.8808    0.1455    7.0436 C.2       1 <0>        -0.1341
      3 C3          5.8563    0.5777    6.2835 C.2       1 <0>        -0.1575
      4 C4          6.1481   -0.1040    4.9716 C.3       1 <0>        -0.0860
      5 C5          6.1534    0.9340    3.8476 C.3       1 <0>        -0.0389
      6 H1          6.8585    1.7290    4.0905 H         1 <0>         0.0792
      7 C6          6.5717    0.2643    2.5370 C.3       1 <0>        -0.0572
      8 C7          6.7253    1.3117    1.4644 C.ar      1 <0>        -0.1541
      9 C8          7.9149    2.0209    1.3544 C.ar      1 <0>         0.1958
     10 C9          8.0746    2.9891    0.3711 C.ar      1 <0>        -0.2206
     11 C10         7.0427    3.2586   -0.5105 C.ar      1 <0>         0.2167
     12 C11         5.8372    2.5482   -0.4015 C.ar      1 <0>        -0.2887
     13 C12         5.6815    1.5637    0.5922 C.ar      1 <0>         0.2219
     14 O1          4.5279    0.8631    0.6983 O.3       1 <0>        -0.2906
     15 C13         3.3334    1.4237    0.1538 C.3       1 <0>         0.1549
     16 H2          3.0505    2.3060    0.7279 H         1 <0>         0.0892
     17 C14         3.5793    1.8213   -1.3090 C.3       1 <0>        -0.1820
     18 C15         4.7230    2.8198   -1.3164 C.2       1 <0>         0.4039
     19 O2          4.7160    3.7925   -2.0423 O.2       1 <0>        -0.4305
     20 C16         2.2248    0.4049    0.2185 C.ar      1 <0>        -0.1238
     21 C17         2.5270   -0.9433    0.2480 C.ar      1 <0>        -0.0591
     22 C18         1.5130   -1.8797    0.3073 C.ar      1 <0>        -0.1522
     23 C19         0.1878   -1.4683    0.3374 C.ar      1 <0>         0.1332
     24 C20        -0.1179   -0.1166    0.3079 C.ar      1 <0>        -0.1714
     25 C21         0.9016    0.8212    0.2484 C.ar      1 <0>         0.1402
     26 O3          0.6050    2.1471    0.2189 O.3       1 <0>        -0.4932
     27 O4         -0.8093   -2.3899    0.3953 O.3       1 <0>        -0.4968
     28 O5          7.1953    4.2017   -1.4729 O.3       1 <0>        -0.4805
     29 O6          8.9309    1.7655    2.2165 O.3       1 <0>        -0.4863
     30 C22         4.7721    1.5168    3.6954 C.2       1 <0>        -0.0935
     31 C23         4.5990    2.8142    3.7490 C.2       1 <0>        -0.2076
     32 C24         3.5898    0.6071    3.4816 C.3       1 <0>        -0.1141
     33 C25         4.5044    0.9036    8.2905 C.3       1 <0>        -0.1166
     34 H3          4.8131   -1.9621    6.7151 H         1 <0>         0.0648
     35 H4          3.3118   -1.2641    7.3688 H         1 <0>         0.0576
     36 H5          3.7403   -1.0115    5.6598 H         1 <0>         0.0691
     37 H6          6.4514    1.4227    6.5971 H         1 <0>         0.1050
     38 H7          5.3804   -0.8517    4.7720 H         1 <0>         0.0740
     39 H8          7.1229   -0.5889    5.0231 H         1 <0>         0.0712
     40 H9          5.8090   -0.4542    2.2366 H         1 <0>         0.0813
     41 H10         7.5211   -0.2518    2.6795 H         1 <0>         0.0768
     42 H11         9.0050    3.5324    0.2950 H         1 <0>         0.1439
     43 H12         3.8140    1.0075   -1.8407 H         1 <0>         0.1016
     44 H13         2.6826    2.2809   -1.7245 H         1 <0>         0.1159
     45 H14         3.5576   -1.2654    0.2250 H         1 <0>         0.1402
     46 H15         1.7517   -2.9328    0.3307 H         1 <0>         0.1358
     47 H16        -1.1486    0.2054    0.3267 H         1 <0>         0.1396
     48 H17         0.5469    2.5567    1.0929 H         1 <0>         0.3950
     49 H18        -1.1255   -2.6821   -0.4706 H         1 <0>         0.3965
     50 H19         6.9274    5.0897   -1.1994 H         1 <0>         0.4028
     51 H20         9.5819    1.1340    1.8811 H         1 <0>         0.4000
     52 H21         5.4463    3.4661    3.9022 H         1 <0>         0.0914
     53 H22         3.6090    3.2319    3.6400 H         1 <0>         0.0900
     54 H23         3.2189    0.2606    4.4462 H         1 <0>         0.0645
     55 H24         2.8008    1.1523    2.9635 H         1 <0>         0.0521
     56 H25         3.8945   -0.2495    2.8805 H         1 <0>         0.0683
     57 H26         5.1492    1.7764    8.3935 H         1 <0>         0.0587
     58 H27         3.4655    1.2256    8.2202 H         1 <0>         0.0642
     59 H28         4.6265    0.2570    9.1595 H         1 <0>         0.0620
@<TRIPOS>BOND
     1    1    2 1
     2    1   34 1
     3    1   35 1
     4    1   36 1
     5    2    3 2
     6    2   33 1
     7    3    4 1
     8    3   37 1
     9    4    5 1
    10    4   38 1
    11    4   39 1
    12    5    6 1
    13    5    7 1
    14    5   30 1
    15    7    8 1
    16    7   40 1
    17    7   41 1
    18    8   13 ar
    19    8    9 ar
    20    9   10 ar
    21    9   29 1
    22   10   11 ar
    23   10   42 1
    24   11   12 ar
    25   11   28 1
    26   12   18 1
    27   12   13 ar
    28   13   14 1
    29   14   15 1
    30   15   16 1
    31   15   17 1
    32   15   20 1
    33   17   18 1
    34   17   43 1
    35   17   44 1
    36   18   19 2
    37   20   25 ar
    38   20   21 ar
    39   21   22 ar
    40   21   45 1
    41   22   23 ar
    42   22   46 1
    43   23   24 ar
    44   23   27 1
    45   24   25 ar
    46   24   47 1
    47   25   26 1
    48   26   48 1
    49   27   49 1
    50   28   50 1
    51   29   51 1
    52   30   31 2
    53   30   32 1
    54   31   52 1
    55   31   53 1
    56   32   54 1
    57   32   55 1
    58   32   56 1
    59   33   57 1
    60   33   58 1
    61   33   59 1
@<TRIPOS>MOLECULE
ZINC02008850
   59    61     0     0     0
SMALL
USER_CHARGES
2-(2,4-dihydroxyphenyl)-5,7-dihydroxy-8-(2-isopropenyl-5-methyl-hex-4-enyl)-chroman-4-one
@<TRIPOS>ATOM
      1 C1          3.3436    4.6466    3.6562 C.3       1 <0>        -0.1182
      2 C2          3.5136    3.9445    4.9788 C.2       1 <0>        -0.1383
      3 C3          3.7221    2.6516    5.0120 C.2       1 <0>        -0.1573
      4 C4          3.6491    1.8438    3.7420 C.3       1 <0>        -0.0857
      5 C5          4.9925    1.1529    3.4990 C.3       1 <0>        -0.0365
      6 H1          5.7885    1.8974    3.4954 H         1 <0>         0.0700
      7 C6          4.9597    0.4346    2.1485 C.3       1 <0>        -0.0611
      8 C7          4.8632    1.4518    1.0408 C.ar      1 <0>        -0.1554
      9 C8          6.0152    2.0565    0.5536 C.ar      1 <0>         0.1972
     10 C9          5.9454    2.9947   -0.4685 C.ar      1 <0>        -0.2193
     11 C10         4.7198    3.3392   -1.0107 C.ar      1 <0>         0.2183
     12 C11         3.5521    2.7360   -0.5184 C.ar      1 <0>        -0.2896
     13 C12         3.6278    1.7805    0.5122 C.ar      1 <0>         0.2151
     14 O1          2.5097    1.1796    0.9829 O.3       1 <0>        -0.2938
     15 C13         1.2534    1.8327    0.8021 C.3       1 <0>         0.1539
     16 H2          1.2256    2.7416    1.4032 H         1 <0>         0.0895
     17 C14         1.0764    2.1931   -0.6802 C.3       1 <0>        -0.1818
     18 C15         2.2382    3.0910   -1.0660 C.2       1 <0>         0.4039
     19 O2          2.0876    4.0534   -1.7901 O.2       1 <0>        -0.4294
     20 C16         0.1411    0.9113    1.2319 C.ar      1 <0>        -0.1268
     21 C17         0.3335   -0.4571    1.2168 C.ar      1 <0>        -0.0587
     22 C18        -0.6843   -1.3045    1.6102 C.ar      1 <0>        -0.1524
     23 C19        -1.9030   -0.7830    2.0217 C.ar      1 <0>         0.1337
     24 C20        -2.0984    0.5892    2.0378 C.ar      1 <0>        -0.1717
     25 C21        -1.0754    1.4375    1.6424 C.ar      1 <0>         0.1411
     26 O3         -1.2641    2.7832    1.6566 O.3       1 <0>        -0.4932
     27 O4         -2.9039   -1.6170    2.4082 O.3       1 <0>        -0.4966
     28 O5          4.6476    4.2525   -2.0105 O.3       1 <0>        -0.4787
     29 O6          7.2209    1.7270    1.0812 O.3       1 <0>        -0.4845
     30 C22         5.2472    0.1505    4.5951 C.2       1 <0>        -0.1117
     31 C23         6.3145    0.2591    5.3469 C.2       1 <0>        -0.1970
     32 C24         4.2743   -0.9769    4.8262 C.3       1 <0>        -0.1220
     33 C25         3.4438    4.7297    6.2632 C.3       1 <0>        -0.1170
     34 H3          2.3025    4.5796    3.3404 H         1 <0>         0.0610
     35 H4          3.6243    5.6945    3.7624 H         1 <0>         0.0611
     36 H5          3.9811    4.1736    2.9092 H         1 <0>         0.0625
     37 H6          3.9463    2.1647    5.9496 H         1 <0>         0.1082
     38 H7          3.4231    2.5034    2.9042 H         1 <0>         0.0709
     39 H8          2.8653    1.0919    3.8341 H         1 <0>         0.0766
     40 H9          4.0948   -0.2276    2.1101 H         1 <0>         0.0830
     41 H10         5.8711   -0.1506    2.0260 H         1 <0>         0.0831
     42 H11         6.8486    3.4555   -0.8406 H         1 <0>         0.1454
     43 H12         1.0757    1.3570   -1.2287 H         1 <0>         0.1023
     44 H13         0.1345    2.7228   -0.8235 H         1 <0>         0.1171
     45 H14         1.2811   -0.8648    0.8972 H         1 <0>         0.1410
     46 H15        -0.5314   -2.3735    1.5979 H         1 <0>         0.1364
     47 H16        -3.0475    0.9967    2.3534 H         1 <0>         0.1400
     48 H17        -1.0242    3.2053    2.4929 H         1 <0>         0.3952
     49 H18        -3.4880   -1.8907    1.6878 H         1 <0>         0.3967
     50 H19         4.5442    5.1638   -1.7041 H         1 <0>         0.4024
     51 H20         7.5207    2.3239    1.7804 H         1 <0>         0.3994
     52 H21         7.0118    1.0671    5.1813 H         1 <0>         0.0948
     53 H22         6.4971   -0.4593    6.1324 H         1 <0>         0.0963
     54 H23         4.6137   -1.8648    4.2928 H         1 <0>         0.0671
     55 H24         4.2162   -1.1938    5.8928 H         1 <0>         0.0619
     56 H25         3.2892   -0.6875    4.4601 H         1 <0>         0.0648
     57 H26         3.5883    4.0571    7.1086 H         1 <0>         0.0599
     58 H27         4.2242    5.4906    6.2667 H         1 <0>         0.0624
     59 H28         2.4683    5.2094    6.3432 H         1 <0>         0.0646
@<TRIPOS>BOND
     1    1    2 1
     2    1   34 1
     3    1   35 1
     4    1   36 1
     5    2    3 2
     6    2   33 1
     7    3    4 1
     8    3   37 1
     9    4    5 1
    10    4   38 1
    11    4   39 1
    12    5    6 1
    13    5    7 1
    14    5   30 1
    15    7    8 1
    16    7   40 1
    17    7   41 1
    18    8   13 ar
    19    8    9 ar
    20    9   10 ar
    21    9   29 1
    22   10   11 ar
    23   10   42 1
    24   11   12 ar
    25   11   28 1
    26   12   18 1
    27   12   13 ar
    28   13   14 1
    29   14   15 1
    30   15   16 1
    31   15   17 1
    32   15   20 1
    33   17   18 1
    34   17   43 1
    35   17   44 1
    36   18   19 2
    37   20   25 ar
    38   20   21 ar
    39   21   22 ar
    40   21   45 1
    41   22   23 ar
    42   22   46 1
    43   23   24 ar
    44   23   27 1
    45   24   25 ar
    46   24   47 1
    47   25   26 1
    48   26   48 1
    49   27   49 1
    50   28   50 1
    51   29   51 1
    52   30   31 2
    53   30   32 1
    54   31   52 1
    55   31   53 1
    56   32   54 1
    57   32   55 1
    58   32   56 1
    59   33   57 1
    60   33   58 1
    61   33   59 1
@<TRIPOS>MOLECULE
ZINC14727558
   57    59     0     0     0
SMALL
USER_CHARGES

@<TRIPOS>ATOM
      1 C1         -0.8520   -0.5284   -0.8456 C.3       1 <0>        -0.1241
      2 C2         -0.2172   -1.8664   -0.5663 C.2       1 <0>        -0.1246
      3 C3          0.1305   -2.1839    0.6561 C.2       1 <0>        -0.1648
      4 C4         -0.2138   -1.2654    1.8002 C.3       1 <0>        -0.0458
      5 C5         -1.0212   -2.0199    2.8248 C.ar      1 <0>        -0.1364
      6 C6         -2.4042   -2.0513    2.7309 C.ar      1 <0>         0.1919
      7 C7         -3.1624   -2.7432    3.6686 C.ar      1 <0>        -0.2029
      8 C8         -2.5412   -3.4099    4.7089 C.ar      1 <0>         0.2136
      9 C9         -1.1450   -3.3826    4.8094 C.ar      1 <0>        -0.2613
     10 C10        -0.3806   -2.6868    3.8570 C.ar      1 <0>         0.1814
     11 O1          0.9654   -2.6699    3.9600 O.3       1 <0>        -0.2109
     12 C11         1.6167   -3.3048    4.9478 C.2       1 <0>         0.1856
     13 C12         0.9687   -4.0110    5.9153 C.2       1 <0>        -0.2319
     14 C13        -0.4432   -4.0785    5.9017 C.2       1 <0>         0.4270
     15 O2         -1.0563   -4.7011    6.7539 O.2       1 <0>        -0.4429
     16 C14         1.7510   -4.7049    7.0005 C.3       1 <0>        -0.0288
     17 C15         1.8069   -3.8233    8.2215 C.2       1 <0>        -0.1706
     18 C16         1.3175   -4.2489    9.3596 C.2       1 <0>        -0.1148
     19 C17         0.6831   -5.6132    9.4439 C.3       1 <0>        -0.1271
     20 C18         1.3889   -3.3741   10.5847 C.3       1 <0>        -0.1183
     21 C19         3.0872   -3.2354    4.9860 C.ar      1 <0>        -0.0960
     22 C20         3.7262   -2.0182    5.2429 C.ar      1 <0>        -0.0488
     23 C21         5.1005   -1.9576    5.2782 C.ar      1 <0>        -0.1538
     24 C22         5.8582   -3.1037    5.0587 C.ar      1 <0>         0.1482
     25 C23         5.2347   -4.3161    4.8031 C.ar      1 <0>        -0.1774
     26 C24         3.8530   -4.3913    4.7706 C.ar      1 <0>         0.1639
     27 O3          3.2411   -5.5776    4.5258 O.3       1 <0>        -0.4860
     28 O4          7.2136   -3.0351    5.0944 O.3       1 <0>        -0.4952
     29 O5         -3.2795   -4.0852    5.6259 O.3       1 <0>        -0.4719
     30 O6         -3.0240   -1.3998    1.7138 O.3       1 <0>        -0.4828
     31 C25         0.0176   -2.8390   -1.6932 C.3       1 <0>        -0.1198
     32 H1         -0.2065    0.2655   -0.4702 H         1 <0>         0.0667
     33 H2         -0.9883   -0.4082   -1.9204 H         1 <0>         0.0612
     34 H3         -1.8205   -0.4749   -0.3484 H         1 <0>         0.0732
     35 H4          0.6638   -3.1041    0.8441 H         1 <0>         0.1071
     36 H5          0.7037   -0.8977    2.2596 H         1 <0>         0.0847
     37 H6         -0.7962   -0.4230    1.4271 H         1 <0>         0.0940
     38 H7         -4.2390   -2.7598    3.5846 H         1 <0>         0.1488
     39 H8          1.2639   -5.6464    7.2542 H         1 <0>         0.0901
     40 H9          2.7634   -4.9029    6.6487 H         1 <0>         0.0873
     41 H10         2.2505   -2.8406    8.1581 H         1 <0>         0.1034
     42 H11         1.4554   -6.3631    9.6152 H         1 <0>         0.0632
     43 H12        -0.0305   -5.6318   10.2677 H         1 <0>         0.0591
     44 H13         0.1654   -5.8315    8.5099 H         1 <0>         0.0813
     45 H14         0.4943   -2.7539   10.6409 H         1 <0>         0.0662
     46 H15         1.4537   -3.9999   11.4748 H         1 <0>         0.0630
     47 H16         2.2703   -2.7357   10.5244 H         1 <0>         0.0603
     48 H17         3.1415   -1.1263    5.4130 H         1 <0>         0.1389
     49 H18         5.5927   -1.0170    5.4767 H         1 <0>         0.1411
     50 H19         5.8275   -5.2027    4.6334 H         1 <0>         0.1448
     51 H20         3.1474   -5.7853    3.5860 H         1 <0>         0.3974
     52 H21         7.5923   -3.1902    5.9706 H         1 <0>         0.3996
     53 H22        -3.4438   -5.0097    5.3949 H         1 <0>         0.4011
     54 H23        -3.1532   -1.9395    0.9219 H         1 <0>         0.3995
     55 H24         1.0040   -2.6654   -2.1234 H         1 <0>         0.0669
     56 H25        -0.0378   -3.8582   -1.3110 H         1 <0>         0.0613
     57 H26        -0.7435   -2.6967   -2.4604 H         1 <0>         0.0652
@<TRIPOS>BOND
     1    1    2 1
     2    1   32 1
     3    1   33 1
     4    1   34 1
     5    2    3 2
     6    2   31 1
     7    3    4 1
     8    3   35 1
     9    4    5 1
    10    4   36 1
    11    4   37 1
    12    5   10 ar
    13    5    6 ar
    14    6    7 ar
    15    6   30 1
    16    7    8 ar
    17    7   38 1
    18    8    9 ar
    19    8   29 1
    20    9   14 1
    21    9   10 ar
    22   10   11 1
    23   11   12 1
    24   12   13 2
    25   12   21 1
    26   13   14 1
    27   13   16 1
    28   14   15 2
    29   16   17 1
    30   16   39 1
    31   16   40 1
    32   17   18 2
    33   17   41 1
    34   18   19 1
    35   18   20 1
    36   19   42 1
    37   19   43 1
    38   19   44 1
    39   20   45 1
    40   20   46 1
    41   20   47 1
    42   21   26 ar
    43   21   22 ar
    44   22   23 ar
    45   22   48 1
    46   23   24 ar
    47   23   49 1
    48   24   25 ar
    49   24   28 1
    50   25   26 ar
    51   25   50 1
    52   26   27 1
    53   27   51 1
    54   28   52 1
    55   29   53 1
    56   30   54 1
    57   31   55 1
    58   31   56 1
    59   31   57 1
@<TRIPOS>MOLECULE
ZINC34417080
   57    59     0     0     0
SMALL
USER_CHARGES

@<TRIPOS>ATOM
      1 C1          0.2875    1.2839    0.2967 C.3       1 <0>         0.0618
      2 N1          0.2591   -0.1722    0.1375 N.am      1 <0>        -0.5594
      3 C2         -0.8545   -0.9311    0.2117 C.2       1 <0>         0.5442
      4 O1         -1.9896   -0.5569    0.4158 O.2       1 <0>        -0.3962
      5 C3         -0.3793   -2.3526   -0.0157 C.3       1 <0>         0.1138
      6 N2          1.0730   -2.2134   -0.2079 N.pl3     1 <0>        -0.6204
      7 C4          1.3607   -0.9520   -0.1137 C.cat     1 <0>         0.7257
      8 N3          2.6333   -0.4502   -0.2471 N.pl3     1 <0>        -0.7833
      9 C5         -0.6781   -3.2208    1.2082 C.3       1 <0>        -0.1238
     10 C6          0.0282   -2.6360    2.4330 C.3       1 <0>        -0.1258
     11 C7         -0.2706   -3.5043    3.6569 C.3       1 <0>        -0.0840
     12 C8         -1.7646   -3.4344    3.9793 C.3       1 <0>        -0.1178
     13 C9         -2.0633   -4.3026    5.2032 C.3       1 <0>        -0.1219
     14 C10        -1.2588   -3.7912    6.3999 C.3       1 <0>        -0.1234
     15 C11         0.2352   -3.8611    6.0775 C.3       1 <0>        -0.1216
     16 C12         0.5339   -2.9929    4.8536 C.3       1 <0>        -0.1135
     17 C13        -1.0323   -2.9432   -1.2669 C.3       1 <0>        -0.1204
     18 C14        -0.5253   -2.2015   -2.5053 C.3       1 <0>        -0.0966
     19 C15        -1.0848   -0.7775   -2.5115 C.3       1 <0>        -0.1341
     20 C16        -0.5778   -0.0357   -3.7499 C.3       1 <0>        -0.1155
     21 C17        -1.0400   -0.7708   -5.0096 C.3       1 <0>        -0.1246
     22 C18        -0.4805   -2.1948   -5.0034 C.3       1 <0>        -0.1211
     23 C19        -0.9876   -2.9366   -3.7650 C.3       1 <0>        -0.1130
     24 H1          1.3111    1.6417    0.1853 H         1 <0>         0.0988
     25 H2         -0.3433    1.7449   -0.4634 H         1 <0>         0.1071
     26 H3         -0.0841    1.5484    1.2867 H         1 <0>         0.1076
     27 H4          2.7898    0.5034   -0.1635 H         1 <0>         0.4421
     28 H5          3.3749   -1.0497   -0.4249 H         1 <0>         0.4453
     29 H6         -1.7535   -3.2423    1.3847 H         1 <0>         0.1157
     30 H7         -0.3186   -4.2345    1.0310 H         1 <0>         0.1061
     31 H8          1.1036   -2.6146    2.2565 H         1 <0>         0.0625
     32 H9         -0.3313   -1.6224    2.6101 H         1 <0>         0.0624
     33 H10         0.0078   -4.5369    3.4465 H         1 <0>         0.0780
     34 H11        -2.0429   -2.4017    4.1897 H         1 <0>         0.0628
     35 H12        -2.3377   -3.7987    3.1268 H         1 <0>         0.0636
     36 H13        -3.1277   -4.2528    5.4329 H         1 <0>         0.0659
     37 H14        -1.7850   -5.3352    4.9928 H         1 <0>         0.0637
     38 H15        -1.5372   -2.7586    6.6103 H         1 <0>         0.0618
     39 H16        -1.4716   -4.4097    7.2718 H         1 <0>         0.0656
     40 H17         0.8083   -3.4968    6.9300 H         1 <0>         0.0650
     41 H18         0.5136   -4.8937    5.8671 H         1 <0>         0.0636
     42 H19         1.5983   -3.0427    4.6239 H         1 <0>         0.0594
     43 H20         0.2556   -1.9602    5.0640 H         1 <0>         0.0612
     44 H21        -0.7763   -3.9998   -1.3461 H         1 <0>         0.1074
     45 H22        -2.1148   -2.8359   -1.1970 H         1 <0>         0.1130
     46 H23         0.5639   -2.1638   -2.4857 H         1 <0>         0.0681
     47 H24        -2.1740   -0.8151   -2.5312 H         1 <0>         0.0791
     48 H25        -0.7555   -0.2538   -1.6141 H         1 <0>         0.0466
     49 H26        -0.9764    0.9788   -3.7544 H         1 <0>         0.0676
     50 H27         0.5114    0.0020   -3.7303 H         1 <0>         0.0572
     51 H28        -2.1292   -0.8085   -5.0292 H         1 <0>         0.0673
     52 H29        -0.6788   -0.2424   -5.8919 H         1 <0>         0.0685
     53 H30        -0.8098   -2.7185   -5.9008 H         1 <0>         0.0713
     54 H31         0.6087   -2.1571   -4.9838 H         1 <0>         0.0606
     55 H32        -0.5889   -3.9511   -3.7606 H         1 <0>         0.0701
     56 H33        -2.0767   -2.9743   -3.7846 H         1 <0>         0.0722
     57 H34         1.7003   -2.9334   -0.3785 H         1 <0>         0.4636
@<TRIPOS>BOND
     1    1    2 1
     2    1   24 1
     3    1   25 1
     4    1   26 1
     5    2    7 1
     6    2    3 am
     7    3    4 2
     8    3    5 1
     9    5    6 1
    10    5    9 1
    11    5   17 1
    12    6    7 2
    13    6   57 1
    14    7    8 1
    15    8   27 1
    16    8   28 1
    17    9   10 1
    18    9   29 1
    19    9   30 1
    20   10   11 1
    21   10   31 1
    22   10   32 1
    23   11   16 1
    24   11   12 1
    25   11   33 1
    26   12   13 1
    27   12   34 1
    28   12   35 1
    29   13   14 1
    30   13   36 1
    31   13   37 1
    32   14   15 1
    33   14   38 1
    34   14   39 1
    35   15   16 1
    36   15   40 1
    37   15   41 1
    38   16   42 1
    39   16   43 1
    40   17   18 1
    41   17   44 1
    42   17   45 1
    43   18   23 1
    44   18   19 1
    45   18   46 1
    46   19   20 1
    47   19   47 1
    48   19   48 1
    49   20   21 1
    50   20   49 1
    51   20   50 1
    52   21   22 1
    53   21   51 1
    54   21   52 1
    55   22   23 1
    56   22   53 1
    57   22   54 1
    58   23   55 1
    59   23   56 1
@<TRIPOS>MOLECULE
ZINC34417080
   57    59     0     0     0
SMALL
USER_CHARGES

@<TRIPOS>ATOM
      1 C1          0.2859    1.2744    0.3086 C.3       1 <0>         0.0598
      2 N1          0.2566   -0.1809    0.1427 N.am      1 <0>        -0.5596
      3 C2         -0.8590   -0.9315    0.2115 C.2       1 <0>         0.5434
      4 O1         -1.9872   -0.5368    0.4157 O.2       1 <0>        -0.4021
      5 C3         -0.4287   -2.3647   -0.0168 C.3       1 <0>         0.1260
      6 N2          1.0280   -2.2828   -0.2118 N.pl3     1 <0>        -0.6597
      7 C4          1.3630   -0.9552   -0.1089 C.cat     1 <0>         0.7250
      8 N3          2.5730   -0.4907   -0.2308 N.pl3     1 <0>        -0.7390
      9 C5         -0.7568   -3.2227    1.2067 C.3       1 <0>        -0.1238
     10 C6         -0.0343   -2.6603    2.4326 C.3       1 <0>        -0.1234
     11 C7         -0.3625   -3.5183    3.6561 C.3       1 <0>        -0.0844
     12 C8         -1.8540   -3.4009    3.9761 C.3       1 <0>        -0.1176
     13 C9         -2.1821   -4.2589    5.1997 C.3       1 <0>        -0.1220
     14 C10        -1.3637   -3.7731    6.3976 C.3       1 <0>        -0.1233
     15 C11         0.1278   -3.8904    6.0776 C.3       1 <0>        -0.1217
     16 C12         0.4560   -3.0324    4.8540 C.3       1 <0>        -0.1132
     17 C13        -1.1041   -2.9330   -1.2665 C.3       1 <0>        -0.1205
     18 C14        -0.5778   -2.2063   -2.5058 C.3       1 <0>        -0.0947
     19 C15        -1.0928   -0.7656   -2.5093 C.3       1 <0>        -0.1337
     20 C16        -0.5666   -0.0389   -3.7487 C.3       1 <0>        -0.1155
     21 C17        -1.0552   -0.7583   -5.0075 C.3       1 <0>        -0.1245
     22 C18        -0.5402   -2.1990   -5.0040 C.3       1 <0>        -0.1209
     23 C19        -1.0664   -2.9257   -3.7647 C.3       1 <0>        -0.1136
     24 H1          1.3101    1.6317    0.2017 H         1 <0>         0.0973
     25 H2         -0.3423    1.7394   -0.4512 H         1 <0>         0.1084
     26 H3         -0.0883    1.5348    1.2986 H         1 <0>         0.1088
     27 H4          2.7383    0.4610   -0.1432 H         1 <0>         0.4465
     28 H5         -1.8326   -3.2099    1.3815 H         1 <0>         0.1118
     29 H6         -0.4294   -4.2473    1.0303 H         1 <0>         0.1038
     30 H7          1.0415   -2.6730    2.2578 H         1 <0>         0.0629
     31 H8         -0.3617   -1.6357    2.6089 H         1 <0>         0.0604
     32 H9         -0.1167   -4.5593    3.4464 H         1 <0>         0.0775
     33 H10        -2.0998   -2.3599    4.1859 H         1 <0>         0.0623
     34 H11        -2.4371   -3.7471    3.1227 H         1 <0>         0.0637
     35 H12        -3.2447   -4.1753    5.4277 H         1 <0>         0.0656
     36 H13        -1.9364   -5.2999    4.9899 H         1 <0>         0.0636
     37 H14        -1.6095   -2.7320    6.6074 H         1 <0>         0.0616
     38 H15        -1.5975   -4.3843    7.2693 H         1 <0>         0.0654
     39 H16         0.7109   -3.5443    6.9310 H         1 <0>         0.0647
     40 H17         0.3736   -4.9315    5.8678 H         1 <0>         0.0635
     41 H18         1.5186   -3.1161    4.6260 H         1 <0>         0.0592
     42 H19         0.2102   -1.9914    5.0638 H         1 <0>         0.0607
     43 H20        -0.8819   -3.9970   -1.3475 H         1 <0>         0.1050
     44 H21        -2.1824   -2.7916   -1.1929 H         1 <0>         0.1091
     45 H22         0.5120   -2.2026   -2.4894 H         1 <0>         0.0694
     46 H23        -2.1827   -0.7694   -2.5258 H         1 <0>         0.0782
     47 H24        -0.7448   -0.2531   -1.6125 H         1 <0>         0.0462
     48 H25        -0.9335    0.9875   -3.7512 H         1 <0>         0.0669
     49 H26         0.5233   -0.0352   -3.7322 H         1 <0>         0.0564
     50 H27        -2.1450   -0.7620   -5.0240 H         1 <0>         0.0672
     51 H28        -0.6803   -0.2406   -5.8904 H         1 <0>         0.0680
     52 H29        -0.8883   -2.7114   -5.9008 H         1 <0>         0.0708
     53 H30         0.5497   -2.1952   -4.9876 H         1 <0>         0.0603
     54 H31        -0.6995   -3.9521   -3.7622 H         1 <0>         0.0697
     55 H32        -2.1563   -2.9294   -3.7811 H         1 <0>         0.0714
     56 H33         1.6325   -3.0218   -0.3833 H         1 <0>         0.4617
     57 H34         3.3093   -1.0965   -0.4091 H         1 <0>         0.4509
@<TRIPOS>BOND
     1    1    2 1
     2    1   24 1
     3    1   25 1
     4    1   26 1
     5    2    7 1
     6    2    3 am
     7    3    4 2
     8    3    5 1
     9    5    6 1
    10    5    9 1
    11    5   17 1
    12    6    7 1
    13    6   56 1
    14    7    8 2
    15    8   27 1
    16    8   57 1
    17    9   10 1
    18    9   28 1
    19    9   29 1
    20   10   11 1
    21   10   30 1
    22   10   31 1
    23   11   16 1
    24   11   12 1
    25   11   32 1
    26   12   13 1
    27   12   33 1
    28   12   34 1
    29   13   14 1
    30   13   35 1
    31   13   36 1
    32   14   15 1
    33   14   37 1
    34   14   38 1
    35   15   16 1
    36   15   39 1
    37   15   40 1
    38   16   41 1
    39   16   42 1
    40   17   18 1
    41   17   43 1
    42   17   44 1
    43   18   23 1
    44   18   19 1
    45   18   45 1
    46   19   20 1
    47   19   46 1
    48   19   47 1
    49   20   21 1
    50   20   48 1
    51   20   49 1
    52   21   22 1
    53   21   50 1
    54   21   51 1
    55   22   23 1
    56   22   52 1
    57   22   53 1
    58   23   54 1
    59   23   55 1
@<TRIPOS>MOLECULE
ZINC34417080
   56    58     0     0     0
SMALL
USER_CHARGES

@<TRIPOS>ATOM
      1 C1          0.2859    1.2744    0.3086 C.3       1 <0>         0.0835
      2 N1          0.2566   -0.1809    0.1427 N.am      1 <0>        -0.6006
      3 C2         -0.8590   -0.9315    0.2115 C.2       1 <0>         0.5409
      4 O1         -1.9872   -0.5368    0.4157 O.2       1 <0>        -0.4810
      5 C3         -0.4287   -2.3647   -0.0168 C.3       1 <0>         0.1376
      6 N2          1.0280   -2.2828   -0.2118 N.pl3     1 <0>        -0.7018
      7 C4          1.3630   -0.9552   -0.1089 C.2       1 <0>         0.6206
      8 N3          2.5730   -0.4907   -0.2308 N.2       1 <0>        -0.7709
      9 C5         -0.7568   -3.2227    1.2067 C.3       1 <0>        -0.1163
     10 C6         -0.0343   -2.6603    2.4326 C.3       1 <0>        -0.1160
     11 C7         -0.3625   -3.5183    3.6561 C.3       1 <0>        -0.0831
     12 C8         -1.8540   -3.4009    3.9761 C.3       1 <0>        -0.1166
     13 C9         -2.1821   -4.2589    5.1997 C.3       1 <0>        -0.1200
     14 C10        -1.3637   -3.7731    6.3976 C.3       1 <0>        -0.1211
     15 C11         0.1278   -3.8904    6.0776 C.3       1 <0>        -0.1196
     16 C12         0.4560   -3.0324    4.8540 C.3       1 <0>        -0.1141
     17 C13        -1.1041   -2.9330   -1.2665 C.3       1 <0>        -0.1143
     18 C14        -0.5778   -2.2063   -2.5058 C.3       1 <0>        -0.0898
     19 C15        -1.0928   -0.7656   -2.5093 C.3       1 <0>        -0.1317
     20 C16        -0.5666   -0.0389   -3.7487 C.3       1 <0>        -0.1152
     21 C17        -1.0552   -0.7583   -5.0075 C.3       1 <0>        -0.1198
     22 C18        -0.5402   -2.1990   -5.0040 C.3       1 <0>        -0.1193
     23 C19        -1.0664   -2.9257   -3.7647 C.3       1 <0>        -0.1116
     24 H1          1.3101    1.6317    0.2017 H         1 <0>         0.0841
     25 H2         -0.3423    1.7394   -0.4512 H         1 <0>         0.0780
     26 H3         -0.0883    1.5348    1.2986 H         1 <0>         0.0780
     27 H4          2.7383    0.4610   -0.1432 H         1 <0>         0.3475
     28 H5         -1.8326   -3.2099    1.3815 H         1 <0>         0.0895
     29 H6         -0.4294   -4.2473    1.0303 H         1 <0>         0.0850
     30 H7          1.0415   -2.6730    2.2578 H         1 <0>         0.0696
     31 H8         -0.3617   -1.6357    2.6089 H         1 <0>         0.0559
     32 H9         -0.1167   -4.5593    3.4464 H         1 <0>         0.0719
     33 H10        -2.0998   -2.3599    4.1859 H         1 <0>         0.0606
     34 H11        -2.4371   -3.7471    3.1227 H         1 <0>         0.0637
     35 H12        -3.2447   -4.1753    5.4277 H         1 <0>         0.0610
     36 H13        -1.9364   -5.2999    4.9899 H         1 <0>         0.0611
     37 H14        -1.6095   -2.7320    6.6074 H         1 <0>         0.0602
     38 H15        -1.5975   -4.3843    7.2693 H         1 <0>         0.0604
     39 H16         0.7109   -3.5443    6.9310 H         1 <0>         0.0606
     40 H17         0.3736   -4.9315    5.8678 H         1 <0>         0.0613
     41 H18         1.5186   -3.1161    4.6260 H         1 <0>         0.0607
     42 H19         0.2102   -1.9914    5.0638 H         1 <0>         0.0595
     43 H20        -0.8819   -3.9970   -1.3475 H         1 <0>         0.0857
     44 H21        -2.1824   -2.7916   -1.1929 H         1 <0>         0.0870
     45 H22         0.5120   -2.2026   -2.4894 H         1 <0>         0.0797
     46 H23        -2.1827   -0.7694   -2.5258 H         1 <0>         0.0640
     47 H24        -0.7448   -0.2531   -1.6125 H         1 <0>         0.0648
     48 H25        -0.9335    0.9875   -3.7512 H         1 <0>         0.0590
     49 H26         0.5233   -0.0352   -3.7322 H         1 <0>         0.0592
     50 H27        -2.1450   -0.7620   -5.0240 H         1 <0>         0.0613
     51 H28        -0.6803   -0.2406   -5.8904 H         1 <0>         0.0608
     52 H29        -0.8883   -2.7114   -5.9008 H         1 <0>         0.0624
     53 H30         0.5497   -2.1952   -4.9876 H         1 <0>         0.0611
     54 H31        -0.6995   -3.9521   -3.7622 H         1 <0>         0.0633
     55 H32        -2.1563   -2.9294   -3.7811 H         1 <0>         0.0628
     56 H33         1.6325   -3.0218   -0.3833 H         1 <0>         0.4405
@<TRIPOS>BOND
     1    1    2 1
     2    1   24 1
     3    1   25 1
     4    1   26 1
     5    2    7 1
     6    2    3 am
     7    3    4 2
     8    3    5 1
     9    5    6 1
    10    5    9 1
    11    5   17 1
    12    6    7 1
    13    6   56 1
    14    7    8 2
    15    8   27 1
    16    9   10 1
    17    9   28 1
    18    9   29 1
    19   10   11 1
    20   10   30 1
    21   10   31 1
    22   11   16 1
    23   11   12 1
    24   11   32 1
    25   12   13 1
    26   12   33 1
    27   12   34 1
    28   13   14 1
    29   13   35 1
    30   13   36 1
    31   14   15 1
    32   14   37 1
    33   14   38 1
    34   15   16 1
    35   15   39 1
    36   15   40 1
    37   16   41 1
    38   16   42 1
    39   17   18 1
    40   17   43 1
    41   17   44 1
    42   18   23 1
    43   18   19 1
    44   18   45 1
    45   19   20 1
    46   19   46 1
    47   19   47 1
    48   20   21 1
    49   20   48 1
    50   20   49 1
    51   21   22 1
    52   21   50 1
    53   21   51 1
    54   22   23 1
    55   22   52 1
    56   22   53 1
    57   23   54 1
    58   23   55 1
@<TRIPOS>MOLECULE
ZINC03984030
   58    63     0     0     0
SMALL
USER_CHARGES
8-[5-(5,7-dihydroxy-4-oxo-chromen-2-yl)-2-hydroxy-phenyl]-5,7-dihydroxy-2-(4-hydroxyphenyl)chromen-4-one
@<TRIPOS>ATOM
      1 C1         -6.6020    1.8042    6.0990 C.ar      1 <0>        -0.0607
      2 C2         -5.9382    1.4440    7.2507 C.ar      1 <0>        -0.1468
      3 C3         -4.7115    0.7954    7.1742 C.ar      1 <0>         0.1378
      4 C4         -4.1521    0.5021    5.9364 C.ar      1 <0>        -0.1491
      5 C5         -4.8118    0.8534    4.7796 C.ar      1 <0>        -0.0601
      6 C6         -6.0457    1.5059    4.8519 C.ar      1 <0>        -0.0854
      7 C7         -6.7560    1.8841    3.6156 C.2       1 <0>         0.2075
      8 C8         -7.9553    2.5182    3.7175 C.2       1 <0>        -0.3096
      9 C9         -8.6505    2.8878    2.5419 C.2       1 <0>         0.4236
     10 O1         -9.7281    3.4581    2.5954 O.2       1 <0>        -0.4510
     11 C10        -8.0226    2.5578    1.2508 C.ar      1 <0>        -0.2639
     12 C11        -8.6408    2.8871    0.0370 C.ar      1 <0>         0.2260
     13 C12        -8.0238    2.5633   -1.1580 C.ar      1 <0>        -0.2031
     14 C13        -6.7962    1.9146   -1.1593 C.ar      1 <0>         0.2147
     15 C14        -6.1693    1.5806    0.0441 C.ar      1 <0>        -0.1114
     16 C15        -6.7847    1.8965    1.2584 C.ar      1 <0>         0.1942
     17 O2         -6.1949    1.5893    2.4322 O.3       1 <0>        -0.2149
     18 C16        -4.8586    0.8881    0.0326 C.ar      1 <0>        -0.0643
     19 C17        -3.6811    1.6258    0.0345 C.ar      1 <0>        -0.0359
     20 C18        -2.4507    0.9671    0.0193 C.ar      1 <0>        -0.0795
     21 C19        -2.4076   -0.4306    0.0120 C.ar      1 <0>        -0.0561
     22 C20        -3.5773   -1.1593    0.0145 C.ar      1 <0>        -0.1433
     23 C21        -4.8042   -0.5114    0.0247 C.ar      1 <0>         0.1513
     24 O3         -5.9530   -1.2346    0.0276 O.3       1 <0>        -0.4914
     25 C22        -1.1969    1.7446    0.0172 C.2       1 <0>         0.2090
     26 C23        -0.0126    1.0758    0.0080 C.2       1 <0>        -0.3096
     27 C24         1.2002    1.8049    0.0003 C.2       1 <0>         0.4229
     28 O4          2.2808    1.2378   -0.0122 O.2       1 <0>        -0.4531
     29 C25         1.1075    3.2746    0.0085 C.ar      1 <0>        -0.2660
     30 C26         2.2563    4.0758    0.0013 C.ar      1 <0>         0.2193
     31 C27         2.1265    5.4522    0.0089 C.ar      1 <0>        -0.2047
     32 C28         0.8637    6.0348    0.0232 C.ar      1 <0>         0.1929
     33 C29        -0.2774    5.2478    0.0309 C.ar      1 <0>        -0.1830
     34 C30        -0.1673    3.8660    0.0234 C.ar      1 <0>         0.1835
     35 O5         -1.2685    3.0851    0.0294 O.3       1 <0>        -0.2179
     36 O6          0.7475    7.3873    0.0302 O.3       1 <0>        -0.4872
     37 O7          3.4876    3.5054   -0.0136 O.3       1 <0>        -0.4723
     38 O8         -6.2009    1.6021   -2.3382 O.3       1 <0>        -0.4809
     39 O9         -9.8401    3.5219    0.0339 O.3       1 <0>        -0.4713
     40 O10        -4.0576    0.4477    8.3120 O.3       1 <0>        -0.4966
     41 H1         -7.5530    2.3125    6.1593 H         1 <0>         0.1416
     42 H2         -6.3694    1.6701    8.2147 H         1 <0>         0.1417
     43 H3         -3.1984   -0.0018    5.8814 H         1 <0>         0.1389
     44 H4         -4.3761    0.6254    3.8180 H         1 <0>         0.1375
     45 H5         -8.3735    2.7383    4.6886 H         1 <0>         0.1643
     46 H6         -8.4990    2.8165   -2.0942 H         1 <0>         0.1534
     47 H7         -3.7179    2.7051    0.0447 H         1 <0>         0.1398
     48 H8         -1.4554   -0.9401    0.0047 H         1 <0>         0.1436
     49 H9         -3.5389   -2.2386    0.0088 H         1 <0>         0.1450
     50 H10        -6.2808   -1.4486    0.9118 H         1 <0>         0.3974
     51 H11         0.0021   -0.0041    0.0020 H         1 <0>         0.1641
     52 H12         3.0078    6.0765    0.0034 H         1 <0>         0.1502
     53 H13        -1.2527    5.7115    0.0424 H         1 <0>         0.1530
     54 H14         0.7056    7.7831   -0.8511 H         1 <0>         0.4041
     55 H15         3.8358    3.3444   -0.9013 H         1 <0>         0.4032
     56 H16        -6.4413    0.7307   -2.6814 H         1 <0>         0.4051
     57 H17       -10.6010    2.9252    0.0313 H         1 <0>         0.4046
     58 H18        -3.4554    1.1280    8.6431 H         1 <0>         0.3992
@<TRIPOS>BOND
     1    1    6 ar
     2    1    2 ar
     3    1   41 1
     4    2    3 ar
     5    2   42 1
     6    3    4 ar
     7    3   40 1
     8    4    5 ar
     9    4   43 1
    10    5    6 ar
    11    5   44 1
    12    6    7 1
    13    7   17 1
    14    7    8 2
    15    8    9 1
    16    8   45 1
    17    9   10 2
    18    9   11 1
    19   11   16 ar
    20   11   12 ar
    21   12   13 ar
    22   12   39 1
    23   13   14 ar
    24   13   46 1
    25   14   15 ar
    26   14   38 1
    27   15   16 ar
    28   15   18 1
    29   16   17 1
    30   18   23 ar
    31   18   19 ar
    32   19   20 ar
    33   19   47 1
    34   20   21 ar
    35   20   25 1
    36   21   22 ar
    37   21   48 1
    38   22   23 ar
    39   22   49 1
    40   23   24 1
    41   24   50 1
    42   25   35 1
    43   25   26 2
    44   26   27 1
    45   26   51 1
    46   27   28 2
    47   27   29 1
    48   29   34 ar
    49   29   30 ar
    50   30   31 ar
    51   30   37 1
    52   31   32 ar
    53   31   52 1
    54   32   33 ar
    55   32   36 1
    56   33   34 ar
    57   33   53 1
    58   34   35 1
    59   36   54 1
    60   37   55 1
    61   38   56 1
    62   39   57 1
    63   40   58 1
