@<TRIPOS>MOLECULE
ZINC29464717
   76    79     0     0     0
SMALL
USER_CHARGES
N-[4-(2-tert-butylphenyl)sulfonylphenyl]-2,3,4-trihydroxy-5-[(2-isopropylphenyl)methyl]benzamide
@<TRIPOS>ATOM
      1 C1         -1.0845   12.3592   -3.9933 C.3       1 <0>        -0.1475
      2 C2          0.2256   12.3787   -4.7834 C.3       1 <0>        -0.0654
      3 C3          0.0622   11.5549   -6.0623 C.3       1 <0>        -0.1471
      4 C4          0.5745   13.8001   -5.1425 C.ar      1 <0>        -0.0690
      5 C5         -0.3164   14.5681   -5.8690 C.ar      1 <0>        -0.1162
      6 C6          0.0035   15.8719   -6.1980 C.ar      1 <0>        -0.1199
      7 C7          1.2143   16.4080   -5.8007 C.ar      1 <0>        -0.1275
      8 C8          2.1033   15.6414   -5.0711 C.ar      1 <0>        -0.1002
      9 C9          1.7854   14.3357   -4.7461 C.ar      1 <0>        -0.0769
     10 C10         2.7565   13.4985   -3.9542 C.3       1 <0>        -0.0299
     11 C11         2.3914   13.5526   -2.4931 C.ar      1 <0>        -0.1250
     12 C12         1.7485   12.4857   -1.9075 C.ar      1 <0>        -0.0385
     13 C13         1.4036   12.5340   -0.5530 C.ar      1 <0>        -0.1933
     14 C14         1.7247   13.6681    0.2071 C.ar      1 <0>         0.2326
     15 C15         2.3776   14.7358   -0.3923 C.ar      1 <0>        -0.0458
     16 C16         2.7104   14.6776   -1.7411 C.ar      1 <0>         0.1514
     17 O1          3.3499   15.7234   -2.3259 O.3       1 <0>        -0.4805
     18 O2          2.6926   15.8391    0.3398 O.3       1 <0>        -0.5028
     19 O3          1.3985   13.7209    1.5240 O.3       1 <0>        -0.4668
     20 C17         0.7111   11.3955    0.0744 C.2       1 <0>         0.5713
     21 O4          0.4166   11.4377    1.2537 O.2       1 <0>        -0.4934
     22 N1          0.4037   10.3069   -0.6584 N.am      1 <0>        -0.6902
     23 C18        -0.3605    9.2789   -0.0968 C.ar      1 <0>         0.2217
     24 C19        -0.1324    7.9600   -0.4675 C.ar      1 <0>        -0.1686
     25 C20        -0.8884    6.9472    0.0892 C.ar      1 <0>        -0.0081
     26 C21        -1.8717    7.2451    1.0149 C.ar      1 <0>        -0.6774
     27 C22        -2.1051    8.5578    1.3819 C.ar      1 <0>         0.0014
     28 C23        -1.3488    9.5747    0.8331 C.ar      1 <0>        -0.1437
     29 S1         -2.8340    5.9500    1.7228 S.o2      1 <0>         2.5394
     30 O5         -2.5157    4.7672    1.0024 O.2       1 <0>        -0.8798
     31 O6         -4.1625    6.4428    1.8292 O.2       1 <0>        -0.9337
     32 C24        -2.2529    5.7090    3.3686 C.ar      1 <0>        -0.6474
     33 C25        -2.5602    6.6308    4.3522 C.ar      1 <0>        -0.0180
     34 C26        -2.0996    6.4448    5.6419 C.ar      1 <0>        -0.1457
     35 C27        -1.3358    5.3341    5.9497 C.ar      1 <0>        -0.0570
     36 C28        -1.0330    4.4099    4.9677 C.ar      1 <0>        -0.1452
     37 C29        -1.4938    4.5961    3.6775 C.ar      1 <0>         0.0393
     38 C30        -1.1632    3.5886    2.6067 C.3       1 <0>        -0.0357
     39 C31        -0.1931    2.5472    3.1681 C.3       1 <0>        -0.1451
     40 C32        -0.5145    4.3015    1.4185 C.3       1 <0>        -0.2301
     41 C33        -2.4464    2.8942    2.1462 C.3       1 <0>        -0.1722
     42 H1         -0.9670   12.9515   -3.0738 H         1 <0>         0.0560
     43 H2         -1.3391   11.3217   -3.7311 H         1 <0>         0.0589
     44 H3         -1.8892   12.7904   -4.6069 H         1 <0>         0.0586
     45 H4          1.0381   11.9610   -4.1708 H         1 <0>         0.0807
     46 H5          1.0041   11.5689   -6.6303 H         1 <0>         0.0567
     47 H6         -0.7425   11.9861   -6.6759 H         1 <0>         0.0579
     48 H7         -0.1925   10.5174   -5.8001 H         1 <0>         0.0598
     49 H8         -1.2624   14.1495   -6.1791 H         1 <0>         0.1195
     50 H9         -0.6926   16.4720   -6.7652 H         1 <0>         0.1189
     51 H10         1.4641   17.4269   -6.0574 H         1 <0>         0.1186
     52 H11         3.0476   16.0613   -4.7574 H         1 <0>         0.1242
     53 H12         2.7131   12.4567   -4.3046 H         1 <0>         0.0845
     54 H13         3.7753   13.8896   -4.0922 H         1 <0>         0.0858
     55 H14         1.5070   11.6124   -2.4952 H         1 <0>         0.1369
     56 H15         3.6032   16.6145   -1.7327 H         1 <0>         0.4178
     57 H16         3.2102   16.6853   -0.1357 H         1 <0>         0.4231
     58 H17         1.6514   14.6115    2.1180 H         1 <0>         0.4388
     59 H18         0.7538   10.2270   -1.6981 H         1 <0>         0.4333
     60 H19         0.6356    7.7266   -1.1901 H         1 <0>         0.1387
     61 H20        -0.7113    5.9214   -0.1983 H         1 <0>         0.1587
     62 H21        -2.8770    8.7875    2.1015 H         1 <0>         0.1389
     63 H22        -1.5284   10.5993    1.1237 H         1 <0>         0.1450
     64 H23        -3.1565    7.4986    4.1117 H         1 <0>         0.1359
     65 H24        -2.3359    7.1671    6.4092 H         1 <0>         0.1338
     66 H25        -0.9756    5.1889    6.9575 H         1 <0>         0.1316
     67 H26        -0.4361    3.5425    5.2081 H         1 <0>         0.1378
     68 H27         0.0481    1.8119    2.3864 H         1 <0>         0.0633
     69 H28        -0.6595    2.0346    4.0224 H         1 <0>         0.0575
     70 H29         0.7295    3.0464    3.4992 H         1 <0>         0.0565
     71 H30        -0.2732    3.5661    0.6369 H         1 <0>         0.0656
     72 H31         0.4080    4.8008    1.7496 H         1 <0>         0.0312
     73 H32        -1.2120    5.0502    1.0148 H         1 <0>         0.1449
     74 H33        -2.2051    2.1588    1.3646 H         1 <0>         0.0629
     75 H34        -3.1438    3.6429    1.7425 H         1 <0>         0.1182
     76 H35        -2.9128    2.3817    3.0005 H         1 <0>         0.0361
@<TRIPOS>BOND
     1    1    2 1
     2    1   42 1
     3    1   43 1
     4    1   44 1
     5    2    3 1
     6    2    4 1
     7    2   45 1
     8    3   46 1
     9    3   47 1
    10    3   48 1
    11    4    9 ar
    12    4    5 ar
    13    5    6 ar
    14    5   49 1
    15    6    7 ar
    16    6   50 1
    17    7    8 ar
    18    7   51 1
    19    8    9 ar
    20    8   52 1
    21    9   10 1
    22   10   11 1
    23   10   53 1
    24   10   54 1
    25   11   16 ar
    26   11   12 ar
    27   12   13 ar
    28   12   55 1
    29   13   14 ar
    30   13   20 1
    31   14   15 ar
    32   14   19 1
    33   15   16 ar
    34   15   18 1
    35   16   17 1
    36   17   56 1
    37   18   57 1
    38   19   58 1
    39   20   21 2
    40   20   22 am
    41   22   23 1
    42   22   59 1
    43   23   28 ar
    44   23   24 ar
    45   24   25 ar
    46   24   60 1
    47   25   26 ar
    48   25   61 1
    49   26   27 ar
    50   26   29 1
    51   27   28 ar
    52   27   62 1
    53   28   63 1
    54   29   30 2
    55   29   31 2
    56   29   32 1
    57   32   37 ar
    58   32   33 ar
    59   33   34 ar
    60   33   64 1
    61   34   35 ar
    62   34   65 1
    63   35   36 ar
    64   35   66 1
    65   36   37 ar
    66   36   67 1
    67   37   38 1
    68   38   39 1
    69   38   40 1
    70   38   41 1
    71   39   68 1
    72   39   69 1
    73   39   70 1
    74   40   71 1
    75   40   72 1
    76   40   73 1
    77   41   74 1
    78   41   75 1
    79   41   76 1
@<TRIPOS>MOLECULE
ZINC29136330
   50    54     0     0     0
SMALL
USER_CHARGES
[5-(1,3-benzothiazole-2-carbonyl)-2,3,4-trihydroxy-phenyl]-(4-phenoxyphenyl)methanone
@<TRIPOS>ATOM
      1 C1          9.5554    2.7061   -6.6425 C.ar      1 <0>        -0.1624
      2 C2         10.5199    3.6673   -6.8825 C.ar      1 <0>        -0.0880
      3 C3         10.5933    4.7892   -6.0800 C.ar      1 <0>        -0.1529
      4 C4          9.6984    4.9509   -5.0319 C.ar      1 <0>         0.1305
      5 C5          8.7354    3.9817   -4.7894 C.ar      1 <0>        -0.1912
      6 C6          8.6627    2.8644   -5.5985 C.ar      1 <0>        -0.0816
      7 O1          9.7685    6.0536   -4.2410 O.3       1 <0>        -0.2567
      8 C7          8.9470    6.1175   -3.1629 C.ar      1 <0>         0.0834
      9 C8          9.2273    5.3589   -2.0318 C.ar      1 <0>        -0.1537
     10 C9          8.3969    5.4215   -0.9356 C.ar      1 <0>        -0.0637
     11 C10         7.2703    6.2491   -0.9608 C.ar      1 <0>        -0.1186
     12 C11         6.9890    7.0058   -2.1023 C.ar      1 <0>        -0.0263
     13 C12         7.8276    6.9418   -3.1921 C.ar      1 <0>        -0.1354
     14 C13         6.3772    6.3189    0.2118 C.2       1 <0>         0.4906
     15 O2          6.5658    5.5864    1.1645 O.2       1 <0>        -0.4867
     16 C14         5.2571    7.2759    0.2287 C.ar      1 <0>        -0.3363
     17 C15         3.9474    6.8188    0.0973 C.ar      1 <0>         0.0065
     18 C16         2.8904    7.7277    0.1089 C.ar      1 <0>        -0.3510
     19 C17         3.1483    9.1027    0.2640 C.ar      1 <0>         0.3360
     20 C18         4.4536    9.5539    0.4004 C.ar      1 <0>        -0.1721
     21 C19         5.5086    8.6512    0.3839 C.ar      1 <0>         0.2714
     22 O3          6.7823    9.0958    0.5179 O.3       1 <0>        -0.7488
     23 O4          4.7001   10.8840    0.5512 O.3       1 <0>        -0.5081
     24 O5          2.1207    9.9870    0.2807 O.3       1 <0>        -0.6918
     25 C20         1.5054    7.2493   -0.0348 C.2       1 <0>         0.4595
     26 O6          0.5951    8.0477   -0.1506 O.2       1 <0>        -0.4254
     27 C21         1.2213    5.7997   -0.0382 C.2       1 <0>         0.1576
     28 N1          0.0581    5.1861   -0.0591 N.2       1 <0>        -0.4883
     29 C22        -0.0582    3.8548   -0.0603 C.ar      1 <0>         0.0818
     30 C23        -1.2451    3.0781   -0.0811 C.ar      1 <0>        -0.0649
     31 C24        -1.1882    1.7217   -0.0849 C.ar      1 <0>        -0.1239
     32 C25         0.0228    1.0399   -0.0569 C.ar      1 <0>        -0.1142
     33 C26         1.2035    1.7555   -0.0357 C.ar      1 <0>        -0.0632
     34 C27         1.1608    3.1297   -0.0375 C.ar      1 <0>        -0.1875
     35 S1          2.3706    4.4304   -0.0162 S.3       1 <0>         0.0406
     36 H1          9.4994    1.8298   -7.2714 H         1 <0>         0.1199
     37 H2         11.2162    3.5411   -7.6984 H         1 <0>         0.1255
     38 H3         11.3469    5.5398   -6.2678 H         1 <0>         0.1294
     39 H4          8.0405    4.1030   -3.9716 H         1 <0>         0.1340
     40 H5          7.9105    2.1120   -5.4130 H         1 <0>         0.1241
     41 H6         10.0978    4.7199   -2.0131 H         1 <0>         0.1252
     42 H7          8.6157    4.8325   -0.0571 H         1 <0>         0.1345
     43 H8          6.1172    7.6429   -2.1274 H         1 <0>         0.1483
     44 H9          7.6136    7.5297   -4.0725 H         1 <0>         0.1316
     45 H10         3.7518    5.7628   -0.0175 H         1 <0>         0.0802
     46 H11         5.7343   11.2429    0.6594 H         1 <0>         0.3761
     47 H12        -2.2055    3.5719   -0.0990 H         1 <0>         0.1266
     48 H13        -2.1087    1.1572   -0.1055 H         1 <0>         0.1239
     49 H14         0.0401   -0.0400   -0.0562 H         1 <0>         0.1284
     50 H15         2.1525    1.2401   -0.0183 H         1 <0>         0.1273
@<TRIPOS>BOND
     1    1    6 ar
     2    1    2 ar
     3    1   36 1
     4    2    3 ar
     5    2   37 1
     6    3    4 ar
     7    3   38 1
     8    4    5 ar
     9    4    7 1
    10    5    6 ar
    11    5   39 1
    12    6   40 1
    13    7    8 1
    14    8   13 ar
    15    8    9 ar
    16    9   10 ar
    17    9   41 1
    18   10   11 ar
    19   10   42 1
    20   11   12 ar
    21   11   14 1
    22   12   13 ar
    23   12   43 1
    24   13   44 1
    25   14   15 2
    26   14   16 1
    27   16   21 ar
    28   16   17 ar
    29   17   18 ar
    30   17   45 1
    31   18   19 ar
    32   18   25 1
    33   19   20 ar
    34   19   24 1
    35   20   21 ar
    36   20   23 1
    37   21   22 1
    38   23   46 1
    39   25   26 2
    40   25   27 1
    41   27   35 1
    42   27   28 2
    43   28   29 1
    44   29   34 ar
    45   29   30 ar
    46   30   31 ar
    47   30   47 1
    48   31   32 ar
    49   31   48 1
    50   32   33 ar
    51   32   49 1
    52   33   34 ar
    53   33   50 1
    54   34   35 1
@<TRIPOS>MOLECULE
ZINC29136330
   51    55     0     0     0
SMALL
USER_CHARGES
[5-(1,3-benzothiazole-2-carbonyl)-2,3,4-trihydroxy-phenyl]-(4-phenoxyphenyl)methanone
@<TRIPOS>ATOM
      1 C1          9.5554    2.7061   -6.6425 C.ar      1 <0>        -0.1571
      2 C2         10.5199    3.6673   -6.8825 C.ar      1 <0>        -0.0854
      3 C3         10.5933    4.7892   -6.0800 C.ar      1 <0>        -0.1488
      4 C4          9.6984    4.9509   -5.0319 C.ar      1 <0>         0.1258
      5 C5          8.7354    3.9817   -4.7894 C.ar      1 <0>        -0.1926
      6 C6          8.6627    2.8644   -5.5985 C.ar      1 <0>        -0.0817
      7 O1          9.7685    6.0536   -4.2410 O.3       1 <0>        -0.2581
      8 C7          8.9470    6.1175   -3.1629 C.ar      1 <0>         0.0992
      9 C8          9.2273    5.3589   -2.0318 C.ar      1 <0>        -0.1501
     10 C9          8.3969    5.4215   -0.9356 C.ar      1 <0>        -0.0549
     11 C10         7.2703    6.2491   -0.9608 C.ar      1 <0>        -0.1336
     12 C11         6.9890    7.0058   -2.1023 C.ar      1 <0>        -0.0335
     13 C12         7.8276    6.9418   -3.1921 C.ar      1 <0>        -0.1358
     14 C13         6.3772    6.3189    0.2118 C.2       1 <0>         0.4830
     15 O2          6.5658    5.5864    1.1645 O.2       1 <0>        -0.4643
     16 C14         5.2571    7.2759    0.2287 C.ar      1 <0>        -0.3094
     17 C15         3.9474    6.8188    0.0973 C.ar      1 <0>         0.0235
     18 C16         2.8904    7.7277    0.1089 C.ar      1 <0>        -0.2934
     19 C17         3.1483    9.1027    0.2640 C.ar      1 <0>         0.2327
     20 C18         4.4536    9.5539    0.4004 C.ar      1 <0>        -0.0978
     21 C19         5.5086    8.6512    0.3839 C.ar      1 <0>         0.3016
     22 O3          6.7823    9.0958    0.5179 O.3       1 <0>        -0.6770
     23 O4          4.7001   10.8840    0.5512 O.3       1 <0>        -0.5261
     24 O5          2.1207    9.9870    0.2807 O.3       1 <0>        -0.4858
     25 C20         1.5054    7.2493   -0.0348 C.2       1 <0>         0.4853
     26 O6          0.5951    8.0477   -0.1506 O.2       1 <0>        -0.4194
     27 C21         1.2213    5.7997   -0.0382 C.2       1 <0>         0.1131
     28 N1          0.0581    5.1861   -0.0591 N.2       1 <0>        -0.4569
     29 C22        -0.0582    3.8548   -0.0603 C.ar      1 <0>         0.0679
     30 C23        -1.2451    3.0781   -0.0811 C.ar      1 <0>        -0.0521
     31 C24        -1.1882    1.7217   -0.0849 C.ar      1 <0>        -0.1214
     32 C25         0.0228    1.0399   -0.0569 C.ar      1 <0>        -0.0917
     33 C26         1.2035    1.7555   -0.0357 C.ar      1 <0>        -0.0701
     34 C27         1.1608    3.1297   -0.0375 C.ar      1 <0>        -0.1620
     35 S1          2.3706    4.4304   -0.0162 S.3       1 <0>         0.0434
     36 H1          9.4994    1.8298   -7.2714 H         1 <0>         0.1228
     37 H2         11.2162    3.5411   -7.6984 H         1 <0>         0.1287
     38 H3         11.3469    5.5398   -6.2678 H         1 <0>         0.1312
     39 H4          8.0405    4.1030   -3.9716 H         1 <0>         0.1313
     40 H5          7.9105    2.1120   -5.4130 H         1 <0>         0.1252
     41 H6         10.0978    4.7199   -2.0131 H         1 <0>         0.1313
     42 H7          8.6157    4.8325   -0.0571 H         1 <0>         0.1383
     43 H8          6.1172    7.6429   -2.1274 H         1 <0>         0.1409
     44 H9          7.6136    7.5297   -4.0725 H         1 <0>         0.1346
     45 H10         3.7518    5.7628   -0.0175 H         1 <0>         0.1090
     46 H11         5.7343   11.2429    0.6594 H         1 <0>         0.4296
     47 H12        -2.2055    3.5719   -0.0990 H         1 <0>         0.1323
     48 H13        -2.1087    1.1572   -0.1055 H         1 <0>         0.1318
     49 H14         0.0401   -0.0400   -0.0562 H         1 <0>         0.1365
     50 H15         2.1525    1.2401   -0.0183 H         1 <0>         0.1337
     51 H16         2.3218   11.0617    0.4019 H         1 <0>         0.4263
@<TRIPOS>BOND
     1    1    6 ar
     2    1    2 ar
     3    1   36 1
     4    2    3 ar
     5    2   37 1
     6    3    4 ar
     7    3   38 1
     8    4    5 ar
     9    4    7 1
    10    5    6 ar
    11    5   39 1
    12    6   40 1
    13    7    8 1
    14    8   13 ar
    15    8    9 ar
    16    9   10 ar
    17    9   41 1
    18   10   11 ar
    19   10   42 1
    20   11   12 ar
    21   11   14 1
    22   12   13 ar
    23   12   43 1
    24   13   44 1
    25   14   15 2
    26   14   16 1
    27   16   21 ar
    28   16   17 ar
    29   17   18 ar
    30   17   45 1
    31   18   19 ar
    32   18   25 1
    33   19   20 ar
    34   19   24 1
    35   20   21 ar
    36   20   23 1
    37   21   22 1
    38   23   46 1
    39   24   51 1
    40   25   26 2
    41   25   27 1
    42   27   35 1
    43   27   28 2
    44   28   29 1
    45   29   34 ar
    46   29   30 ar
    47   30   31 ar
    48   30   47 1
    49   31   32 ar
    50   31   48 1
    51   32   33 ar
    52   32   49 1
    53   33   34 ar
    54   33   50 1
    55   34   35 1
@<TRIPOS>MOLECULE
ZINC29136330
   51    55     0     0     0
SMALL
USER_CHARGES

@<TRIPOS>ATOM
      1 C1         -2.8631   -7.6070    5.1623 C.ar      1 <0>        -0.1555
      2 C2         -2.1327   -7.7705    3.9997 C.ar      1 <0>        -0.0810
      3 C3         -0.9553   -7.0712    3.8182 C.ar      1 <0>        -0.1932
      4 C4         -0.5061   -6.2037    4.8036 C.ar      1 <0>         0.1241
      5 C5         -1.2412   -6.0411    5.9691 C.ar      1 <0>        -0.1479
      6 C6         -2.4177   -6.7431    6.1458 C.ar      1 <0>        -0.0853
      7 O1          0.6520   -5.5150    4.6277 O.3       1 <0>        -0.2597
      8 C7          1.3831   -5.7720    3.5138 C.ar      1 <0>         0.1035
      9 C8          0.9878   -5.2465    2.2886 C.ar      1 <0>        -0.1510
     10 C9          1.7270   -5.5044    1.1562 C.ar      1 <0>        -0.0544
     11 C10         2.8765   -6.2960    1.2394 C.ar      1 <0>        -0.1442
     12 C11         3.2704   -6.8224    2.4733 C.ar      1 <0>        -0.0349
     13 C12         2.5286   -6.5553    3.6018 C.ar      1 <0>        -0.1352
     14 C13         3.6716   -6.5754    0.0281 C.2       1 <0>         0.4759
     15 O2          3.3866   -6.0361   -1.0244 O.2       1 <0>        -0.4603
     16 C14         4.8105   -7.5077    0.0934 C.ar      1 <0>        -0.3221
     17 C15         6.1145   -7.0167    0.0903 C.ar      1 <0>         0.0344
     18 C16         7.1899   -7.9019    0.1521 C.ar      1 <0>        -0.3089
     19 C17         6.9553   -9.2882    0.2174 C.ar      1 <0>         0.3176
     20 C18         5.6553   -9.7738    0.2198 C.ar      1 <0>        -0.0607
     21 C19         4.5824   -8.8940    0.1646 C.ar      1 <0>         0.1779
     22 O3          3.3137   -9.3718    0.1733 O.3       1 <0>        -0.4995
     23 O4          5.4313  -11.1149    0.2822 O.3       1 <0>        -0.4785
     24 O5          8.0004  -10.1499    0.2775 O.3       1 <0>        -0.6300
     25 C20         8.5693   -7.3872    0.1486 C.2       1 <0>         0.4763
     26 O6          9.5068   -8.1606    0.1021 O.2       1 <0>        -0.4148
     27 C21         8.8146   -5.9315    0.2015 C.2       1 <0>         0.1272
     28 N1          7.9498   -4.9535    0.3615 N.2       1 <0>        -0.4680
     29 C22         8.3094   -3.6667    0.3910 C.ar      1 <0>         0.0739
     30 C23         7.4798   -2.5279    0.5554 C.ar      1 <0>        -0.0526
     31 C24         8.0089   -1.2776    0.5619 C.ar      1 <0>        -0.1180
     32 C25         9.3731   -1.0594    0.4093 C.ar      1 <0>        -0.0936
     33 C26        10.2185   -2.1390    0.2463 C.ar      1 <0>        -0.0696
     34 C27         9.6962   -3.4108    0.2378 C.ar      1 <0>        -0.1473
     35 S1         10.3639   -5.0487    0.0722 S.3       1 <0>         0.0297
     36 H1         -3.7855   -8.1515    5.3005 H         1 <0>         0.1235
     37 H2         -2.4828   -8.4458    3.2331 H         1 <0>         0.1260
     38 H3         -0.3848   -7.1999    2.9102 H         1 <0>         0.1322
     39 H4         -0.8936   -5.3668    6.7378 H         1 <0>         0.1313
     40 H5         -2.9901   -6.6171    7.0530 H         1 <0>         0.1293
     41 H6          0.0996   -4.6355    2.2251 H         1 <0>         0.1323
     42 H7          1.4192   -5.0962    0.2049 H         1 <0>         0.1385
     43 H8          4.1577   -7.4343    2.5418 H         1 <0>         0.1444
     44 H9          2.8346   -6.9578    4.5561 H         1 <0>         0.1356
     45 H10         6.2919   -5.9526    0.0397 H         1 <0>         0.1464
     46 H11         5.3520  -11.4590    1.1824 H         1 <0>         0.3638
     47 H12         6.4144   -2.6570    0.6766 H         1 <0>         0.1340
     48 H13         7.3520   -0.4297    0.6887 H         1 <0>         0.1325
     49 H14         9.7684   -0.0544    0.4177 H         1 <0>         0.1367
     50 H15        11.2808   -1.9857    0.1261 H         1 <0>         0.1328
     51 H16         2.9574   -9.5578   -0.7062 H         1 <0>         0.3863
@<TRIPOS>BOND
     1    1    6 ar
     2    1    2 ar
     3    1   36 1
     4    2    3 ar
     5    2   37 1
     6    3    4 ar
     7    3   38 1
     8    4    5 ar
     9    4    7 1
    10    5    6 ar
    11    5   39 1
    12    6   40 1
    13    7    8 1
    14    8   13 ar
    15    8    9 ar
    16    9   10 ar
    17    9   41 1
    18   10   11 ar
    19   10   42 1
    20   11   12 ar
    21   11   14 1
    22   12   13 ar
    23   12   43 1
    24   13   44 1
    25   14   15 2
    26   14   16 1
    27   16   21 ar
    28   16   17 ar
    29   17   18 ar
    30   17   45 1
    31   18   19 ar
    32   18   25 1
    33   19   20 ar
    34   19   24 1
    35   20   21 ar
    36   20   23 1
    37   21   22 1
    38   22   51 1
    39   23   46 1
    40   25   26 2
    41   25   27 1
    42   27   35 1
    43   27   28 2
    44   28   29 1
    45   29   34 ar
    46   29   30 ar
    47   30   31 ar
    48   30   47 1
    49   31   32 ar
    50   31   48 1
    51   32   33 ar
    52   32   49 1
    53   33   34 ar
    54   33   50 1
    55   34   35 1
@<TRIPOS>MOLECULE
ZINC03870412
   51    54     0     0     0
SMALL
USER_CHARGES

@<TRIPOS>ATOM
      1 C1         -0.0167    1.3824    0.0096 C.ar      1 <0>        -0.1232
      2 C2          1.1697    2.0917    0.0021 C.ar      1 <0>        -0.0728
      3 C3          2.3792    1.4226   -0.0135 C.ar      1 <0>        -0.0978
      4 C4          2.4066    0.0362   -0.0217 C.ar      1 <0>         0.0943
      5 C5          1.2160   -0.6806   -0.0137 C.ar      1 <0>         0.0658
      6 C6          0.0021   -0.0041    0.0020 C.ar      1 <0>         0.0986
      7 O1         -1.1658   -0.7009    0.0099 O.3       1 <0>        -0.4875
      8 O2          1.2387   -2.0413   -0.0217 O.3       1 <0>        -0.4804
      9 O3          3.5971   -0.6212   -0.0380 O.3       1 <0>        -0.4833
     10 C7          1.1446    3.5984    0.0105 C.3       1 <0>         0.1463
     11 H1          0.2126    3.9475    0.4550 H         1 <0>         0.1098
     12 C8          1.2611    4.1251   -1.4256 C.3       1 <0>         0.0607
     13 H2          0.4684    3.6972   -2.0393 H         1 <0>         0.1110
     14 C9          1.1215    5.6490   -1.3913 C.3       1 <0>        -0.0887
     15 C10         2.0188    6.2172   -0.3211 C.ar      1 <0>        -0.1934
     16 C11         2.3348    7.5707   -0.3637 C.ar      1 <0>         0.1618
     17 C12         3.1535    8.1275    0.6048 C.ar      1 <0>        -0.1998
     18 C13         3.6597    7.3319    1.6220 C.ar      1 <0>         0.1590
     19 C14         3.3464    5.9836    1.6646 C.ar      1 <0>        -0.1810
     20 C15         2.5265    5.4225    0.6909 C.ar      1 <0>         0.1700
     21 O4          2.2521    4.0938    0.7639 O.3       1 <0>        -0.2919
     22 O5          4.4620    7.8746    2.5751 O.3       1 <0>        -0.4915
     23 O6          1.8385    8.3503   -1.3601 O.3       1 <0>        -0.4908
     24 O7          2.5347    3.7694   -1.9673 O.3       1 <0>        -0.3234
     25 C16         2.6005    3.5753   -3.2991 C.2       1 <0>         0.5152
     26 O8          1.6037    3.7045   -3.9818 O.2       1 <0>        -0.4949
     27 C17         3.8823    3.2060   -3.9281 C.ar      1 <0>        -0.1035
     28 C18         5.0283    3.0514   -3.1432 C.ar      1 <0>        -0.0764
     29 C19         6.2283    2.7053   -3.7353 C.ar      1 <0>         0.0874
     30 C20         6.2961    2.5111   -5.1125 C.ar      1 <0>         0.0957
     31 C21         5.1559    2.6649   -5.8970 C.ar      1 <0>         0.0871
     32 C22         3.9519    3.0043   -5.3093 C.ar      1 <0>        -0.0733
     33 O9          5.2258    2.4749   -7.2418 O.3       1 <0>        -0.4778
     34 O10         7.4772    2.1713   -5.6921 O.3       1 <0>        -0.4725
     35 O11         7.3439    2.5547   -2.9722 O.3       1 <0>        -0.4781
     36 H3         -0.9596    1.9089    0.0260 H         1 <0>         0.1412
     37 H4          3.3040    1.9803   -0.0197 H         1 <0>         0.1453
     38 H5         -1.5123   -0.8977   -0.8712 H         1 <0>         0.3973
     39 H6          1.2542   -2.4396    0.8593 H         1 <0>         0.3921
     40 H7          3.9506   -0.8164    0.8407 H         1 <0>         0.3917
     41 H8          1.4057    6.0611   -2.3595 H         1 <0>         0.0993
     42 H9          0.0865    5.9136   -1.1749 H         1 <0>         0.0973
     43 H10         3.3971    9.1790    0.5682 H         1 <0>         0.1392
     44 H11         3.7408    5.3648    2.4571 H         1 <0>         0.1416
     45 H12         3.9848    8.2124    3.3453 H         1 <0>         0.3966
     46 H13         0.9859    8.7570   -1.1536 H         1 <0>         0.3948
     47 H14         4.9764    3.2026   -2.0751 H         1 <0>         0.1522
     48 H15         3.0669    3.1188   -5.9176 H         1 <0>         0.1531
     49 H16         5.0544    1.5647   -7.5199 H         1 <0>         0.3927
     50 H17         7.6276    1.2177   -5.7487 H         1 <0>         0.3919
     51 H18         7.4749    1.6560   -2.6401 H         1 <0>         0.3928
@<TRIPOS>BOND
     1    1    6 ar
     2    1    2 ar
     3    1   36 1
     4    2    3 ar
     5    2   10 1
     6    3    4 ar
     7    3   37 1
     8    4    5 ar
     9    4    9 1
    10    5    6 ar
    11    5    8 1
    12    6    7 1
    13    7   38 1
    14    8   39 1
    15    9   40 1
    16   10   11 1
    17   10   21 1
    18   10   12 1
    19   12   13 1
    20   12   14 1
    21   12   24 1
    22   14   15 1
    23   14   41 1
    24   14   42 1
    25   15   20 ar
    26   15   16 ar
    27   16   17 ar
    28   16   23 1
    29   17   18 ar
    30   17   43 1
    31   18   19 ar
    32   18   22 1
    33   19   20 ar
    34   19   44 1
    35   20   21 1
    36   22   45 1
    37   23   46 1
    38   24   25 1
    39   25   26 2
    40   25   27 1
    41   27   32 ar
    42   27   28 ar
    43   28   29 ar
    44   28   47 1
    45   29   30 ar
    46   29   35 1
    47   30   31 ar
    48   30   34 1
    49   31   32 ar
    50   31   33 1
    51   32   48 1
    52   33   49 1
    53   34   50 1
    54   35   51 1
@<TRIPOS>MOLECULE
ZINC01227906
   35    36     0     0     0
SMALL
USER_CHARGES

@<TRIPOS>ATOM
      1 C1          1.6886    0.8979    1.8969 C.3       1 <0>        -0.1376
      2 C2          1.4001   -0.5796    1.6235 C.3       1 <0>        -0.1072
      3 C3          1.6201   -1.3876    2.9040 C.3       1 <0>        -0.1426
      4 C4         -0.0500   -0.7393    1.1625 C.3       1 <0>         0.0463
      5 H1         -0.7209   -0.3761    1.9410 H         1 <0>         0.1056
      6 C5         -0.2667    0.0566   -0.0988 C.2       1 <0>         0.5029
      7 O1         -0.4396   -0.5181   -1.1601 O.co2     1 <0>        -0.6625
      8 O2         -0.2690    1.2751   -0.0578 O.co2     1 <0>        -0.6716
      9 N1         -0.3262   -2.1540    0.9007 N.am      1 <0>        -0.4863
     10 C6         -1.2816   -2.7627    1.5831 C.2       1 <0>         0.5398
     11 O3         -1.9386   -2.1783    2.4242 O.2       1 <0>        -0.4727
     12 C7         -1.5106   -4.1894    1.2714 C.2       1 <0>        -0.1952
     13 C8         -2.4080   -5.0572    1.8019 C.2       1 <0>         0.0350
     14 C9         -2.3322   -6.4870    1.4703 C.ar      1 <0>        -0.0604
     15 C10        -1.2329   -6.9877    0.7636 C.ar      1 <0>        -0.0904
     16 C11        -1.1687   -8.3299    0.4567 C.ar      1 <0>        -0.0838
     17 C12        -2.1889   -9.1825    0.8456 C.ar      1 <0>        -0.0785
     18 C13        -3.2805   -8.6943    1.5451 C.ar      1 <0>        -0.0935
     19 C14        -3.3560   -7.3557    1.8648 C.ar      1 <0>        -0.0811
     20 Br1        -2.0913  -11.0221    0.4190 Br        1 <0>        -0.0472
     21 S1         -0.2802   -4.4564    0.0024 S.3       1 <0>         0.0149
     22 C15         0.3958   -2.8041   -0.0344 C.2       1 <0>         0.2692
     23 S2          1.6576   -2.1936   -1.0173 S.2       1 <0>        -0.2563
     24 H2          2.7217    1.0116    2.2254 H         1 <0>         0.0442
     25 H3          1.5319    1.4735    0.9847 H         1 <0>         0.0896
     26 H4          1.0177    1.2610    2.6754 H         1 <0>         0.0453
     27 H5          2.0710   -0.9428    0.8450 H         1 <0>         0.1022
     28 H6          1.4146   -2.4402    2.7092 H         1 <0>         0.0360
     29 H7          2.6532   -1.2739    3.2325 H         1 <0>         0.0570
     30 H8          0.9492   -1.0244    3.6826 H         1 <0>         0.0516
     31 H9         -3.1782   -4.6975    2.4681 H         1 <0>         0.1618
     32 H10        -0.4371   -6.3241    0.4591 H         1 <0>         0.1435
     33 H11        -0.3211   -8.7178   -0.0886 H         1 <0>         0.1408
     34 H12        -4.0723   -9.3651    1.8443 H         1 <0>         0.1388
     35 H13        -4.2053   -6.9774    2.4143 H         1 <0>         0.1423
@<TRIPOS>BOND
     1    1    2 1
     2    1   24 1
     3    1   25 1
     4    1   26 1
     5    2    3 1
     6    2    4 1
     7    2   27 1
     8    3   28 1
     9    3   29 1
    10    3   30 1
    11    4    5 1
    12    4    6 1
    13    4    9 1
    14    6    7 2
    15    6    8 1
    16    9   22 1
    17    9   10 am
    18   10   11 2
    19   10   12 1
    20   12   13 2
    21   12   21 1
    22   13   14 1
    23   13   31 1
    24   14   19 ar
    25   14   15 ar
    26   15   16 ar
    27   15   32 1
    28   16   17 ar
    29   16   33 1
    30   17   18 ar
    31   17   20 1
    32   18   19 ar
    33   18   34 1
    34   19   35 1
    35   21   22 1
    36   22   23 2
@<TRIPOS>MOLECULE
ZINC01227908
   35    36     0     0     0
SMALL
USER_CHARGES

@<TRIPOS>ATOM
      1 C1         -5.5887   -1.5246   -0.0044 C.3       1 <0>        -0.1434
      2 C2         -4.5360   -0.5199   -0.4770 C.3       1 <0>        -0.0972
      3 C3         -5.0335    0.9026   -0.2122 C.3       1 <0>        -0.1366
      4 C4         -3.2299   -0.7534    0.2848 C.3       1 <0>         0.0406
      5 H1         -3.3773   -0.5190    1.3391 H         1 <0>         0.1209
      6 C5         -2.1523    0.1350   -0.2814 C.2       1 <0>         0.5000
      7 O1         -1.9810    1.2524    0.1754 O.co2     1 <0>        -0.6729
      8 O2         -1.4519   -0.2635   -1.1963 O.co2     1 <0>        -0.6694
      9 N1         -2.8287   -2.1557    0.1478 N.am      1 <0>        -0.4813
     10 C6         -2.6813   -2.6703   -1.0615 C.2       1 <0>         0.5379
     11 O3         -2.8704   -2.0090   -2.0654 O.2       1 <0>        -0.3963
     12 C7         -2.2747   -4.0897   -1.1312 C.2       1 <0>        -0.1978
     13 C8         -2.0500   -4.8726   -2.2158 C.2       1 <0>         0.0404
     14 C9         -1.8158   -6.3136   -2.0461 C.ar      1 <0>        -0.0611
     15 C10        -1.9905   -6.9118   -0.7930 C.ar      1 <0>        -0.0898
     16 C11        -1.7694   -8.2638   -0.6420 C.ar      1 <0>        -0.0836
     17 C12        -1.3748   -9.0302   -1.7264 C.ar      1 <0>        -0.0781
     18 C13        -1.1993   -8.4452   -2.9698 C.ar      1 <0>        -0.0923
     19 C14        -1.4226   -7.0956   -3.1381 C.ar      1 <0>        -0.0790
     20 Br1        -1.0735  -10.8842   -1.5081 Br        1 <0>        -0.0462
     21 S1         -2.1597   -4.4906    0.6072 S.3       1 <0>         0.0370
     22 C15        -2.6127   -2.8906    1.2576 C.2       1 <0>         0.2853
     23 S2         -2.7440   -2.4071    2.8947 S.2       1 <0>        -0.3866
     24 H2         -6.5192   -1.3582   -0.5472 H         1 <0>         0.0572
     25 H3         -5.2343   -2.5379   -0.1931 H         1 <0>         0.0362
     26 H4         -5.7626   -1.3934    1.0636 H         1 <0>         0.0578
     27 H5         -4.3622   -0.6510   -1.5450 H         1 <0>         0.0909
     28 H6         -4.2743    1.6178   -0.5286 H         1 <0>         0.0734
     29 H7         -5.9523    1.0763   -0.7724 H         1 <0>         0.0502
     30 H8         -5.2284    1.0269    0.8530 H         1 <0>         0.0536
     31 H9         -2.0433   -4.4371   -3.2040 H         1 <0>         0.1654
     32 H10        -2.2975   -6.3155    0.0535 H         1 <0>         0.1400
     33 H11        -1.9038   -8.7269    0.3244 H         1 <0>         0.1411
     34 H12        -0.8908   -9.0491   -3.8104 H         1 <0>         0.1397
     35 H13        -1.2900   -6.6419   -4.1092 H         1 <0>         0.1440
@<TRIPOS>BOND
     1    1    2 1
     2    1   24 1
     3    1   25 1
     4    1   26 1
     5    2    3 1
     6    2    4 1
     7    2   27 1
     8    3   28 1
     9    3   29 1
    10    3   30 1
    11    4    5 1
    12    4    6 1
    13    4    9 1
    14    6    7 2
    15    6    8 1
    16    9   22 1
    17    9   10 am
    18   10   11 2
    19   10   12 1
    20   12   13 2
    21   12   21 1
    22   13   14 1
    23   13   31 1
    24   14   19 ar
    25   14   15 ar
    26   15   16 ar
    27   15   32 1
    28   16   17 ar
    29   16   33 1
    30   17   18 ar
    31   17   20 1
    32   18   19 ar
    33   18   34 1
    34   19   35 1
    35   21   22 1
    36   22   23 2
@<TRIPOS>MOLECULE
ZINC03978503
   50    53     0     0     0
SMALL
USER_CHARGES

@<TRIPOS>ATOM
      1 C1         -0.0167    1.3779    0.0096 C.ar      1 <0>        -0.0710
      2 C2          1.1696    2.0886    0.0021 C.ar      1 <0>        -0.1332
      3 C3          2.3802    1.4154   -0.0130 C.ar      1 <0>         0.0923
      4 C4          2.3990    0.0236   -0.0206 C.ar      1 <0>         0.0809
      5 C5          1.2071   -0.6822   -0.0130 C.ar      1 <0>        -0.1138
      6 C6          0.0021   -0.0041    0.0020 C.ar      1 <0>        -0.0888
      7 C7         -1.2936   -0.7736    0.0102 C.3       1 <0>         0.1463
      8 H1         -1.1302   -1.7631    0.4371 H         1 <0>         0.1070
      9 C8         -1.8224   -0.9103   -1.4233 C.3       1 <0>         0.0610
     10 H2         -1.0636   -1.3761   -2.0520 H         1 <0>         0.1107
     11 C9         -3.0759   -1.7881   -1.3913 C.3       1 <0>        -0.0890
     12 C10        -4.0042   -1.3085   -0.3042 C.ar      1 <0>        -0.1933
     13 C11        -5.3364   -1.7051   -0.3406 C.ar      1 <0>         0.1616
     14 C12        -6.2168   -1.2864    0.6434 C.ar      1 <0>        -0.2002
     15 C13        -5.7673   -0.4690    1.6698 C.ar      1 <0>         0.1586
     16 C14        -4.4409   -0.0726    1.7062 C.ar      1 <0>        -0.1813
     17 C15        -3.5564   -0.4901    0.7171 C.ar      1 <0>         0.1702
     18 O1         -2.2659   -0.0703    0.7846 O.3       1 <0>        -0.2917
     19 O2         -6.6274   -0.0572    2.6380 O.3       1 <0>        -0.4915
     20 O3         -5.7767   -2.5064   -1.3460 O.3       1 <0>        -0.4909
     21 O4         -2.1505    0.3807   -1.9409 O.3       1 <0>        -0.3234
     22 C16        -2.0274    0.5558   -3.2712 C.2       1 <0>         0.5140
     23 O5         -1.6517   -0.3624   -3.9727 O.2       1 <0>        -0.4936
     24 C17        -2.3486    1.8620   -3.8759 C.ar      1 <0>        -0.1023
     25 C18        -2.7754    2.9208   -3.0695 C.ar      1 <0>        -0.0785
     26 C19        -3.0757    4.1438   -3.6389 C.ar      1 <0>         0.0863
     27 C20        -2.9540    4.3216   -5.0146 C.ar      1 <0>         0.0952
     28 C21        -2.5294    3.2683   -5.8204 C.ar      1 <0>         0.0877
     29 C22        -2.2213    2.0451   -5.2556 C.ar      1 <0>        -0.0731
     30 O6         -2.4120    3.4452   -7.1638 O.3       1 <0>        -0.4777
     31 O7         -3.2504    5.5249   -5.5717 O.3       1 <0>        -0.4723
     32 O8         -3.4911    5.1745   -2.8548 O.3       1 <0>        -0.4778
     33 O9          3.5850   -0.6417   -0.0359 O.3       1 <0>        -0.4851
     34 O10         3.5476    2.1129   -0.0209 O.3       1 <0>        -0.4874
     35 H3         -0.9598    1.9038    0.0259 H         1 <0>         0.1390
     36 H4          1.1522    3.1684    0.0077 H         1 <0>         0.1372
     37 H5          1.2190   -1.7621   -0.0189 H         1 <0>         0.1374
     38 H6         -3.5841   -1.7300   -2.3539 H         1 <0>         0.0989
     39 H7         -2.7902   -2.8214   -1.1946 H         1 <0>         0.0968
     40 H8         -7.2509   -1.5961    0.6116 H         1 <0>         0.1390
     41 H9         -4.0917    0.5638    2.5059 H         1 <0>         0.1417
     42 H10        -6.6766   -0.6517    3.3991 H         1 <0>         0.3964
     43 H11        -5.7049   -3.4517   -1.1556 H         1 <0>         0.3947
     44 H12        -2.8707    2.7833   -2.0026 H         1 <0>         0.1528
     45 H13        -1.8875    1.2299   -5.8805 H         1 <0>         0.1534
     46 H14        -1.5394    3.7526   -7.4452 H         1 <0>         0.3929
     47 H15        -2.4976    6.1295   -5.6256 H         1 <0>         0.3917
     48 H16        -2.7726    5.7287   -2.5204 H         1 <0>         0.3921
     49 H17         3.9367   -0.8389    0.8430 H         1 <0>         0.3894
     50 H18         3.8938    2.3101    0.8602 H         1 <0>         0.3905
@<TRIPOS>BOND
     1    1    6 ar
     2    1    2 ar
     3    1   35 1
     4    2    3 ar
     5    2   36 1
     6    3    4 ar
     7    3   34 1
     8    4    5 ar
     9    4   33 1
    10    5    6 ar
    11    5   37 1
    12    6    7 1
    13    7    8 1
    14    7   18 1
    15    7    9 1
    16    9   10 1
    17    9   11 1
    18    9   21 1
    19   11   12 1
    20   11   38 1
    21   11   39 1
    22   12   17 ar
    23   12   13 ar
    24   13   14 ar
    25   13   20 1
    26   14   15 ar
    27   14   40 1
    28   15   16 ar
    29   15   19 1
    30   16   17 ar
    31   16   41 1
    32   17   18 1
    33   19   42 1
    34   20   43 1
    35   21   22 1
    36   22   23 2
    37   22   24 1
    38   24   29 ar
    39   24   25 ar
    40   25   26 ar
    41   25   44 1
    42   26   27 ar
    43   26   32 1
    44   27   28 ar
    45   27   31 1
    46   28   29 ar
    47   28   30 1
    48   29   45 1
    49   30   46 1
    50   31   47 1
    51   32   48 1
    52   33   49 1
    53   34   50 1
@<TRIPOS>MOLECULE
ZINC05371954
   38    39     0     0     0
SMALL
USER_CHARGES
2-[5-[(4-bromophenyl)methylene]-4-oxo-2-thioxo-thiazolidin-3-yl]-4-methyl-pentanoic acid
@<TRIPOS>ATOM
      1 C1          5.0429    7.7475    4.1643 C.3       1 <0>        -0.1410
      2 C2          4.1703    7.5136    2.9295 C.3       1 <0>        -0.0972
      3 C3          2.9809    8.4757    2.9559 C.3       1 <0>        -0.1495
      4 C4          4.9975    7.7600    1.6662 C.3       1 <0>        -0.1241
      5 C5          4.1728    7.3811    0.4345 C.3       1 <0>         0.0683
      6 H1          3.2487    7.9590    0.4242 H         1 <0>         0.1161
      7 C6          4.9656    7.6792   -0.8120 C.2       1 <0>         0.4722
      8 O1          5.2369    6.7890   -1.5826 O.co2     1 <0>        -0.6133
      9 N1          3.8546    5.9518    0.4807 N.am      1 <0>        -0.4891
     10 C7          2.5880    5.5726    0.5078 C.2       1 <0>         0.5420
     11 O2          1.6779    6.3803    0.4943 O.2       1 <0>        -0.4664
     12 C8          2.3344    4.1172    0.5601 C.2       1 <0>        -0.1995
     13 C9          1.1567    3.4456    0.6004 C.2       1 <0>         0.0418
     14 C10         1.1476    1.9893    0.7986 C.ar      1 <0>        -0.0629
     15 C11         2.2813    1.3409    1.3015 C.ar      1 <0>        -0.0917
     16 C12         2.2649   -0.0250    1.4850 C.ar      1 <0>        -0.0844
     17 C13         1.1302   -0.7558    1.1730 C.ar      1 <0>        -0.0776
     18 C14         0.0043   -0.1213    0.6743 C.ar      1 <0>        -0.0934
     19 C15         0.0052    1.2440    0.4853 C.ar      1 <0>        -0.0805
     20 Br1         1.1183   -2.6294    1.4286 Br        1 <0>        -0.0468
     21 S1          4.0067    3.4856    0.5478 S.3       1 <0>         0.0210
     22 C16         4.8598    5.0530    0.4880 C.2       1 <0>         0.2808
     23 S2          6.5464    5.3444    0.4502 S.2       1 <0>        -0.2764
     24 H2          5.3353    8.7966    4.2091 H         1 <0>         0.0570
     25 H3          4.4802    7.4885    5.0612 H         1 <0>         0.0490
     26 H4          5.9348    7.1240    4.1023 H         1 <0>         0.0549
     27 H5          3.8065    6.4861    2.9309 H         1 <0>         0.0509
     28 H6          2.3592    8.3091    2.0762 H         1 <0>         0.0597
     29 H7          2.3915    8.3001    3.8559 H         1 <0>         0.0479
     30 H8          3.3446    9.5032    2.9545 H         1 <0>         0.0579
     31 H9          5.9014    7.1518    1.6995 H         1 <0>         0.0950
     32 H10         5.2706    8.8138    1.6106 H         1 <0>         0.0938
     33 H11         0.2256    3.9809    0.4868 H         1 <0>         0.1627
     34 H12         3.1651    1.9099    1.5494 H         1 <0>         0.1450
     35 H13         3.1390   -0.5269    1.8727 H         1 <0>         0.1408
     36 H14        -0.8764   -0.6979    0.4327 H         1 <0>         0.1389
     37 H15        -0.8732    1.7373    0.0961 H         1 <0>         0.1423
     38 O3          5.3703    8.9335   -1.0660 O.co2     1 <0>        -0.7440
@<TRIPOS>BOND
     1    1    2 1
     2    1   24 1
     3    1   25 1
     4    1   26 1
     5    2    3 1
     6    2    4 1
     7    2   27 1
     8    3   28 1
     9    3   29 1
    10    3   30 1
    11    4    5 1
    12    4   31 1
    13    4   32 1
    14    5    6 1
    15    5    7 1
    16    5    9 1
    17    7    8 2
    18    7   38 1
    19    9   22 1
    20    9   10 am
    21   10   11 2
    22   10   12 1
    23   12   13 2
    24   12   21 1
    25   13   14 1
    26   13   33 1
    27   14   19 ar
    28   14   15 ar
    29   15   16 ar
    30   15   34 1
    31   16   17 ar
    32   16   35 1
    33   17   18 ar
    34   17   20 1
    35   18   19 ar
    36   18   36 1
    37   19   37 1
    38   21   22 1
    39   22   23 2
@<TRIPOS>MOLECULE
ZINC03775575
   68    71     0     0     0
SMALL
NO_CHARGES

@<TRIPOS>ATOM
      1 C1         -0.1332    0.9866   -0.0935 C.3       1 <0>        -0.1195
      2 C2         -0.1527   -0.5035    0.1302 C.ar      1 <0>        -0.0470
      3 C3         -0.2460   -1.3404   -0.9367 C.ar      1 <0>        -0.1024
      4 C4         -0.2657   -2.7335   -0.7415 C.ar      1 <0>        -0.0347
      5 C5         -0.1872   -3.2551    0.5719 C.ar      1 <0>        -0.0297
      6 C6         -0.2086   -4.7079    0.7624 C.ar      1 <0>        -0.2039
      7 C7         -0.3063   -5.5287   -0.3656 C.ar      1 <0>         0.1689
      8 C8         -0.3813   -4.9639   -1.6442 C.ar      1 <0>         0.0750
      9 C9         -0.3627   -3.6149   -1.8332 C.ar      1 <0>        -0.0411
     10 C10        -0.4467   -3.0593   -3.2316 C.3       1 <0>        -0.0595
     11 C11         0.7028   -3.6182   -4.0724 C.3       1 <0>        -0.1516
     12 C12        -1.7818   -3.4621   -3.8610 C.3       1 <0>        -0.1487
     13 O1         -0.4752   -5.7829   -2.7254 O.3       1 <0>        -0.4766
     14 O2         -0.3279   -6.8761   -0.2203 O.3       1 <0>        -0.4682
     15 C13        -0.1292   -5.2865    2.1020 C.2       1 <0>         0.3607
     16 O3         -0.2442   -6.4855    2.2531 O.2       1 <0>        -0.4500
     17 C14        -0.0914   -2.3815    1.6623 C.ar      1 <0>         0.1208
     18 C15        -0.0686   -1.0082    1.4362 C.ar      1 <0>        -0.0391
     19 C16         0.0389   -0.0749    2.5810 C.ar      1 <0>        -0.0461
     20 C17         1.3026    0.3395    3.0269 C.ar      1 <0>        -0.0567
     21 C18         1.4264    1.1957    4.0752 C.ar      1 <0>        -0.1031
     22 C19         0.2795    1.6801    4.7303 C.ar      1 <0>        -0.0342
     23 C20        -1.0013    1.2694    4.2899 C.ar      1 <0>        -0.0312
     24 C21        -1.1147    0.3908    3.2051 C.ar      1 <0>         0.1359
     25 O4         -2.3383   -0.0064    2.7694 O.3       1 <0>        -0.4811
     26 C22        -2.1884    1.7809    4.9804 C.ar      1 <0>        -0.2012
     27 C23        -2.0107    2.6597    6.0536 C.ar      1 <0>         0.1673
     28 C24        -0.7222    3.0362    6.4509 C.ar      1 <0>         0.0764
     29 C25         0.3883    2.5670    5.8164 C.ar      1 <0>        -0.0431
     30 C26         1.7523    3.0037    6.2855 C.3       1 <0>        -0.0586
     31 C27         1.8520    4.5288    6.2142 C.3       1 <0>        -0.1518
     32 C28         1.9658    2.5455    7.7295 C.3       1 <0>        -0.1488
     33 O5         -0.5754    3.8922    7.4970 O.3       1 <0>        -0.4763
     34 O6         -3.0900    3.1490    6.7114 O.3       1 <0>        -0.4658
     35 C29        -3.5286    1.3817    4.5565 C.2       1 <0>         0.3587
     36 O7         -4.5042    1.8859    5.0738 O.2       1 <0>        -0.4469
     37 C30         2.5397   -0.1719    2.3347 C.3       1 <0>        -0.1187
     38 O8         -0.0154   -2.8696    2.9275 O.3       1 <0>        -0.4830
     39 H1          0.8960    1.3212   -0.2231 H         1 <0>         0.0749
     40 H2         -0.7087    1.2274   -0.9874 H         1 <0>         0.0721
     41 H3         -0.5729    1.4892    0.7680 H         1 <0>         0.0722
     42 H4         -0.3056   -0.9353   -1.9360 H         1 <0>         0.1397
     43 H5         -0.3754   -1.9722   -3.1955 H         1 <0>         0.0863
     44 H6          0.6315   -4.7053   -4.1084 H         1 <0>         0.0803
     45 H7          0.6421   -3.2163   -5.0838 H         1 <0>         0.0593
     46 H8          1.6540   -3.3312   -3.6239 H         1 <0>         0.0528
     47 H9         -1.8426   -3.0602   -4.8724 H         1 <0>         0.0667
     48 H10        -1.8532   -4.5492   -3.8971 H         1 <0>         0.0587
     49 H11        -2.6008   -3.0639   -3.2620 H         1 <0>         0.0571
     50 H12        -1.3834   -5.9991   -2.9774 H         1 <0>         0.3853
     51 H13        -1.2152   -7.2464   -0.1170 H         1 <0>         0.3976
     52 H14         0.0317   -4.6473    2.9576 H         1 <0>         0.1324
     53 H15         2.4070    1.5045    4.4061 H         1 <0>         0.1398
     54 H16        -2.6683   -0.8070    3.1998 H         1 <0>         0.3955
     55 H17         2.5156    2.5594    5.6467 H         1 <0>         0.0860
     56 H18         1.0887    4.9730    6.8530 H         1 <0>         0.0798
     57 H19         2.8385    4.8446    6.5535 H         1 <0>         0.0593
     58 H20         1.6998    4.8552    5.1854 H         1 <0>         0.0531
     59 H21         1.8948    1.4590    7.7803 H         1 <0>         0.0567
     60 H22         2.9524    2.8614    8.0688 H         1 <0>         0.0665
     61 H23         1.2025    2.9898    8.3683 H         1 <0>         0.0591
     62 H24        -0.5043    3.4545    8.3563 H         1 <0>         0.3850
     63 H25        -3.3748    2.6056    7.4588 H         1 <0>         0.3953
     64 H26        -3.6512    0.6381    3.7829 H         1 <0>         0.1327
     65 H27         2.8051    0.5020    1.5201 H         1 <0>         0.0775
     66 H28         3.3619   -0.2202    3.0487 H         1 <0>         0.0736
     67 H29         2.3470   -1.1673    1.9346 H         1 <0>         0.0662
     68 H30         0.8876   -3.0316    3.2331 H         1 <0>         0.3935
@<TRIPOS>BOND
     1    1    2 1
     2    1   39 1
     3    1   40 1
     4    1   41 1
     5    2   18 ar
     6    2    3 ar
     7    3    4 ar
     8    3   42 1
     9    4    9 ar
    10    4    5 ar
    11    5    6 ar
    12    5   17 ar
    13    6    7 ar
    14    6   15 1
    15    7    8 ar
    16    7   14 1
    17    8    9 ar
    18    8   13 1
    19    9   10 1
    20   10   11 1
    21   10   12 1
    22   10   43 1
    23   11   44 1
    24   11   45 1
    25   11   46 1
    26   12   47 1
    27   12   48 1
    28   12   49 1
    29   13   50 1
    30   14   51 1
    31   15   16 2
    32   15   52 1
    33   17   18 ar
    34   17   38 1
    35   18   19 1
    36   19   24 ar
    37   19   20 ar
    38   20   21 ar
    39   20   37 1
    40   21   22 ar
    41   21   53 1
    42   22   29 ar
    43   22   23 ar
    44   23   24 ar
    45   23   26 ar
    46   24   25 1
    47   25   54 1
    48   26   27 ar
    49   26   35 1
    50   27   28 ar
    51   27   34 1
    52   28   29 ar
    53   28   33 1
    54   29   30 1
    55   30   31 1
    56   30   32 1
    57   30   55 1
    58   31   56 1
    59   31   57 1
    60   31   58 1
    61   32   59 1
    62   32   60 1
    63   32   61 1
    64   33   62 1
    65   34   63 1
    66   35   36 2
    67   35   64 1
    68   37   65 1
    69   37   66 1
    70   37   67 1
    71   38   68 1
@<TRIPOS>MOLECULE
ZINC03954602
   41    44     0     0     0
SMALL
USER_CHARGES
4-[(2-hydroxy-9H-carbazol-1-yl)azo]benzamidine
@<TRIPOS>ATOM
      1 H1         -3.3691   -0.3430    0.0338 H         1 <0>         0.4435
      2 C1         -1.4315   -0.9688    0.0111 C.cat     1 <0>         0.6002
      3 C2         -0.0352   -0.4791   -0.0002 C.ar      1 <0>        -0.1653
      4 C3          0.2228    0.8933    0.0046 C.ar      1 <0>        -0.0530
      5 C4          1.5208    1.3499   -0.0054 C.ar      1 <0>        -0.1294
      6 C5          2.5819    0.4389   -0.0201 C.ar      1 <0>         0.1481
      7 C6          2.3222   -0.9353   -0.0248 C.ar      1 <0>        -0.0786
      8 C7          1.0234   -1.3896   -0.0152 C.ar      1 <0>        -0.0485
      9 N1          3.8710    0.8911   -0.0301 N.2       1 <0>        -0.2600
     10 N2          4.1099    2.1587   -0.0256 N.2       1 <0>        -0.1616
     11 C8          5.3933    2.6088   -0.0355 C.ar      1 <0>        -0.0269
     12 C9          6.4598    1.6987   -0.0448 C.ar      1 <0>         0.2066
     13 C10         7.7693    2.1575   -0.0593 C.ar      1 <0>        -0.1963
     14 C11         8.0348    3.5106   -0.0552 C.ar      1 <0>         0.0249
     15 C12         6.9885    4.4322   -0.0408 C.ar      1 <0>        -0.1293
     16 C13         5.6589    3.9915   -0.0308 C.ar      1 <0>         0.2337
     17 N3          4.8319    5.0938   -0.0174 N.pl3     1 <0>        -0.5908
     18 H2          3.8626    5.0590   -0.0087 H         1 <0>         0.4233
     19 C14         5.5808    6.2572   -0.0183 C.ar      1 <0>         0.1241
     20 C15         6.9392    5.9064   -0.0325 C.ar      1 <0>        -0.0923
     21 C16         7.9163    6.8982   -0.0363 C.ar      1 <0>        -0.0624
     22 C17         7.5441    8.2257   -0.0263 C.ar      1 <0>        -0.1342
     23 C18         6.2027    8.5743   -0.0123 C.ar      1 <0>        -0.0805
     24 C19         5.2252    7.6020   -0.0084 C.ar      1 <0>        -0.1312
     25 O1          6.2105    0.3648   -0.0438 O.3       1 <0>        -0.4665
     26 N4         -1.6868   -2.3232    0.0064 N.pl3     1 <0>        -0.7820
     27 H3         -0.5968    1.5966    0.0116 H         1 <0>         0.1359
     28 H4          1.7201    2.4114   -0.0021 H         1 <0>         0.1510
     29 H5          3.1408   -1.6398   -0.0364 H         1 <0>         0.1581
     30 H6          0.8226   -2.4507   -0.0189 H         1 <0>         0.1437
     31 H7          8.5856    1.4505   -0.0705 H         1 <0>         0.1491
     32 H8          9.0573    3.8581   -0.0627 H         1 <0>         0.1466
     33 H9          8.9621    6.6287   -0.0469 H         1 <0>         0.1320
     34 H10         8.3004    8.9966   -0.0289 H         1 <0>         0.1339
     35 H11         5.9206    9.6168   -0.0040 H         1 <0>         0.1352
     36 H12         4.1829    7.8846    0.0025 H         1 <0>         0.1280
     37 H13         6.1312   -0.0212   -0.9269 H         1 <0>         0.4007
     38 H14        -0.9512   -2.9553   -0.0043 H         1 <0>         0.4428
     39 H15        -2.6021   -2.6442    0.0138 H         1 <0>         0.4308
     40 N5         -2.3904   -0.0552    0.0256 N.pl3     1 <0>        -0.7624
     41 H16        -2.1488    0.9427    0.0287 H         1 <0>         0.4591
@<TRIPOS>BOND
     1    1   40 1
     2    2    3 1
     3    2   26 1
     4    2   40 2
     5    3    8 ar
     6    3    4 ar
     7    4    5 ar
     8    4   27 1
     9    5    6 ar
    10    5   28 1
    11    6    7 ar
    12    6    9 1
    13    7    8 ar
    14    7   29 1
    15    8   30 1
    16    9   10 2
    17   10   11 1
    18   11   16 ar
    19   11   12 ar
    20   12   13 ar
    21   12   25 1
    22   13   14 ar
    23   13   31 1
    24   14   15 ar
    25   14   32 1
    26   15   20 1
    27   15   16 ar
    28   16   17 1
    29   17   18 1
    30   17   19 1
    31   19   24 ar
    32   19   20 ar
    33   20   21 ar
    34   21   22 ar
    35   21   33 1
    36   22   23 ar
    37   22   34 1
    38   23   24 ar
    39   23   35 1
    40   24   36 1
    41   25   37 1
    42   26   38 1
    43   26   39 1
    44   40   41 1
