@<TRIPOS>MOLECULE
ZINC03875456
   34    36     0     0     0
SMALL
USER_CHARGES
(2-ethylbenzofuran-3-yl)-(4-hydroxy-3,5-diiodo-phenyl)-methanone
@<TRIPOS>ATOM
      1 C1          2.3800    7.2287   -1.4568 C.3       1 <0>        -0.1537
      2 C2          2.1745    6.7760   -0.0098 C.3       1 <0>        -0.0588
      3 C3          1.5219    5.4177    0.0038 C.2       1 <0>         0.0975
      4 C4          2.1875    4.2289    0.0024 C.2       1 <0>        -0.2554
      5 C5          1.1422    3.1858    0.0178 C.ar      1 <0>        -0.0970
      6 C6          1.1590    1.7950    0.0239 C.ar      1 <0>        -0.0758
      7 C7         -0.0309    1.0991    0.0391 C.ar      1 <0>        -0.1236
      8 C8         -1.2381    1.7816    0.0429 C.ar      1 <0>        -0.0912
      9 C9         -1.2662    3.1599    0.0422 C.ar      1 <0>        -0.1001
     10 C10        -0.0769    3.8786    0.0269 C.ar      1 <0>         0.0525
     11 O1          0.2022    5.1986    0.0181 O.3       1 <0>        -0.1779
     12 C11         3.6434    4.0266   -0.0118 C.2       1 <0>         0.4819
     13 O2          4.2234    3.8535   -1.0675 O.2       1 <0>        -0.4231
     14 C12         4.4020    4.0334    1.2546 C.ar      1 <0>        -0.1677
     15 C13         3.7270    4.1241    2.4752 C.ar      1 <0>         0.0007
     16 C14         4.4381    4.1243    3.6550 C.ar      1 <0>        -0.1460
     17 C15         5.8261    4.0460    3.6323 C.ar      1 <0>         0.2090
     18 C16         6.5016    3.9614    2.4199 C.ar      1 <0>        -0.1461
     19 C17         5.7973    3.9548    1.2360 C.ar      1 <0>         0.0049
     20 I1          8.5931    3.8431    2.3936 I         1 <0>         0.0019
     21 O3          6.5236    4.0517    4.7967 O.3       1 <0>        -0.4724
     22 I2          3.4273    4.2508    5.4856 I         1 <0>         0.0007
     23 H1          1.4150    7.2841   -1.9606 H         1 <0>         0.0647
     24 H2          2.8520    8.2111   -1.4665 H         1 <0>         0.0746
     25 H3          3.0193    6.5132   -1.9740 H         1 <0>         0.0642
     26 H4          1.5351    7.4914    0.5074 H         1 <0>         0.0971
     27 H5          3.1394    6.7205    0.4941 H         1 <0>         0.0972
     28 H6          2.0990    1.2632    0.0172 H         1 <0>         0.1270
     29 H7         -0.0231    0.0191    0.0436 H         1 <0>         0.1344
     30 H8         -2.1653    1.2280    0.0503 H         1 <0>         0.1396
     31 H9         -2.2122    3.6809    0.0491 H         1 <0>         0.1364
     32 H10         2.6491    4.1894    2.4935 H         1 <0>         0.1473
     33 H11         6.3227    3.8887    0.2947 H         1 <0>         0.1531
     34 H12         6.7751    4.9348    5.1001 H         1 <0>         0.4041
@<TRIPOS>BOND
     1    1    2 1
     2    1   23 1
     3    1   24 1
     4    1   25 1
     5    2    3 1
     6    2   26 1
     7    2   27 1
     8    3   11 1
     9    3    4 2
    10    4    5 1
    11    4   12 1
    12    5   10 ar
    13    5    6 ar
    14    6    7 ar
    15    6   28 1
    16    7    8 ar
    17    7   29 1
    18    8    9 ar
    19    8   30 1
    20    9   10 ar
    21    9   31 1
    22   10   11 1
    23   12   13 2
    24   12   14 1
    25   14   19 ar
    26   14   15 ar
    27   15   16 ar
    28   15   32 1
    29   16   17 ar
    30   16   22 1
    31   17   18 ar
    32   17   21 1
    33   18   19 ar
    34   18   20 1
    35   19   33 1
    36   21   34 1
@<TRIPOS>MOLECULE
ZINC00264448
   26    28     0     0     0
SMALL
USER_CHARGES
1-(4-chlorophenyl)indole
@<TRIPOS>ATOM
      1 C1         -1.2280    1.7465    0.0174 C.ar      1 <0>        -0.1422
      2 C2         -0.0126    1.0758    0.0080 C.ar      1 <0>        -0.0965
      3 C3          1.1751    1.7740    0.0004 C.ar      1 <0>        -0.1268
      4 C4          1.1589    3.1647    0.0080 C.ar      1 <0>         0.0972
      5 C5         -0.0753    3.8398    0.0234 C.ar      1 <0>        -0.1060
      6 C6         -1.2669    3.1124    0.0317 C.ar      1 <0>        -0.0701
      7 C7          0.2446    5.2697    0.0281 C.2       1 <0>        -0.1895
      8 C8          1.5829    5.3736    0.0158 C.2       1 <0>         0.0497
      9 N1          2.1478    4.1255    0.0037 N.pl3     1 <0>        -0.4408
     10 C9          3.5243    3.8645   -0.0104 C.ar      1 <0>         0.1366
     11 C10         4.0730    2.9756    0.9043 C.ar      1 <0>        -0.1112
     12 C11         5.4296    2.7171    0.8858 C.ar      1 <0>        -0.0897
     13 C12         6.2432    3.3501   -0.0375 C.ar      1 <0>        -0.0381
     14 C13         5.6995    4.2401   -0.9471 C.ar      1 <0>        -0.0900
     15 C14         4.3429    4.4987   -0.9355 C.ar      1 <0>        -0.1110
     16 Cl1         7.9489    3.0276   -0.0542 Cl        1 <0>        -0.0589
     17 H1         -2.1501    1.1843    0.0184 H         1 <0>         0.1249
     18 H2          0.0021   -0.0041    0.0020 H         1 <0>         0.1272
     19 H3          2.1156    1.2432   -0.0111 H         1 <0>         0.1196
     20 H4         -2.2161    3.6274    0.0435 H         1 <0>         0.1250
     21 H5         -0.4627    6.0858    0.0389 H         1 <0>         0.1529
     22 H6          2.1327    6.3032    0.0156 H         1 <0>         0.1712
     23 H7          3.4391    2.4845    1.6278 H         1 <0>         0.1390
     24 H8          5.8563    2.0230    1.5947 H         1 <0>         0.1435
     25 H9          6.3366    4.7331   -1.6664 H         1 <0>         0.1437
     26 H10         3.9192    5.1938   -1.6452 H         1 <0>         0.1399
@<TRIPOS>BOND
     1    1    6 ar
     2    1    2 ar
     3    1   17 1
     4    2    3 ar
     5    2   18 1
     6    3    4 ar
     7    3   19 1
     8    4    9 1
     9    4    5 ar
    10    5    6 ar
    11    5    7 1
    12    6   20 1
    13    7    8 2
    14    7   21 1
    15    8    9 1
    16    8   22 1
    17    9   10 1
    18   10   15 ar
    19   10   11 ar
    20   11   12 ar
    21   11   23 1
    22   12   13 ar
    23   12   24 1
    24   13   14 ar
    25   13   16 1
    26   14   15 ar
    27   14   25 1
    28   15   26 1
@<TRIPOS>MOLECULE
ZINC01017885
   33    35     0     0     0
SMALL
USER_CHARGES

@<TRIPOS>ATOM
      1 C1         -0.0167    1.3792    0.0096 C.ar      1 <0>        -0.1239
      2 C2          1.1686    2.0926    0.0021 C.ar      1 <0>        -0.1200
      3 C3          2.3774    1.4273   -0.0130 C.ar      1 <0>        -0.0975
      4 C4          2.4027    0.0332   -0.0207 C.ar      1 <0>        -0.0404
      5 C5          1.2047   -0.6804   -0.0131 C.ar      1 <0>        -0.1012
      6 C6          0.0021   -0.0041    0.0020 C.ar      1 <0>        -0.1238
      7 C7          3.6975   -0.6872   -0.0375 C.ar      1 <0>         0.0715
      8 C8          3.9559   -1.7153    0.8664 C.ar      1 <0>        -0.2777
      9 C9          5.1842   -2.3690    0.8194 C.ar      1 <0>         0.2321
     10 N1          6.1097   -2.0275   -0.0713 N.ar      1 <0>        -0.5346
     11 C10         5.9130   -1.0608   -0.9482 C.ar      1 <0>         0.4564
     12 C11         4.7005   -0.3541   -0.9739 C.ar      1 <0>        -0.2122
     13 C12         4.4864    0.6902   -1.9299 C.1       1 <0>         0.3075
     14 N2          4.3165    1.5187   -2.6884 N.1       1 <0>        -0.4865
     15 O1          6.8888   -0.7512   -1.8355 O.3       1 <0>        -0.6752
     16 C13         5.4644   -3.4627    1.7779 C.ar      1 <0>        -0.0596
     17 C14         4.5020   -3.8366    2.7151 C.ar      1 <0>        -0.0560
     18 C15         4.7684   -4.8564    3.6060 C.ar      1 <0>        -0.1105
     19 C16         5.9892   -5.5102    3.5731 C.ar      1 <0>        -0.0731
     20 C17         6.9499   -5.1476    2.6491 C.ar      1 <0>        -0.1547
     21 C18         6.6939   -4.1296    1.7437 C.ar      1 <0>         0.1692
     22 O2          7.6355   -3.7765    0.8311 O.3       1 <0>        -0.4618
     23 Br1         3.4625   -5.3626    4.8765 Br        1 <0>        -0.0592
     24 H1         -0.9603    1.9042    0.0260 H         1 <0>         0.1181
     25 H2          1.1477    3.1724    0.0078 H         1 <0>         0.1200
     26 H3          3.3021    1.9853   -0.0192 H         1 <0>         0.1205
     27 H4          1.2182   -1.7603   -0.0194 H         1 <0>         0.1262
     28 H5         -0.9264   -0.5557    0.0083 H         1 <0>         0.1211
     29 H6          3.2123   -2.0016    1.5954 H         1 <0>         0.1200
     30 H7          3.5494   -3.3285    2.7440 H         1 <0>         0.1410
     31 H8          6.1910   -6.3072    4.2735 H         1 <0>         0.1323
     32 H9          7.9000   -5.6608    2.6291 H         1 <0>         0.1369
     33 H10         8.2418   -3.0885    1.1376 H         1 <0>         0.3950
@<TRIPOS>BOND
     1    1    6 ar
     2    1    2 ar
     3    1   24 1
     4    2    3 ar
     5    2   25 1
     6    3    4 ar
     7    3   26 1
     8    4    5 ar
     9    4    7 1
    10    5    6 ar
    11    5   27 1
    12    6   28 1
    13    7   12 ar
    14    7    8 ar
    15    8    9 ar
    16    8   29 1
    17    9   10 ar
    18    9   16 1
    19   10   11 ar
    20   11   12 ar
    21   11   15 1
    22   12   13 1
    23   13   14 3
    24   16   21 ar
    25   16   17 ar
    26   17   18 ar
    27   17   30 1
    28   18   19 ar
    29   18   23 1
    30   19   20 ar
    31   19   31 1
    32   20   21 ar
    33   20   32 1
    34   21   22 1
    35   22   33 1
@<TRIPOS>MOLECULE
ZINC01017885
   32    34     0     0     0
SMALL
USER_CHARGES

@<TRIPOS>ATOM
      1 C1         -0.0167    1.3792    0.0096 C.ar      1 <0>        -0.1361
      2 C2          1.1686    2.0926    0.0021 C.ar      1 <0>        -0.1229
      3 C3          2.3774    1.4273   -0.0130 C.ar      1 <0>        -0.1012
      4 C4          2.4027    0.0332   -0.0207 C.ar      1 <0>        -0.0186
      5 C5          1.2047   -0.6804   -0.0131 C.ar      1 <0>        -0.1050
      6 C6          0.0021   -0.0041    0.0020 C.ar      1 <0>        -0.1258
      7 C7          3.6975   -0.6872   -0.0375 C.ar      1 <0>         0.0520
      8 C8          3.9559   -1.7153    0.8664 C.ar      1 <0>        -0.2887
      9 C9          5.1842   -2.3690    0.8194 C.ar      1 <0>         0.2794
     10 N1          6.1097   -2.0275   -0.0713 N.ar      1 <0>        -0.5039
     11 C10         5.9130   -1.0608   -0.9482 C.ar      1 <0>         0.4552
     12 C11         4.7005   -0.3541   -0.9739 C.ar      1 <0>        -0.2596
     13 C12         4.4864    0.6902   -1.9299 C.1       1 <0>         0.3262
     14 N2          4.3165    1.5187   -2.6884 N.1       1 <0>        -0.5283
     15 O1          6.8888   -0.7512   -1.8355 O.3       1 <0>        -0.6973
     16 C13         5.4644   -3.4627    1.7779 C.ar      1 <0>        -0.2032
     17 C14         4.5020   -3.8366    2.7151 C.ar      1 <0>        -0.0105
     18 C15         4.7684   -4.8564    3.6060 C.ar      1 <0>        -0.2389
     19 C16         5.9892   -5.5102    3.5731 C.ar      1 <0>        -0.0371
     20 C17         6.9499   -5.1476    2.6491 C.ar      1 <0>        -0.2693
     21 C18         6.6939   -4.1296    1.7437 C.ar      1 <0>         0.3010
     22 O2          7.6355   -3.7765    0.8311 O.3       1 <0>        -0.6351
     23 Br1         3.4625   -5.3626    4.8765 Br        1 <0>        -0.1309
     24 H1         -0.9603    1.9042    0.0260 H         1 <0>         0.1122
     25 H2          1.1477    3.1724    0.0078 H         1 <0>         0.1147
     26 H3          3.3021    1.9853   -0.0192 H         1 <0>         0.1195
     27 H4          1.2182   -1.7603   -0.0194 H         1 <0>         0.1264
     28 H5         -0.9264   -0.5557    0.0083 H         1 <0>         0.1165
     29 H6          3.2123   -2.0016    1.5954 H         1 <0>         0.1117
     30 H7          3.5494   -3.3285    2.7440 H         1 <0>         0.1053
     31 H8          6.1910   -6.3072    4.2735 H         1 <0>         0.0934
     32 H9          7.9000   -5.6608    2.6291 H         1 <0>         0.0987
@<TRIPOS>BOND
     1    1    6 ar
     2    1    2 ar
     3    1   24 1
     4    2    3 ar
     5    2   25 1
     6    3    4 ar
     7    3   26 1
     8    4    5 ar
     9    4    7 1
    10    5    6 ar
    11    5   27 1
    12    6   28 1
    13    7   12 ar
    14    7    8 ar
    15    8    9 ar
    16    8   29 1
    17    9   10 ar
    18    9   16 1
    19   10   11 ar
    20   11   12 ar
    21   11   15 1
    22   12   13 1
    23   13   14 3
    24   16   21 ar
    25   16   17 ar
    26   17   18 ar
    27   17   30 1
    28   18   19 ar
    29   18   23 1
    30   19   20 ar
    31   19   31 1
    32   20   21 ar
    33   20   32 1
    34   21   22 1
@<TRIPOS>MOLECULE
ZINC01017885
   33    35     0     0     0
SMALL
USER_CHARGES

@<TRIPOS>ATOM
      1 C1         -0.2252    0.9467    0.2465 C.ar      1 <0>        -0.1135
      2 C2          0.8903    1.7592    0.1468 C.ar      1 <0>        -0.1200
      3 C3          2.1497    1.2007    0.0734 C.ar      1 <0>        -0.0921
      4 C4          2.2970   -0.1868    0.0999 C.ar      1 <0>        -0.0657
      5 C5          1.1679   -1.0006    0.2007 C.ar      1 <0>        -0.0909
      6 C6         -0.0859   -0.4296    0.2733 C.ar      1 <0>        -0.1206
      7 C7          3.6450   -0.7925    0.0211 C.2       1 <0>         0.1388
      8 C8          4.0118   -1.5737   -1.0833 C.2       1 <0>        -0.2564
      9 C9          5.2724   -2.1303   -1.1394 C.2       1 <0>         0.3493
     10 N1          6.1737   -1.9317   -0.1303 N.am      1 <0>        -0.5783
     11 C10         5.8609   -1.1884    0.9470 C.2       1 <0>         0.5473
     12 C11         4.5827   -0.5892    1.0516 C.2       1 <0>        -0.2130
     13 C12         4.2458    0.2079    2.1926 C.1       1 <0>         0.2971
     14 N2          3.9786    0.8401    3.0978 N.1       1 <0>        -0.4467
     15 O1          6.6823   -1.0269    1.8334 O.2       1 <0>        -0.5544
     16 C13         5.6535   -2.9513   -2.3034 C.ar      1 <0>        -0.2763
     17 C14         5.5710   -2.4218   -3.5940 C.ar      1 <0>         0.0122
     18 C15         5.9289   -3.1951   -4.6781 C.ar      1 <0>        -0.2167
     19 C16         6.3704   -4.4960   -4.4934 C.ar      1 <0>        -0.0251
     20 C17         6.4564   -5.0308   -3.2228 C.ar      1 <0>        -0.2432
     21 C18         6.1061   -4.2656   -2.1212 C.ar      1 <0>         0.3082
     22 O2          6.1957   -4.7886   -0.8719 O.3       1 <0>        -0.6887
     23 Br1         5.8164   -2.4781   -6.4243 Br        1 <0>        -0.0971
     24 H1         -1.2086    1.3889    0.3082 H         1 <0>         0.1219
     25 H2          0.7749    2.8328    0.1260 H         1 <0>         0.1242
     26 H3          3.0197    1.8359   -0.0047 H         1 <0>         0.1246
     27 H4          1.2752   -2.0750    0.2213 H         1 <0>         0.1310
     28 H5         -0.9606   -1.0583    0.3517 H         1 <0>         0.1258
     29 H6          3.3098   -1.7394   -1.8872 H         1 <0>         0.1534
     30 H7          5.2271   -1.4088   -3.7421 H         1 <0>         0.1156
     31 H8          6.6485   -5.0950   -5.3479 H         1 <0>         0.1100
     32 H9          6.8010   -6.0453   -3.0870 H         1 <0>         0.1140
     33 H10         7.0541   -2.3340   -0.1920 H         1 <0>         0.4253
@<TRIPOS>BOND
     1    1    6 ar
     2    1    2 ar
     3    1   24 1
     4    2    3 ar
     5    2   25 1
     6    3    4 ar
     7    3   26 1
     8    4    5 ar
     9    4    7 1
    10    5    6 ar
    11    5   27 1
    12    6   28 1
    13    7   12 2
    14    7    8 1
    15    8    9 2
    16    8   29 1
    17    9   10 1
    18    9   16 1
    19   10   11 am
    20   10   33 1
    21   11   12 1
    22   11   15 2
    23   12   13 1
    24   13   14 3
    25   16   21 ar
    26   16   17 ar
    27   17   18 ar
    28   17   30 1
    29   18   19 ar
    30   18   23 1
    31   19   20 ar
    32   19   31 1
    33   20   21 ar
    34   20   32 1
    35   21   22 1
@<TRIPOS>MOLECULE
ZINC00394970
   30    32     0     0     0
SMALL
USER_CHARGES
N-(3-chlorophenyl)naphthalen-2-amine
@<TRIPOS>ATOM
      1 C1          2.9882   10.2087   -0.2697 C.ar      1 <0>        -0.1277
      2 C2          4.2528    9.6244   -0.3128 C.ar      1 <0>        -0.1062
      3 C3          4.4013    8.2723   -0.2697 C.ar      1 <0>        -0.1170
      4 C4          3.2645    7.4500   -0.1798 C.ar      1 <0>        -0.0180
      5 C5          3.3805    6.0513   -0.1337 C.ar      1 <0>        -0.1637
      6 C6          2.2432    5.2787   -0.0461 C.ar      1 <0>         0.1820
      7 C7          0.9762    5.8743   -0.0087 C.ar      1 <0>        -0.1472
      8 C8          0.8386    7.2257   -0.0462 C.ar      1 <0>        -0.0723
      9 C9          1.9783    8.0443   -0.1355 C.ar      1 <0>        -0.0770
     10 C10         1.8655    9.4443   -0.1827 C.ar      1 <0>        -0.0955
     11 N1          2.3546    3.8874   -0.0000 N.pl3     1 <0>        -0.6847
     12 C11         1.4130    3.1343    0.7056 C.ar      1 <0>         0.1953
     13 C12         1.1172    1.8371    0.3048 C.ar      1 <0>        -0.1636
     14 C13         0.1858    1.0951    1.0038 C.ar      1 <0>        -0.0711
     15 C14        -0.4572    1.6432    2.0986 C.ar      1 <0>        -0.1457
     16 C15        -0.1613    2.9328    2.5044 C.ar      1 <0>        -0.0005
     17 C16         0.7702    3.6808    1.8089 C.ar      1 <0>        -0.1590
     18 Cl1        -0.9657    3.6142    3.8836 Cl        1 <0>        -0.0650
     19 H1          2.8979   11.2843   -0.3054 H         1 <0>         0.1228
     20 H2          5.1277   10.2538   -0.3819 H         1 <0>         0.1230
     21 H3          5.3874    7.8332   -0.3047 H         1 <0>         0.1260
     22 H4          4.3540    5.5847   -0.1669 H         1 <0>         0.1288
     23 H5          0.0965    5.2510    0.0552 H         1 <0>         0.1272
     24 H6         -0.1451    7.6703   -0.0123 H         1 <0>         0.1317
     25 H7          0.8923    9.9115   -0.1502 H         1 <0>         0.1267
     26 H8          3.0857    3.4440   -0.4579 H         1 <0>         0.4132
     27 H9          1.6152    1.4096   -0.5529 H         1 <0>         0.1308
     28 H10        -0.0442    0.0868    0.6924 H         1 <0>         0.1360
     29 H11        -1.1888    1.0623    2.6405 H         1 <0>         0.1341
     30 H12         0.9975    4.6888    2.1227 H         1 <0>         0.1365
@<TRIPOS>BOND
     1    1   10 ar
     2    1    2 ar
     3    1   19 1
     4    2    3 ar
     5    2   20 1
     6    3    4 ar
     7    3   21 1
     8    4    9 ar
     9    4    5 ar
    10    5    6 ar
    11    5   22 1
    12    6    7 ar
    13    6   11 1
    14    7    8 ar
    15    7   23 1
    16    8    9 ar
    17    8   24 1
    18    9   10 ar
    19   10   25 1
    20   11   12 1
    21   11   26 1
    22   12   17 ar
    23   12   13 ar
    24   13   14 ar
    25   13   27 1
    26   14   15 ar
    27   14   28 1
    28   15   16 ar
    29   15   29 1
    30   16   17 ar
    31   16   18 1
    32   17   30 1
