@<TRIPOS>MOLECULE
ZINC40896204
   74    77     0     0     0
SMALL
USER_CHARGES

@<TRIPOS>ATOM
      1 C1         -0.3437    2.4177    1.9853 C.3       1 <0>        -0.1825
      2 C2         -0.4684    1.0390    1.3336 C.3       1 <0>         0.0048
      3 H1         -0.2059    1.1110    0.2781 H         1 <0>         0.1670
      4 C3          0.4642    0.0735    2.0185 C.2       1 <0>         0.5053
      5 O1          0.0208   -0.9166    2.5608 O.2       1 <0>        -0.5199
      6 N1          1.7910    0.3102    2.0283 N.am      1 <0>        -0.6831
      7 C4          2.6976   -0.6285    2.6941 C.3       1 <0>         0.1387
      8 H2          2.2088   -1.0420    3.5762 H         1 <0>         0.1161
      9 C5          3.9535    0.0942    3.1080 C.2       1 <0>         0.5285
     10 O2          4.3946    0.9880    2.4170 O.2       1 <0>        -0.5169
     11 N2          4.5866   -0.2527    4.2461 N.am      1 <0>        -0.6021
     12 C6          4.2233   -1.3822    5.1202 C.3       1 <0>         0.0874
     13 C7          4.7455   -0.9807    6.5211 C.3       1 <0>        -0.1296
     14 C8          6.0678   -0.2521    6.1756 C.3       1 <0>        -0.0990
     15 H3          6.3847    0.4482    6.9484 H         1 <0>         0.1094
     16 C9          5.7564    0.4289    4.8163 C.3       1 <0>         0.1315
     17 H4          5.5600    1.4925    4.9509 H         1 <0>         0.0913
     18 C10         6.9777    0.1854    3.9137 C.3       1 <0>         0.1419
     19 H5          6.6837   -0.3890    3.0353 H         1 <0>         0.0972
     20 C11         7.9961   -0.6149    4.7507 C.3       1 <0>        -0.1372
     21 C12         7.1411   -1.3155    5.8444 C.3       1 <0>        -0.1195
     22 N3          7.5606    1.4652    3.5032 N.am      1 <0>        -0.7154
     23 C13         8.2771    1.5450    2.3645 C.2       1 <0>         0.5707
     24 O3          8.4397    0.5547    1.6778 O.2       1 <0>        -0.5286
     25 C14         8.8638    2.8332    1.9513 C.ar      1 <0>        -0.1279
     26 C15         8.5802    3.9923    2.6586 C.ar      1 <0>        -0.0712
     27 C16         9.1298    5.2087    2.2744 C.ar      1 <0>        -0.1337
     28 C17         9.9596    5.2992    1.1970 C.ar      1 <0>        -0.0698
     29 C18        10.2746    4.1505    0.4508 C.ar      1 <0>        -0.0610
     30 C19         9.7288    2.9002    0.8304 C.ar      1 <0>        -0.0124
     31 C20        10.0476    1.7548    0.0886 C.ar      1 <0>        -0.1179
     32 C21        10.8823    1.8558   -0.9836 C.ar      1 <0>        -0.1128
     33 C22        11.4253    3.0837   -1.3551 C.ar      1 <0>        -0.1117
     34 C23        11.1272    4.2187   -0.6649 C.ar      1 <0>        -0.1098
     35 C24         3.0554   -1.7620    1.7308 C.3       1 <0>        -0.0697
     36 C25         3.6183   -1.1725    0.4360 C.3       1 <0>        -0.1467
     37 C26         4.1051   -2.6683    2.3772 C.3       1 <0>        -0.1558
     38 C27         1.8006   -2.5789    1.4160 C.3       1 <0>        -0.1311
     39 N4         -1.8509    0.5596    1.4628 N.4       1 <0>        -0.4939
     40 C28        -2.7465    1.4349    0.6949 C.3       1 <0>        -0.0504
     41 H6          0.6821    2.7734    1.8895 H         1 <0>         0.1110
     42 H7         -1.0183    3.1161    1.4900 H         1 <0>         0.1000
     43 H8         -0.6062    2.3457    3.0408 H         1 <0>         0.0904
     44 H9          2.1456    1.1020    1.5946 H         1 <0>         0.4181
     45 H10         3.1413   -1.5129    5.1416 H         1 <0>         0.0803
     46 H11         4.7103   -2.2965    4.7812 H         1 <0>         0.0845
     47 H12         4.0480   -0.3066    7.0181 H         1 <0>         0.0789
     48 H13         4.9355   -1.8625    7.1331 H         1 <0>         0.0946
     49 H14         8.5083   -1.3489    4.1286 H         1 <0>         0.0783
     50 H15         8.7149    0.0562    5.2208 H         1 <0>         0.0758
     51 H16         7.7361   -1.5508    6.7269 H         1 <0>         0.0817
     52 H17         6.6797   -2.2155    5.4379 H         1 <0>         0.0733
     53 H18         7.4310    2.2551    4.0510 H         1 <0>         0.3985
     54 H19         7.9253    3.9485    3.5163 H         1 <0>         0.1237
     55 H20         8.8952    6.0988    2.8393 H         1 <0>         0.1310
     56 H21        10.3755    6.2554    0.9158 H         1 <0>         0.1332
     57 H22         9.6340    0.7964    0.3657 H         1 <0>         0.1672
     58 H23        11.1267    0.9714   -1.5533 H         1 <0>         0.1250
     59 H24        12.0846    3.1376   -2.2088 H         1 <0>         0.1256
     60 H25        11.5546    5.1642   -0.9644 H         1 <0>         0.1302
     61 H26         4.5122   -0.5905    0.6603 H         1 <0>         0.0688
     62 H27         3.8732   -1.9801   -0.2502 H         1 <0>         0.0649
     63 H28         2.8705   -0.5269   -0.0245 H         1 <0>         0.0508
     64 H29         3.6772   -3.1504    3.2562 H         1 <0>         0.0650
     65 H30         4.4184   -3.4289    1.6620 H         1 <0>         0.0725
     66 H31         4.9675   -2.0713    2.6738 H         1 <0>         0.0624
     67 H32         1.0528   -1.9333    0.9555 H         1 <0>         0.0471
     68 H33         2.0556   -3.3865    0.7297 H         1 <0>         0.0618
     69 H34         1.3996   -2.9990    2.3384 H         1 <0>         0.0651
     70 H35        -1.9148   -0.3824    1.1070 H         1 <0>         0.4376
     71 H36        -2.6775    2.4525    1.0792 H         1 <0>         0.1274
     72 H37        -2.4543    1.4225   -0.3552 H         1 <0>         0.1268
     73 H38        -3.7724    1.0791    0.7907 H         1 <0>         0.1338
     74 H39        -2.1215    0.5711    2.4348 H         1 <0>         0.4347
@<TRIPOS>BOND
     1    1    2 1
     2    1   41 1
     3    1   42 1
     4    1   43 1
     5    2    3 1
     6    2    4 1
     7    2   39 1
     8    4    5 2
     9    4    6 am
    10    6    7 1
    11    6   44 1
    12    7    8 1
    13    7    9 1
    14    7   35 1
    15    9   10 2
    16    9   11 am
    17   11   16 1
    18   11   12 1
    19   12   13 1
    20   12   45 1
    21   12   46 1
    22   13   14 1
    23   13   47 1
    24   13   48 1
    25   14   15 1
    26   14   21 1
    27   14   16 1
    28   16   17 1
    29   16   18 1
    30   18   19 1
    31   18   20 1
    32   18   22 1
    33   20   21 1
    34   20   49 1
    35   20   50 1
    36   21   51 1
    37   21   52 1
    38   22   23 am
    39   22   53 1
    40   23   24 2
    41   23   25 1
    42   25   30 ar
    43   25   26 ar
    44   26   27 ar
    45   26   54 1
    46   27   28 ar
    47   27   55 1
    48   28   29 ar
    49   28   56 1
    50   29   34 ar
    51   29   30 ar
    52   30   31 ar
    53   31   32 ar
    54   31   57 1
    55   32   33 ar
    56   32   58 1
    57   33   34 ar
    58   33   59 1
    59   34   60 1
    60   35   36 1
    61   35   37 1
    62   35   38 1
    63   36   61 1
    64   36   62 1
    65   36   63 1
    66   37   64 1
    67   37   65 1
    68   37   66 1
    69   38   67 1
    70   38   68 1
    71   38   69 1
    72   39   40 1
    73   39   70 1
    74   39   74 1
    75   40   71 1
    76   40   72 1
    77   40   73 1
