@<TRIPOS>MOLECULE
ZINC26575028
  120   124     0     0     0
SMALL
USER_CHARGES

@<TRIPOS>ATOM
      1 C1          2.8235   -8.3773    6.0809 C.3       1 <0>        -0.1631
      2 C2          2.1128   -7.1832    6.7214 C.3       1 <0>        -0.1216
      3 C3          2.3526   -5.9323    5.8736 C.3       1 <0>        -0.1333
      4 C4          1.6420   -4.7383    6.5141 C.3       1 <0>        -0.6628
      5 P1          1.9277   -3.2478    5.5040 P.3       1 <0>         2.2247
      6 C5          1.0810   -1.8251    6.2670 C.3       1 <0>        -0.6627
      7 C6          1.3208   -0.5742    5.4193 C.3       1 <0>        -0.1336
      8 C7          0.6101    0.6198    6.0597 C.3       1 <0>        -0.1219
      9 C8          0.8499    1.8707    5.2120 C.3       1 <0>        -0.1635
     10 C9          3.7169   -2.9112    5.4100 C.3       1 <0>        -0.6639
     11 C10         4.2681   -2.6856    6.8193 C.3       1 <0>        -0.1332
     12 C11         5.7697   -2.4031    6.7405 C.3       1 <0>        -0.1236
     13 C12         6.3209   -2.1774    8.1498 C.3       1 <0>        -0.1631
     14 C13         1.2710   -3.5167    3.8248 C.3       1 <0>        -0.6099
     15 C14        -0.2081   -3.7949    3.9024 C.ar      1 <0>        -0.1321
     16 C15        -0.6592   -5.0945    4.0432 C.ar      1 <0>        -0.0917
     17 C16        -2.0141   -5.3528    4.1147 C.ar      1 <0>        -0.1106
     18 C17        -2.9236   -4.3058    4.0455 C.ar      1 <0>         0.1607
     19 C18        -2.4674   -3.0017    3.9046 C.ar      1 <0>        -0.1283
     20 C19        -1.1111   -2.7496    3.8385 C.ar      1 <0>        -0.0900
     21 N1         -4.2970   -4.5641    4.1172 N.am      1 <0>        -0.6627
     22 C20        -4.7532   -5.5770    4.8803 C.2       1 <0>         0.5169
     23 O1         -3.9854   -6.2014    5.5815 O.2       1 <0>        -0.4975
     24 C21        -6.2172   -5.9337    4.8624 C.3       1 <0>         0.1252
     25 H1         -6.5107   -6.2135    3.8506 H         1 <0>         0.1245
     26 C22        -7.0416   -4.7277    5.3174 C.3       1 <0>        -0.0954
     27 C23        -8.5086   -5.0321    5.1554 C.ar      1 <0>        -0.1104
     28 C24        -9.1243   -4.8083    3.9251 C.ar      1 <0>        -0.1313
     29 C25       -10.4472   -5.0721    3.7453 C.ar      1 <0>        -0.0845
     30 C26       -11.2068   -5.5783    4.8139 C.ar      1 <0>        -0.0471
     31 C27       -12.5750   -5.8633    4.6662 C.ar      1 <0>        -0.1057
     32 C28       -13.2788   -6.3529    5.7232 C.ar      1 <0>        -0.1028
     33 C29       -12.6630   -6.5770    6.9533 C.ar      1 <0>        -0.0998
     34 C30       -11.3402   -6.3127    7.1332 C.ar      1 <0>        -0.1148
     35 C31       -10.5807   -5.8062    6.0647 C.ar      1 <0>        -0.0486
     36 C32        -9.2112   -5.5265    6.2108 C.ar      1 <0>        -0.0926
     37 N2         -6.4568   -7.0591    5.7692 N.pl3     1 <0>        -0.6843
     38 C33        -7.3580   -8.0307    5.4302 C.cat     1 <0>         0.7392
     39 N3         -7.9617   -7.9943    4.2435 N.pl3     1 <0>        -0.6711
     40 C34        -8.8710   -9.0738    3.8508 C.3       1 <0>         0.1248
     41 C35        -8.0596  -10.3252    3.5093 C.3       1 <0>        -0.1407
     42 C36        -9.0093  -11.4525    3.0992 C.3       1 <0>        -0.1189
     43 C37        -9.8172  -11.0186    1.8745 C.3       1 <0>        -0.1286
     44 C38       -10.6286   -9.7672    2.2160 C.3       1 <0>        -0.1167
     45 C39        -9.6789   -8.6399    2.6261 C.3       1 <0>        -0.1245
     46 N4         -7.6319   -9.0132    6.2869 N.pl3     1 <0>        -0.6685
     47 C40        -6.9290   -9.0830    7.5704 C.3       1 <0>         0.1240
     48 C41        -7.6625   -8.2223    8.6010 C.3       1 <0>        -0.1381
     49 C42        -6.9285   -8.2953    9.9414 C.3       1 <0>        -0.1183
     50 C43        -6.8903   -9.7468   10.4237 C.3       1 <0>        -0.1291
     51 C44        -6.1569  -10.6075    9.3931 C.3       1 <0>        -0.1171
     52 C45        -6.8909  -10.5345    8.0526 C.3       1 <0>        -0.1276
     53 H2          3.8933   -8.1760    6.0248 H         1 <0>         0.0611
     54 H3          2.6527   -9.2684    6.6849 H         1 <0>         0.0655
     55 H4          2.4308   -8.5380    5.0769 H         1 <0>         0.0580
     56 H5          1.0431   -7.3845    6.7776 H         1 <0>         0.0694
     57 H6          2.5055   -7.0225    7.7254 H         1 <0>         0.0726
     58 H7          3.4224   -5.7311    5.8175 H         1 <0>         0.0863
     59 H8          1.9600   -6.0931    4.8696 H         1 <0>         0.0804
     60 H9          0.5722   -4.9395    6.5702 H         1 <0>         0.1400
     61 H10         2.0347   -4.5775    7.5181 H         1 <0>         0.1432
     62 H11         0.0112   -2.0264    6.3232 H         1 <0>         0.1399
     63 H12         1.4737   -1.6644    7.2711 H         1 <0>         0.1433
     64 H13         2.3905   -0.3730    5.3631 H         1 <0>         0.0861
     65 H14         0.9281   -0.7350    4.4153 H         1 <0>         0.0809
     66 H15        -0.4597    0.4185    6.1159 H         1 <0>         0.0699
     67 H16         1.0028    0.7806    7.0637 H         1 <0>         0.0725
     68 H17         1.9197    2.0720    5.1558 H         1 <0>         0.0608
     69 H18         0.4572    1.7099    4.2080 H         1 <0>         0.0586
     70 H19         0.3436    2.7214    5.6682 H         1 <0>         0.0663
     71 H20         4.2232   -3.7619    4.9538 H         1 <0>         0.1428
     72 H21         3.8877   -2.0201    4.8061 H         1 <0>         0.1431
     73 H22         3.7618   -1.8349    7.2756 H         1 <0>         0.0839
     74 H23         4.0973   -3.5767    7.4233 H         1 <0>         0.0836
     75 H24         6.2760   -3.2537    6.2842 H         1 <0>         0.0721
     76 H25         5.9405   -1.5119    6.1365 H         1 <0>         0.0724
     77 H26         5.8146   -1.3267    8.6060 H         1 <0>         0.0594
     78 H27         6.1501   -3.0686    8.7537 H         1 <0>         0.0591
     79 H28         7.3907   -1.9761    8.0936 H         1 <0>         0.0671
     80 H29         1.4418   -2.6256    3.2208 H         1 <0>         0.1514
     81 H30         1.7772   -4.3674    3.3685 H         1 <0>         0.1507
     82 H31         0.0487   -5.9084    4.0969 H         1 <0>         0.1385
     83 H32        -2.3658   -6.3681    4.2239 H         1 <0>         0.1437
     84 H33        -3.1723   -2.1853    3.8501 H         1 <0>         0.1427
     85 H34        -0.7554   -1.7353    3.7331 H         1 <0>         0.1413
     86 H35        -4.9206   -4.0143    3.6176 H         1 <0>         0.4214
     87 H36        -6.8280   -4.5161    6.3651 H         1 <0>         0.0997
     88 H37        -6.7813   -3.8601    4.7111 H         1 <0>         0.1066
     89 H38        -8.5428   -4.4194    3.1023 H         1 <0>         0.1266
     90 H39       -10.9110   -4.8931    2.7865 H         1 <0>         0.1342
     91 H40       -13.0656   -5.6943    3.7190 H         1 <0>         0.1329
     92 H41       -14.3302   -6.5707    5.6072 H         1 <0>         0.1312
     93 H42       -13.2445   -6.9658    7.7762 H         1 <0>         0.1295
     94 H43       -10.8765   -6.4909    8.0922 H         1 <0>         0.1260
     95 H44        -8.7198   -5.6993    7.1569 H         1 <0>         0.1221
     96 H45        -5.9764   -7.1153    6.6100 H         1 <0>         0.4390
     97 H46        -9.5500   -9.2946    4.6744 H         1 <0>         0.0986
     98 H47        -7.3806  -10.1044    2.6857 H         1 <0>         0.0820
     99 H48        -7.4840  -10.6343    4.3818 H         1 <0>         0.0667
    100 H49        -8.4312  -12.3440    2.8559 H         1 <0>         0.0794
    101 H50        -9.6882  -11.6733    3.9228 H         1 <0>         0.0699
    102 H51        -9.1382  -10.7978    1.0509 H         1 <0>         0.0684
    103 H52       -10.4937  -11.8217    1.5824 H         1 <0>         0.0769
    104 H53       -11.2041   -9.4581    1.3435 H         1 <0>         0.0812
    105 H54       -11.3075   -9.9880    3.0396 H         1 <0>         0.0707
    106 H55       -10.2569   -7.7483    2.8694 H         1 <0>         0.0818
    107 H56        -8.9999   -8.4191    1.8025 H         1 <0>         0.0789
    108 H57        -8.2967   -9.6824    6.0609 H         1 <0>         0.4350
    109 H58        -5.9108   -8.7141    7.4476 H         1 <0>         0.0994
    110 H59        -7.6897   -7.1882    8.2574 H         1 <0>         0.0671
    111 H60        -8.6808   -8.5913    8.7238 H         1 <0>         0.0837
    112 H61        -5.9102   -7.9263    9.8186 H         1 <0>         0.0673
    113 H62        -7.4510   -7.6821   10.6756 H         1 <0>         0.0786
    114 H63        -6.3674   -9.7987   11.3786 H         1 <0>         0.0756
    115 H64        -7.9086  -10.1157   10.5465 H         1 <0>         0.0701
    116 H65        -5.1386  -10.2385    9.2703 H         1 <0>         0.0688
    117 H66        -6.1297  -11.6415    9.7366 H         1 <0>         0.0814
    118 H67        -7.9092  -10.9035    8.1754 H         1 <0>         0.0820
    119 H68        -6.3683  -11.1477    7.3184 H         1 <0>         0.0793
    120 H69        -7.7992   -7.2531    3.6392 H         1 <0>         0.4275
@<TRIPOS>BOND
     1    1    2 1
     2    1   53 1
     3    1   54 1
     4    1   55 1
     5    2    3 1
     6    2   56 1
     7    2   57 1
     8    3    4 1
     9    3   58 1
    10    3   59 1
    11    4    5 1
    12    4   60 1
    13    4   61 1
    14    5    6 1
    15    5   10 1
    16    5   14 1
    17    6    7 1
    18    6   62 1
    19    6   63 1
    20    7    8 1
    21    7   64 1
    22    7   65 1
    23    8    9 1
    24    8   66 1
    25    8   67 1
    26    9   68 1
    27    9   69 1
    28    9   70 1
    29   10   11 1
    30   10   71 1
    31   10   72 1
    32   11   12 1
    33   11   73 1
    34   11   74 1
    35   12   13 1
    36   12   75 1
    37   12   76 1
    38   13   77 1
    39   13   78 1
    40   13   79 1
    41   14   15 1
    42   14   80 1
    43   14   81 1
    44   15   20 ar
    45   15   16 ar
    46   16   17 ar
    47   16   82 1
    48   17   18 ar
    49   17   83 1
    50   18   19 ar
    51   18   21 1
    52   19   20 ar
    53   19   84 1
    54   20   85 1
    55   21   22 am
    56   21   86 1
    57   22   23 2
    58   22   24 1
    59   24   25 1
    60   24   26 1
    61   24   37 1
    62   26   27 1
    63   26   87 1
    64   26   88 1
    65   27   36 ar
    66   27   28 ar
    67   28   29 ar
    68   28   89 1
    69   29   30 ar
    70   29   90 1
    71   30   35 ar
    72   30   31 ar
    73   31   32 ar
    74   31   91 1
    75   32   33 ar
    76   32   92 1
    77   33   34 ar
    78   33   93 1
    79   34   35 ar
    80   34   94 1
    81   35   36 ar
    82   36   95 1
    83   37   38 1
    84   37   96 1
    85   38   39 2
    86   38   46 1
    87   39   40 1
    88   39  120 1
    89   40   45 1
    90   40   41 1
    91   40   97 1
    92   41   42 1
    93   41   98 1
    94   41   99 1
    95   42   43 1
    96   42  100 1
    97   42  101 1
    98   43   44 1
    99   43  102 1
   100   43  103 1
   101   44   45 1
   102   44  104 1
   103   44  105 1
   104   45  106 1
   105   45  107 1
   106   46   47 1
   107   46  108 1
   108   47   52 1
   109   47   48 1
   110   47  109 1
   111   48   49 1
   112   48  110 1
   113   48  111 1
   114   49   50 1
   115   49  112 1
   116   49  113 1
   117   50   51 1
   118   50  114 1
   119   50  115 1
   120   51   52 1
   121   51  116 1
   122   51  117 1
   123   52  118 1
   124   52  119 1
