@<TRIPOS>MOLECULE
ZINC00105246
   15    15     0     0     0
SMALL
USER_CHARGES

@<TRIPOS>ATOM
      1 C1         -0.0167    1.3814    0.0096 C.ar      1 <0>        -0.1190
      2 C2          1.1913    2.0602    0.0017 C.ar      1 <0>        -0.1531
      3 C3          2.3839    1.3316   -0.0136 C.ar      1 <0>         0.0540
      4 N1          2.3670    0.0083   -0.0205 N.ar      1 <0>        -0.4035
      5 C4          1.2306   -0.6702   -0.0133 C.ar      1 <0>         0.0539
      6 C5          0.0021   -0.0041    0.0020 C.ar      1 <0>        -0.1531
      7 C6          1.2612   -2.1502   -0.0220 C.2       1 <0>         0.5375
      8 O1          2.3321   -2.7393   -0.0358 O.co2     1 <0>        -0.6626
      9 O2          0.2156   -2.7832   -0.0154 O.co2     1 <0>        -0.7000
     10 C7          3.6795    2.0476   -0.0226 C.2       1 <0>         0.5376
     11 O3          3.7024    3.2697   -0.0166 O.co2     1 <0>        -0.7001
     12 O4          4.7263    1.4168   -0.0360 O.co2     1 <0>        -0.6625
     13 H1         -0.9524    1.9205    0.0259 H         1 <0>         0.1158
     14 H2          1.2110    3.1400    0.0070 H         1 <0>         0.1275
     15 H3         -0.9221   -0.5628    0.0082 H         1 <0>         0.1275
@<TRIPOS>BOND
     1    1    6 ar
     2    1    2 ar
     3    1   13 1
     4    2    3 ar
     5    2   14 1
     6    3    4 ar
     7    3   10 1
     8    4    5 ar
     9    5    6 ar
    10    5    7 1
    11    6   15 1
    12    7    8 2
    13    7    9 1
    14   10   11 2
    15   10   12 1
