@<TRIPOS>MOLECULE
ZINC03815700
   43    46     0     0     0
SMALL
USER_CHARGES

@<TRIPOS>ATOM
      1 C1         -0.4417    2.5108    0.1274 C.3       1 <0>        -0.4980
      2 S1         -0.2285    0.7138    0.0013 S.o       1 <0>         1.3317
      3 O1          0.3381    0.2184    1.2066 O.2       1 <0>        -0.8500
      4 C2         -1.8753    0.0872    0.0153 C.ar      1 <0>        -0.4539
      5 C3         -2.4807   -0.2316    1.2179 C.ar      1 <0>        -0.0505
      6 C4         -3.7698   -0.7226    1.2359 C.ar      1 <0>        -0.0905
      7 C5         -4.4635   -0.8973    0.0374 C.ar      1 <0>         0.0183
      8 C6         -3.8471   -0.5733   -1.1722 C.ar      1 <0>        -0.1282
      9 C7         -2.5593   -0.0786   -1.1759 C.ar      1 <0>        -0.0372
     10 C8         -5.8450   -1.4235    0.0492 C.2       1 <0>         0.2539
     11 N1         -6.6187   -1.6414   -1.0552 N.pl3     1 <0>        -0.5494
     12 H1         -6.3641   -1.4808   -1.9773 H         1 <0>         0.4258
     13 C9         -7.8254   -2.1307   -0.6157 C.2       1 <0>         0.0559
     14 C10        -7.7421   -2.1946    0.7659 C.2       1 <0>         0.0600
     15 N2         -6.5217   -1.7612    1.1224 N.2       1 <0>        -0.4460
     16 C11        -8.8052   -2.6624    1.6841 C.ar      1 <0>         0.0397
     17 C12        -9.5683   -3.7960    1.3824 C.ar      1 <0>        -0.1547
     18 C13       -10.5481   -4.1969    2.2660 C.ar      1 <0>         0.1020
     19 N3        -10.7699   -3.5273    3.3814 N.ar      1 <0>        -0.4829
     20 C14       -10.0734   -2.4536    3.7038 C.ar      1 <0>         0.1009
     21 C15        -9.0708   -1.9865    2.8804 C.ar      1 <0>        -0.1469
     22 C16        -8.9814   -2.5126   -1.4503 C.ar      1 <0>        -0.0400
     23 C17       -10.2631   -2.0665   -1.1192 C.ar      1 <0>        -0.0563
     24 C18       -11.3392   -2.4265   -1.9026 C.ar      1 <0>        -0.1471
     25 C19       -11.1511   -3.2299   -3.0163 C.ar      1 <0>         0.1129
     26 C20        -9.8817   -3.6756   -3.3498 C.ar      1 <0>        -0.1491
     27 C21        -8.7972   -3.3169   -2.5775 C.ar      1 <0>        -0.0765
     28 F1        -12.2093   -3.5802   -3.7797 F         1 <0>        -0.1335
     29 H2          0.5355    2.9936    0.1264 H         1 <0>         0.1086
     30 H3         -1.0243    2.8681   -0.7218 H         1 <0>         0.1118
     31 H4         -0.9645    2.7506    1.0533 H         1 <0>         0.0820
     32 H5         -1.9427   -0.0960    2.1446 H         1 <0>         0.1340
     33 H6         -4.2409   -0.9717    2.1752 H         1 <0>         0.1409
     34 H7         -4.3783   -0.7065   -2.1030 H         1 <0>         0.1252
     35 H8         -2.0825    0.1760   -2.1109 H         1 <0>         0.1447
     36 H9         -9.3927   -4.3483    0.4711 H         1 <0>         0.1333
     37 H10       -11.1422   -5.0705    2.0420 H         1 <0>         0.1579
     38 H11       -10.2890   -1.9361    4.6268 H         1 <0>         0.1588
     39 H12        -8.5017   -1.1100    3.1527 H         1 <0>         0.1379
     40 H13       -10.4110   -1.4411   -0.2513 H         1 <0>         0.1357
     41 H14       -12.3306   -2.0822   -1.6477 H         1 <0>         0.1434
     42 H15        -9.7412   -4.3013   -4.2187 H         1 <0>         0.1424
     43 H16        -7.8079   -3.6609   -2.8410 H         1 <0>         0.1331
@<TRIPOS>BOND
     1    1    2 1
     2    1   29 1
     3    1   30 1
     4    1   31 1
     5    2    3 2
     6    2    4 1
     7    4    9 ar
     8    4    5 ar
     9    5    6 ar
    10    5   32 1
    11    6    7 ar
    12    6   33 1
    13    7    8 ar
    14    7   10 1
    15    8    9 ar
    16    8   34 1
    17    9   35 1
    18   10   15 2
    19   10   11 1
    20   11   12 1
    21   11   13 1
    22   13   14 2
    23   13   22 1
    24   14   15 1
    25   14   16 1
    26   16   21 ar
    27   16   17 ar
    28   17   18 ar
    29   17   36 1
    30   18   19 ar
    31   18   37 1
    32   19   20 ar
    33   20   21 ar
    34   20   38 1
    35   21   39 1
    36   22   27 ar
    37   22   23 ar
    38   23   24 ar
    39   23   40 1
    40   24   25 ar
    41   24   41 1
    42   25   26 ar
    43   25   28 1
    44   26   27 ar
    45   26   42 1
    46   27   43 1
@<TRIPOS>MOLECULE
ZINC18274812
   43    46     0     0     0
SMALL
USER_CHARGES

@<TRIPOS>ATOM
      1 C1          0.0458    2.4645   -0.3714 C.3       1 <0>        -0.4977
      2 S1          0.1034    0.6635   -0.1624 S.o       1 <0>         1.3328
      3 O1          0.9995    0.3374    0.8912 O.2       1 <0>        -0.8522
      4 C2          0.9248    0.0922   -1.6127 C.ar      1 <0>        -0.4531
      5 C3          0.1894   -0.2245   -2.7411 C.ar      1 <0>        -0.0385
      6 C4          0.8263   -0.6720   -3.8801 C.ar      1 <0>        -0.0921
      7 C5          2.2157   -0.8050   -3.8925 C.ar      1 <0>         0.0171
      8 C6          2.9515   -0.4838   -2.7508 C.ar      1 <0>        -0.1253
      9 C7          2.3027   -0.0324   -1.6200 C.ar      1 <0>        -0.0497
     10 C8          2.9049   -1.2844   -5.1094 C.2       1 <0>         0.2582
     11 N1          4.2515   -1.4590   -5.2384 N.pl3     1 <0>        -0.5486
     12 H1          4.9216   -1.2936   -4.5568 H         1 <0>         0.4252
     13 C9          4.4814   -1.9147   -6.5171 C.2       1 <0>         0.0337
     14 C10         3.2416   -2.0017   -7.1294 C.2       1 <0>         0.0807
     15 N2          2.3171   -1.6154   -6.2370 N.2       1 <0>        -0.4488
     16 C11         2.9826   -2.4473   -8.5186 C.ar      1 <0>        -0.0206
     17 C12         3.6496   -3.5590   -9.0325 C.ar      1 <0>        -0.0694
     18 C13         3.4051   -3.9700  -10.3265 C.ar      1 <0>        -0.1511
     19 C14         2.4988   -3.2799  -11.1154 C.ar      1 <0>         0.1060
     20 C15         1.8337   -2.1747  -10.6093 C.ar      1 <0>        -0.1526
     21 C16         2.0668   -1.7598   -9.3145 C.ar      1 <0>        -0.0599
     22 F1          2.2634   -3.6856  -12.3824 F         1 <0>        -0.1371
     23 C17         5.7881   -2.2443   -7.1163 C.ar      1 <0>         0.0226
     24 C18         6.1399   -1.7662   -8.3862 C.ar      1 <0>        -0.1423
     25 C19         7.3716   -2.0992   -8.9074 C.ar      1 <0>         0.1081
     26 N3          8.2131   -2.8565   -8.2286 N.ar      1 <0>        -0.4784
     27 C20         7.9224   -3.3278   -7.0303 C.ar      1 <0>         0.1071
     28 C21         6.7158   -3.0398   -6.4296 C.ar      1 <0>        -0.1652
     29 H2          1.0609    2.8540   -0.4489 H         1 <0>         0.0810
     30 H3         -0.5069    2.7075   -1.2790 H         1 <0>         0.1130
     31 H4         -0.4514    2.9143    0.4881 H         1 <0>         0.1088
     32 H5         -0.8856   -0.1215   -2.7301 H         1 <0>         0.1470
     33 H6          0.2512   -0.9192   -4.7602 H         1 <0>         0.1462
     34 H7          4.0268   -0.5845   -2.7539 H         1 <0>         0.1202
     35 H8          2.8713    0.2203   -0.7373 H         1 <0>         0.1322
     36 H9          4.3566   -4.0971   -8.4186 H         1 <0>         0.1287
     37 H10         3.9211   -4.8308  -10.7253 H         1 <0>         0.1387
     38 H11         1.1282   -1.6400  -11.2280 H         1 <0>         0.1401
     39 H12         1.5446   -0.9009   -8.9194 H         1 <0>         0.1377
     40 H13         5.4562   -1.1467   -8.9476 H         1 <0>         0.1400
     41 H14         7.6520   -1.7358   -9.8850 H         1 <0>         0.1626
     42 H15         8.6418   -3.9441   -6.5116 H         1 <0>         0.1610
     43 H16         6.4868   -3.4248   -5.4469 H         1 <0>         0.1340
@<TRIPOS>BOND
     1    1    2 1
     2    1   29 1
     3    1   30 1
     4    1   31 1
     5    2    3 2
     6    2    4 1
     7    4    9 ar
     8    4    5 ar
     9    5    6 ar
    10    5   32 1
    11    6    7 ar
    12    6   33 1
    13    7    8 ar
    14    7   10 1
    15    8    9 ar
    16    8   34 1
    17    9   35 1
    18   10   15 2
    19   10   11 1
    20   11   12 1
    21   11   13 1
    22   13   14 2
    23   13   23 1
    24   14   15 1
    25   14   16 1
    26   16   21 ar
    27   16   17 ar
    28   17   18 ar
    29   17   36 1
    30   18   19 ar
    31   18   37 1
    32   19   20 ar
    33   19   22 1
    34   20   21 ar
    35   20   38 1
    36   21   39 1
    37   23   28 ar
    38   23   24 ar
    39   24   25 ar
    40   24   40 1
    41   25   26 ar
    42   25   41 1
    43   26   27 ar
    44   27   28 ar
    45   27   42 1
    46   28   43 1
@<TRIPOS>MOLECULE
ZINC18274812
   43    46     0     0     0
SMALL
USER_CHARGES

@<TRIPOS>ATOM
      1 C1          0.0761    2.5207   -0.3946 C.3       1 <0>        -0.4977
      2 S1          0.1067    0.7194   -0.1829 S.o       1 <0>         1.3328
      3 O1          0.9925    0.3819    0.8757 O.2       1 <0>        -0.8523
      4 C2          0.9273    0.1342   -1.6283 C.ar      1 <0>        -0.4535
      5 C3          0.1933   -0.1734   -2.7600 C.ar      1 <0>        -0.0382
      6 C4          0.8295   -0.6320   -3.8950 C.ar      1 <0>        -0.0929
      7 C5          2.2169   -0.7850   -3.8999 C.ar      1 <0>         0.0183
      8 C6          2.9514   -0.4724   -2.7550 C.ar      1 <0>        -0.1257
      9 C7          2.3033   -0.0102   -1.6282 C.ar      1 <0>        -0.0496
     10 C8          2.9053   -1.2765   -5.1125 C.2       1 <0>         0.2536
     11 N1          4.2517   -1.4710   -5.2346 N.pl3     1 <0>        -0.5504
     12 H1          4.9205   -1.3136   -4.5499 H         1 <0>         0.4255
     13 C9          4.4817   -1.9314   -6.5089 C.2       1 <0>         0.0556
     14 C10         3.2446   -2.0022   -7.1288 C.2       1 <0>         0.0602
     15 N2          2.3192   -1.6008   -6.2417 N.2       1 <0>        -0.4443
     16 C11         2.9879   -2.4463   -8.5176 C.ar      1 <0>         0.0401
     17 C12         3.6482   -3.5593   -9.0502 C.ar      1 <0>        -0.1549
     18 C13         3.3789   -3.9386  -10.3482 C.ar      1 <0>         0.1021
     19 N3          2.5133   -3.2676  -11.0845 N.ar      1 <0>        -0.4831
     20 C14         1.8693   -2.2129  -10.6212 C.ar      1 <0>         0.1008
     21 C15         2.0741   -1.7682   -9.3321 C.ar      1 <0>        -0.1466
     22 C16         5.7882   -2.2812   -7.1001 C.ar      1 <0>        -0.0406
     23 C17         6.1350   -1.8042   -8.3665 C.ar      1 <0>        -0.0561
     24 C18         7.3568   -2.1344   -8.9137 C.ar      1 <0>        -0.1471
     25 C19         8.2399   -2.9383   -8.2101 C.ar      1 <0>         0.1131
     26 C20         7.9012   -3.4146   -6.9533 C.ar      1 <0>        -0.1492
     27 C21         6.6848   -3.0860   -6.3932 C.ar      1 <0>        -0.0767
     28 F1          9.4352   -3.2593   -8.7516 F         1 <0>        -0.1334
     29 H2          1.0971    2.8954   -0.4674 H         1 <0>         0.0810
     30 H3         -0.4683    2.7703   -1.3054 H         1 <0>         0.1130
     31 H4         -0.4189    2.9788    0.4616 H         1 <0>         0.1087
     32 H5         -0.8802   -0.0546   -2.7549 H         1 <0>         0.1468
     33 H6          0.2554   -0.8725   -4.7775 H         1 <0>         0.1457
     34 H7          4.0251   -0.5889   -2.7522 H         1 <0>         0.1204
     35 H8          2.8708    0.2356   -0.7429 H         1 <0>         0.1321
     36 H9          4.3583   -4.1127   -8.4536 H         1 <0>         0.1329
     37 H10         3.8834   -4.7962  -10.7681 H         1 <0>         0.1577
     38 H11         1.1696   -1.6933  -11.2591 H         1 <0>         0.1590
     39 H12         1.5402   -0.9072   -8.9580 H         1 <0>         0.1385
     40 H13         5.4474   -1.1783   -8.9159 H         1 <0>         0.1360
     41 H14         7.6261   -1.7662   -9.8926 H         1 <0>         0.1436
     42 H15         8.5933   -4.0406   -6.4097 H         1 <0>         0.1423
     43 H16         6.4240   -3.4537   -5.4118 H         1 <0>         0.1327
@<TRIPOS>BOND
     1    1    2 1
     2    1   29 1
     3    1   30 1
     4    1   31 1
     5    2    3 2
     6    2    4 1
     7    4    9 ar
     8    4    5 ar
     9    5    6 ar
    10    5   32 1
    11    6    7 ar
    12    6   33 1
    13    7    8 ar
    14    7   10 1
    15    8    9 ar
    16    8   34 1
    17    9   35 1
    18   10   15 2
    19   10   11 1
    20   11   12 1
    21   11   13 1
    22   13   14 2
    23   13   22 1
    24   14   15 1
    25   14   16 1
    26   16   21 ar
    27   16   17 ar
    28   17   18 ar
    29   17   36 1
    30   18   19 ar
    31   18   37 1
    32   19   20 ar
    33   20   21 ar
    34   20   38 1
    35   21   39 1
    36   22   27 ar
    37   22   23 ar
    38   23   24 ar
    39   23   40 1
    40   24   25 ar
    41   24   41 1
    42   25   26 ar
    43   25   28 1
    44   26   27 ar
    45   26   42 1
    46   27   43 1
@<TRIPOS>MOLECULE
ZINC24044436
   76    80     0     0     0
SMALL
USER_CHARGES
1-[5-tert-butyl-2-(p-tolyl)pyrazol-3-yl]-3-[4-(2-morpholinoethoxy)-1-naphthyl]urea
@<TRIPOS>ATOM
      1 C1          3.3307    9.5387   -0.3298 C.3       1 <0>        -0.1193
      2 C2          2.0898    8.6848   -0.2813 C.ar      1 <0>        -0.0892
      3 C3          0.9612    9.0673   -0.9828 C.ar      1 <0>        -0.0934
      4 C4         -0.1775    8.2868   -0.9403 C.ar      1 <0>        -0.1062
      5 C5         -0.1884    7.1174   -0.1919 C.ar      1 <0>         0.1564
      6 C6          0.9444    6.7392    0.5163 C.ar      1 <0>        -0.1500
      7 C7          2.0821    7.5207    0.4649 C.ar      1 <0>        -0.0924
      8 N1         -1.3424    6.3233   -0.1469 N.pl3     1 <0>        -0.3448
      9 C8         -1.3788    4.9645   -0.0790 C.2       1 <0>         0.3309
     10 C9         -2.6878    4.5925   -0.0483 C.2       1 <0>        -0.2629
     11 C10        -3.4651    5.7529   -0.1047 C.2       1 <0>         0.1115
     12 N2         -2.6643    6.7861   -0.1672 N.2       1 <0>        -0.2779
     13 C11        -4.9712    5.8052   -0.0954 C.3       1 <0>         0.0134
     14 C12        -5.4824    5.5257    1.3193 C.3       1 <0>        -0.1388
     15 C13        -5.4360    7.1933   -0.5406 C.3       1 <0>        -0.1390
     16 C14        -5.5242    4.7499   -1.0553 C.3       1 <0>        -0.1399
     17 N3         -0.2771    4.1104   -0.0417 N.am      1 <0>        -0.6731
     18 C15        -0.4603    2.7771    0.0314 C.2       1 <0>         0.7165
     19 O1         -1.5862    2.3190    0.0649 O.2       1 <0>        -0.5445
     20 N4          0.6045    1.9516    0.0675 N.am      1 <0>        -0.6819
     21 C16         0.4162    0.5655    0.0407 C.ar      1 <0>         0.1254
     22 C17        -0.6813    0.0024    0.6542 C.ar      1 <0>        -0.0743
     23 C18        -0.8835   -1.3742    0.6299 C.ar      1 <0>        -0.2061
     24 C19         0.0048   -2.2051    0.0082 C.ar      1 <0>         0.1395
     25 C20         1.1426   -1.6672   -0.6254 C.ar      1 <0>        -0.0565
     26 C21         1.3517   -0.2661   -0.6096 C.ar      1 <0>        -0.0251
     27 C22         2.4862    0.2686   -1.2409 C.ar      1 <0>        -0.1232
     28 C23         3.3687   -0.5639   -1.8588 C.ar      1 <0>        -0.0971
     29 C24         3.1636   -1.9422   -1.8742 C.ar      1 <0>        -0.1313
     30 C25         2.0750   -2.4951   -1.2724 C.ar      1 <0>        -0.0739
     31 O2         -0.2080   -3.5475    0.0012 O.3       1 <0>        -0.2916
     32 C26        -1.3823   -4.0216    0.6634 C.3       1 <0>         0.0605
     33 C27        -1.4510   -5.5459    0.5508 C.3       1 <0>         0.0539
     34 N5         -0.3065   -6.1409    1.2538 N.3       1 <0>        -0.5287
     35 C28        -0.1978   -7.5776    0.9617 C.3       1 <0>         0.0167
     36 C29         1.0390   -8.1436    1.6645 C.3       1 <0>         0.0615
     37 O3          0.9456   -7.8818    3.0674 O.3       1 <0>        -0.3849
     38 C30         0.8389   -6.4921    3.3879 C.3       1 <0>         0.0625
     39 C31        -0.3999   -5.9094    2.7026 C.3       1 <0>         0.0120
     40 H1          3.1476   10.4156   -0.9682 H         1 <0>         0.0687
     41 H2          4.1639    8.9515   -0.7434 H         1 <0>         0.0732
     42 H3          3.5863    9.8722    0.6868 H         1 <0>         0.0734
     43 H4          0.9703    9.9770   -1.5648 H         1 <0>         0.1335
     44 H5         -1.0587    8.5861   -1.4884 H         1 <0>         0.1355
     45 H6          0.9374    5.8324    1.1029 H         1 <0>         0.1262
     46 H7          2.9651    7.2245    1.0118 H         1 <0>         0.1343
     47 H8         -3.0598    3.5802    0.0092 H         1 <0>         0.1784
     48 H9         -6.5817    5.5639    1.3261 H         1 <0>         0.0656
     49 H10        -5.0849    6.2845    2.0094 H         1 <0>         0.0565
     50 H11        -5.1481    4.5278    1.6395 H         1 <0>         0.0614
     51 H12        -6.5353    7.2315   -0.5338 H         1 <0>         0.0604
     52 H13        -5.0684    7.3943   -1.5577 H         1 <0>         0.0568
     53 H14        -5.0385    7.9519    0.1496 H         1 <0>         0.0614
     54 H15        -6.6235    4.7882   -1.0484 H         1 <0>         0.0647
     55 H16        -5.1900    3.7520   -0.7351 H         1 <0>         0.0637
     56 H17        -5.1566    4.9509   -2.0724 H         1 <0>         0.0570
     57 H18         0.7414    4.5248   -0.0719 H         1 <0>         0.4294
     58 H19         1.6215    2.3677    0.1180 H         1 <0>         0.4280
     59 H20        -1.3959    0.6376    1.1566 H         1 <0>         0.1450
     60 H21        -1.7537   -1.7925    1.1139 H         1 <0>         0.1296
     61 H22         2.6580    1.3348   -1.2361 H         1 <0>         0.1222
     62 H23         4.2405   -0.1501   -2.3437 H         1 <0>         0.1243
     63 H24         3.8790   -2.5810   -2.3706 H         1 <0>         0.1250
     64 H25         1.9286   -3.5650   -1.2926 H         1 <0>         0.1353
     65 H26        -1.3465   -3.7335    1.7244 H         1 <0>         0.0659
     66 H27        -2.2726   -3.5787    0.1931 H         1 <0>         0.0716
     67 H28        -2.3868   -5.9052    1.0039 H         1 <0>         0.0605
     68 H29        -1.4216   -5.8370   -0.5096 H         1 <0>         0.0912
     69 H30        -1.0977   -8.0949    1.3258 H         1 <0>         0.0437
     70 H31        -0.1044   -7.7249   -0.1244 H         1 <0>         0.0891
     71 H32         1.0925   -9.2291    1.4949 H         1 <0>         0.1001
     72 H33         1.9424   -7.6643    1.2595 H         1 <0>         0.0618
     73 H34         0.7475   -6.3731    4.4776 H         1 <0>         0.0994
     74 H35         1.7375   -5.9645    3.0355 H         1 <0>         0.0616
     75 H36        -0.4553   -4.8284    2.8983 H         1 <0>         0.0869
     76 H37        -1.3031   -6.3997    3.0948 H         1 <0>         0.0443
@<TRIPOS>BOND
     1    1    2 1
     2    1   40 1
     3    1   41 1
     4    1   42 1
     5    2    7 ar
     6    2    3 ar
     7    3    4 ar
     8    3   43 1
     9    4    5 ar
    10    4   44 1
    11    5    6 ar
    12    5    8 1
    13    6    7 ar
    14    6   45 1
    15    7   46 1
    16    8   12 1
    17    8    9 1
    18    9   10 2
    19    9   17 1
    20   10   11 1
    21   10   47 1
    22   11   12 2
    23   11   13 1
    24   13   14 1
    25   13   15 1
    26   13   16 1
    27   14   48 1
    28   14   49 1
    29   14   50 1
    30   15   51 1
    31   15   52 1
    32   15   53 1
    33   16   54 1
    34   16   55 1
    35   16   56 1
    36   17   18 am
    37   17   57 1
    38   18   19 2
    39   18   20 am
    40   20   21 1
    41   20   58 1
    42   21   26 ar
    43   21   22 ar
    44   22   23 ar
    45   22   59 1
    46   23   24 ar
    47   23   60 1
    48   24   25 ar
    49   24   31 1
    50   25   30 ar
    51   25   26 ar
    52   26   27 ar
    53   27   28 ar
    54   27   61 1
    55   28   29 ar
    56   28   62 1
    57   29   30 ar
    58   29   63 1
    59   30   64 1
    60   31   32 1
    61   32   33 1
    62   32   65 1
    63   32   66 1
    64   33   34 1
    65   33   67 1
    66   33   68 1
    67   34   39 1
    68   34   35 1
    69   35   36 1
    70   35   69 1
    71   35   70 1
    72   36   37 1
    73   36   71 1
    74   36   72 1
    75   37   38 1
    76   38   39 1
    77   38   73 1
    78   38   74 1
    79   39   75 1
    80   39   76 1
@<TRIPOS>MOLECULE
ZINC01493878
   48    50     0     0     0
SMALL
USER_CHARGES

@<TRIPOS>ATOM
      1 C1         -1.0955   -5.0083   -6.9234 C.3       1 <0>         0.0847
      2 N1         -1.5520   -4.3038   -5.7228 N.am      1 <0>        -0.7137
      3 C2         -1.8827   -5.0004   -4.6175 C.2       1 <0>         0.5696
      4 O1         -1.8023   -6.2129   -4.6168 O.2       1 <0>        -0.5284
      5 C3         -2.3445   -4.2878   -3.4031 C.ar      1 <0>         0.1129
      6 C4         -2.6788   -5.0128   -2.2640 C.ar      1 <0>        -0.1883
      7 C5         -3.1110   -4.3279   -1.1310 C.ar      1 <0>         0.1595
      8 C6         -3.1903   -2.9389   -1.1877 C.ar      1 <0>        -0.1766
      9 C7         -2.8404   -2.2885   -2.3571 C.ar      1 <0>         0.1349
     10 N2         -2.4302   -2.9626   -3.4105 N.ar      1 <0>        -0.4815
     11 O2         -3.4471   -4.9979    0.0005 O.3       1 <0>        -0.2437
     12 C8         -3.4462   -6.3570   -0.0383 C.ar      1 <0>         0.0568
     13 C9         -2.2447   -7.0505   -0.0178 C.ar      1 <0>        -0.1074
     14 C10        -2.2431   -8.4307   -0.0577 C.ar      1 <0>        -0.1009
     15 C11        -3.4442   -9.1246   -0.1179 C.ar      1 <0>         0.1671
     16 C12        -4.6464   -8.4301   -0.1379 C.ar      1 <0>        -0.1272
     17 C13        -4.6469   -7.0500   -0.0928 C.ar      1 <0>        -0.0940
     18 N3         -3.4432  -10.5252   -0.1588 N.am      1 <0>        -0.6776
     19 C14        -2.5108  -11.2187    0.5239 C.2       1 <0>         0.7077
     20 O3         -1.6217  -10.6297    1.1080 O.2       1 <0>        -0.5493
     21 N4         -2.5639  -12.5649    0.5593 N.am      1 <0>        -0.6795
     22 C15        -1.6655  -13.2800    1.3600 C.ar      1 <0>         0.1700
     23 C16        -1.2529  -12.7583    2.5792 C.ar      1 <0>        -0.0742
     24 C17        -0.3670  -13.4659    3.3674 C.ar      1 <0>        -0.0871
     25 C18         0.1097  -14.6941    2.9434 C.ar      1 <0>        -0.0077
     26 C19        -0.2993  -15.2159    1.7290 C.ar      1 <0>        -0.1564
     27 C20        -1.1898  -14.5147    0.9394 C.ar      1 <0>        -0.0879
     28 C21         0.2222  -16.5533    1.2702 C.3       1 <0>         0.5112
     29 F1         -0.3299  -16.8663    0.0234 F         1 <0>        -0.1743
     30 F2          1.6160  -16.4983    1.1626 F         1 <0>        -0.1671
     31 F3         -0.1354  -17.5367    2.1987 F         1 <0>        -0.1677
     32 Cl1         1.2234  -15.5812    3.9366 Cl        1 <0>        -0.0394
     33 H1         -0.8760   -4.2843   -7.7081 H         1 <0>         0.0803
     34 H2         -0.1948   -5.5764   -6.6909 H         1 <0>         0.0631
     35 H3         -1.8761   -5.6883   -7.2645 H         1 <0>         0.0629
     36 H4         -1.6162   -3.3359   -5.7233 H         1 <0>         0.4141
     37 H5         -2.6047   -6.0902   -2.2584 H         1 <0>         0.1546
     38 H6         -3.5217   -2.3755   -0.3280 H         1 <0>         0.1523
     39 H7         -2.9005   -1.2112   -2.4052 H         1 <0>         0.1747
     40 H8         -1.3104   -6.5106    0.0290 H         1 <0>         0.1364
     41 H9         -1.3078   -8.9704   -0.0424 H         1 <0>         0.1514
     42 H10        -5.5809   -8.9693   -0.1851 H         1 <0>         0.1386
     43 H11        -5.5820   -6.5098   -0.1039 H         1 <0>         0.1400
     44 H12        -4.1137  -10.9957   -0.6785 H         1 <0>         0.4131
     45 H13        -3.2246  -13.0383    0.0299 H         1 <0>         0.4146
     46 H14        -1.6244  -11.7997    2.9103 H         1 <0>         0.1546
     47 H15        -0.0456  -13.0604    4.3154 H         1 <0>         0.1524
     48 H16        -1.5123  -14.9245   -0.0064 H         1 <0>         0.1525
@<TRIPOS>BOND
     1    1    2 1
     2    1   33 1
     3    1   34 1
     4    1   35 1
     5    2    3 am
     6    2   36 1
     7    3    4 2
     8    3    5 1
     9    5   10 ar
    10    5    6 ar
    11    6    7 ar
    12    6   37 1
    13    7    8 ar
    14    7   11 1
    15    8    9 ar
    16    8   38 1
    17    9   10 ar
    18    9   39 1
    19   11   12 1
    20   12   17 ar
    21   12   13 ar
    22   13   14 ar
    23   13   40 1
    24   14   15 ar
    25   14   41 1
    26   15   16 ar
    27   15   18 1
    28   16   17 ar
    29   16   42 1
    30   17   43 1
    31   18   19 am
    32   18   44 1
    33   19   20 2
    34   19   21 am
    35   21   22 1
    36   21   45 1
    37   22   27 ar
    38   22   23 ar
    39   23   24 ar
    40   23   46 1
    41   24   25 ar
    42   24   47 1
    43   25   26 ar
    44   25   32 1
    45   26   27 ar
    46   26   28 1
    47   27   48 1
    48   28   29 1
    49   28   30 1
    50   28   31 1
@<TRIPOS>MOLECULE
ZINC21982951
   60    63     0     0     0
SMALL
USER_CHARGES

@<TRIPOS>ATOM
      1 C1         -2.0700    1.6928    0.2333 C.3       1 <0>        -0.1170
      2 C2         -1.6482    0.2604    0.0301 C.ar      1 <0>        -0.0813
      3 C3         -1.8479   -0.3525   -1.1919 C.ar      1 <0>        -0.1034
      4 C4         -1.4615   -1.6665   -1.3798 C.ar      1 <0>        -0.0990
      5 C5         -0.8738   -2.3725   -0.3459 C.ar      1 <0>        -0.1046
      6 C6         -0.6714   -1.7660    0.8791 C.ar      1 <0>        -0.0220
      7 C7         -1.0534   -0.4428    1.0688 C.ar      1 <0>         0.1347
      8 N1         -0.8441    0.1769    2.3055 N.am      1 <0>        -0.6659
      9 C8         -1.2819   -0.4110    3.4365 C.2       1 <0>         0.6018
     10 O1         -1.7689   -1.5261    3.3939 O.2       1 <0>        -0.4722
     11 C9         -1.1720    0.2905    4.7149 C.2       1 <0>        -0.2635
     12 C10        -1.5472   -0.1201    5.9866 C.2       1 <0>         0.1512
     13 N2         -1.3262    0.7270    6.9599 N.2       1 <0>        -0.5510
     14 C11        -0.7756    1.9070    6.7361 C.2       1 <0>         0.2513
     15 S1         -0.5107    1.9100    5.0742 S.3       1 <0>         0.2445
     16 N3         -0.4817    2.8997    7.6498 N.pl3     1 <0>        -0.5870
     17 C12        -0.6908    2.6801    9.0050 C.ar      1 <0>         0.4543
     18 C13        -1.0534    1.4192    9.4679 C.ar      1 <0>        -0.2926
     19 C14        -1.2512    1.2508   10.8352 C.ar      1 <0>         0.4935
     20 N4         -1.0875    2.2952   11.6453 N.ar      1 <0>        -0.5328
     21 C15        -0.7435    3.4737   11.1677 C.ar      1 <0>         0.4541
     22 N5         -0.5417    3.6719    9.8809 N.ar      1 <0>        -0.5672
     23 C16        -0.5694    4.6273   12.1217 C.3       1 <0>        -0.1251
     24 N6         -1.6138    0.0143   11.3464 N.pl3     1 <0>        -0.5370
     25 C17        -2.0559   -0.1253   12.7422 C.3       1 <0>         0.1090
     26 C18        -3.3866   -0.8852   12.7576 C.3       1 <0>         0.0383
     27 N7         -3.2335   -2.1493   12.0251 N.3       1 <0>        -0.5289
     28 C19        -2.9165   -1.9105   10.6107 C.3       1 <0>         0.0343
     29 C20        -1.5725   -1.1917   10.5056 C.3       1 <0>         0.1057
     30 C21        -4.4334   -2.9856   12.1619 C.3       1 <0>         0.0545
     31 C22        -4.1483   -4.3816   11.6043 C.3       1 <0>         0.0776
     32 O2         -3.1500   -5.0191   12.4038 O.3       1 <0>        -0.5606
     33 Cl1         0.0658   -2.6526    2.1768 Cl        1 <0>        -0.0453
     34 H1         -1.2464    2.3553   -0.0328 H         1 <0>         0.0773
     35 H2         -2.9308    1.9112   -0.3987 H         1 <0>         0.0785
     36 H3         -2.3379    1.8478    1.2784 H         1 <0>         0.0640
     37 H4         -2.3069    0.1956   -2.0014 H         1 <0>         0.1372
     38 H5         -1.6193   -2.1430   -2.3361 H         1 <0>         0.1391
     39 H6         -0.5731   -3.3989   -0.4959 H         1 <0>         0.1403
     40 H7         -0.3838    1.0296    2.3489 H         1 <0>         0.4083
     41 H8         -1.9972   -1.0858    6.1634 H         1 <0>         0.2027
     42 H9         -0.1293    3.7505    7.3451 H         1 <0>         0.4460
     43 H10        -1.1784    0.5927    8.7841 H         1 <0>         0.2218
     44 H11         0.4644    4.6619   12.4652 H         1 <0>         0.1245
     45 H12        -0.8146    5.5596   11.6130 H         1 <0>         0.1071
     46 H13        -1.2322    4.4948   12.9768 H         1 <0>         0.1273
     47 H14        -1.3096   -0.6823   13.3087 H         1 <0>         0.0989
     48 H15        -2.1929    0.8619   13.1834 H         1 <0>         0.1094
     49 H16        -3.6740   -1.0944   13.7880 H         1 <0>         0.1036
     50 H17        -4.1569   -0.2794   12.2806 H         1 <0>         0.0428
     51 H18        -2.8631   -2.8634   10.0841 H         1 <0>         0.1043
     52 H19        -3.6935   -1.2904   10.1636 H         1 <0>         0.0450
     53 H20        -1.3900   -0.9091    9.4688 H         1 <0>         0.1029
     54 H21        -0.7788   -1.8532   10.8529 H         1 <0>         0.1042
     55 H22        -4.7041   -3.0633   13.2149 H         1 <0>         0.0912
     56 H23        -5.2561   -2.5340   11.6075 H         1 <0>         0.0533
     57 H24        -5.0627   -4.9745   11.6240 H         1 <0>         0.0547
     58 H25        -3.7921   -4.2970   10.5776 H         1 <0>         0.0454
     59 H26        -2.9188   -5.9101   12.1076 H         1 <0>         0.3805
     60 H27        -0.2852    4.5531    9.5669 H         1 <0>         0.4414
@<TRIPOS>BOND
     1    1    2 1
     2    1   34 1
     3    1   35 1
     4    1   36 1
     5    2    7 ar
     6    2    3 ar
     7    3    4 ar
     8    3   37 1
     9    4    5 ar
    10    4   38 1
    11    5    6 ar
    12    5   39 1
    13    6    7 ar
    14    6   33 1
    15    7    8 1
    16    8    9 am
    17    8   40 1
    18    9   10 2
    19    9   11 1
    20   11   15 1
    21   11   12 2
    22   12   13 1
    23   12   41 1
    24   13   14 2
    25   14   15 1
    26   14   16 1
    27   16   17 1
    28   16   42 1
    29   17   22 ar
    30   17   18 ar
    31   18   19 ar
    32   18   43 1
    33   19   20 ar
    34   19   24 1
    35   20   21 ar
    36   21   22 ar
    37   21   23 1
    38   22   60 1
    39   23   44 1
    40   23   45 1
    41   23   46 1
    42   24   29 1
    43   24   25 1
    44   25   26 1
    45   25   47 1
    46   25   48 1
    47   26   27 1
    48   26   49 1
    49   26   50 1
    50   27   28 1
    51   27   30 1
    52   28   29 1
    53   28   51 1
    54   28   52 1
    55   29   53 1
    56   29   54 1
    57   30   31 1
    58   30   55 1
    59   30   56 1
    60   31   32 1
    61   31   57 1
    62   31   58 1
    63   32   59 1
@<TRIPOS>MOLECULE
ZINC21982951
   60    63     0     0     0
SMALL
USER_CHARGES

@<TRIPOS>ATOM
      1 C1          3.2739    6.6585    1.8418 C.3       1 <0>        -0.1168
      2 C2          2.5810    7.9910    1.9663 C.ar      1 <0>        -0.0823
      3 C3          2.8983    9.0189    1.0995 C.ar      1 <0>        -0.1038
      4 C4          2.2635   10.2419    1.2126 C.ar      1 <0>        -0.1008
      5 C5          1.3088   10.4411    2.1933 C.ar      1 <0>        -0.1049
      6 C6          0.9869    9.4175    3.0639 C.ar      1 <0>        -0.0226
      7 C7          1.6192    8.1849    2.9486 C.ar      1 <0>         0.1373
      8 N1          1.2913    7.1440    3.8238 N.am      1 <0>        -0.6678
      9 C8          1.3128    7.3511    5.1554 C.2       1 <0>         0.6036
     10 O1          1.5184    8.4680    5.5945 O.2       1 <0>        -0.4759
     11 C9          1.0891    6.2346    6.0728 C.2       1 <0>        -0.2694
     12 C10         1.0619    6.2190    7.4604 C.2       1 <0>         0.1522
     13 N2          0.8357    5.0596    8.0247 N.2       1 <0>        -0.5060
     14 C11         0.6446    3.9678    7.3056 C.2       1 <0>         0.2464
     15 S1          0.7674    4.5141    5.7185 S.3       1 <0>         0.2029
     16 N3          0.3973    2.6842    7.7505 N.pl3     1 <0>        -0.5650
     17 C12         0.2197    2.4414    9.1063 C.ar      1 <0>         0.4999
     18 C13        -0.1342    1.1736    9.5555 C.ar      1 <0>        -0.3181
     19 C14        -0.3003    0.9817   10.9244 C.ar      1 <0>         0.4940
     20 N4         -0.1157    2.0114   11.7481 N.ar      1 <0>        -0.5712
     21 C15         0.2193    3.1978   11.2829 C.ar      1 <0>         0.4509
     22 N5          0.3911    3.4178    9.9956 N.ar      1 <0>        -0.4879
     23 C16         0.4179    4.3344   12.2523 C.3       1 <0>        -0.1253
     24 N6         -0.6531   -0.2629   11.4224 N.pl3     1 <0>        -0.5744
     25 C17        -0.9639   -0.4449   12.8484 C.3       1 <0>         0.1013
     26 C18        -2.3114   -1.1652   12.9649 C.3       1 <0>         0.0387
     27 N7         -2.2712   -2.4031   12.1749 N.3       1 <0>        -0.5277
     28 C19        -2.0835   -2.1176   10.7462 C.3       1 <0>         0.0305
     29 C20        -0.7325   -1.4351   10.5377 C.3       1 <0>         0.1149
     30 C21        -3.4796   -3.2085   12.3965 C.3       1 <0>         0.0543
     31 C22        -3.2958   -4.5889   11.7629 C.3       1 <0>         0.0774
     32 O2         -2.2472   -5.2869   12.4378 O.3       1 <0>        -0.5615
     33 Cl1        -0.2110    9.6681    4.2952 Cl        1 <0>        -0.0453
     34 H1          2.7121    6.0191    1.1609 H         1 <0>         0.0767
     35 H2          4.2810    6.8077    1.4524 H         1 <0>         0.0779
     36 H3          3.3298    6.1850    2.8220 H         1 <0>         0.0648
     37 H4          3.6435    8.8670    0.3327 H         1 <0>         0.1365
     38 H5          2.5139   11.0437    0.5337 H         1 <0>         0.1383
     39 H6          0.8148   11.3976    2.2790 H         1 <0>         0.1396
     40 H7          1.0484    6.2731    3.4723 H         1 <0>         0.4083
     41 H8          1.2191    7.1147    8.0430 H         1 <0>         0.1979
     42 H9          0.3477    1.9521    7.1161 H         1 <0>         0.4525
     43 H10        -0.2767    0.3593    8.8606 H         1 <0>         0.1835
     44 H11         1.4596    4.3615   12.5720 H         1 <0>         0.1250
     45 H12         0.1626    5.2758   11.7656 H         1 <0>         0.1301
     46 H13        -0.2249    4.1881   13.1203 H         1 <0>         0.1049
     47 H14        -0.1857   -1.0458   13.3190 H         1 <0>         0.1119
     48 H15        -1.0251    0.5276   13.3369 H         1 <0>         0.0843
     49 H16        -2.5057   -1.4068   14.0099 H         1 <0>         0.1076
     50 H17        -3.1034   -0.5184   12.5874 H         1 <0>         0.0465
     51 H18        -2.1124   -3.0499   10.1822 H         1 <0>         0.1076
     52 H19        -2.8786   -1.4576   10.3996 H         1 <0>         0.0467
     53 H20        -0.6409   -1.1170    9.4992 H         1 <0>         0.1034
     54 H21         0.0684   -2.1330   10.7819 H         1 <0>         0.1075
     55 H22        -3.6507   -3.3200   13.4672 H         1 <0>         0.0925
     56 H23        -4.3362   -2.7111   11.9416 H         1 <0>         0.0553
     57 H24        -4.2233   -5.1548   11.8494 H         1 <0>         0.0565
     58 H25        -3.0370   -4.4741   10.7103 H         1 <0>         0.0456
     59 H26        -2.0752   -6.1719   12.0881 H         1 <0>         0.3821
     60 H27        -0.2297    1.8867   12.7033 H         1 <0>         0.4392
@<TRIPOS>BOND
     1    1    2 1
     2    1   34 1
     3    1   35 1
     4    1   36 1
     5    2    7 ar
     6    2    3 ar
     7    3    4 ar
     8    3   37 1
     9    4    5 ar
    10    4   38 1
    11    5    6 ar
    12    5   39 1
    13    6    7 ar
    14    6   33 1
    15    7    8 1
    16    8    9 am
    17    8   40 1
    18    9   10 2
    19    9   11 1
    20   11   15 1
    21   11   12 2
    22   12   13 1
    23   12   41 1
    24   13   14 2
    25   14   15 1
    26   14   16 1
    27   16   17 1
    28   16   42 1
    29   17   18 ar
    30   17   22 ar
    31   18   43 1
    32   18   19 ar
    33   19   24 1
    34   19   20 ar
    35   20   60 1
    36   20   21 ar
    37   21   23 1
    38   21   22 ar
    39   23   44 1
    40   23   45 1
    41   23   46 1
    42   24   29 1
    43   24   25 1
    44   25   26 1
    45   25   47 1
    46   25   48 1
    47   26   27 1
    48   26   49 1
    49   26   50 1
    50   27   28 1
    51   27   30 1
    52   28   29 1
    53   28   51 1
    54   28   52 1
    55   29   53 1
    56   29   54 1
    57   30   31 1
    58   30   55 1
    59   30   56 1
    60   31   32 1
    61   31   57 1
    62   31   58 1
    63   32   59 1
@<TRIPOS>MOLECULE
ZINC21982951
   59    62     0     0     0
SMALL
USER_CHARGES

@<TRIPOS>ATOM
      1 C1          3.4106    6.6420    1.8847 C.3       1 <0>        -0.1165
      2 C2          2.6976    7.9659    1.9845 C.ar      1 <0>        -0.0852
      3 C3          3.0204    8.9921    1.1176 C.ar      1 <0>        -0.1055
      4 C4          2.3672   10.2073    1.2080 C.ar      1 <0>        -0.1070
      5 C5          1.3885   10.4004    2.1660 C.ar      1 <0>        -0.1064
      6 C6          1.0609    9.3785    3.0365 C.ar      1 <0>        -0.0243
      7 C7          1.7118    8.1536    2.9438 C.ar      1 <0>         0.1460
      8 N1          1.3783    7.1144    3.8189 N.am      1 <0>        -0.6734
      9 C8          1.3676    7.3308    5.1492 C.2       1 <0>         0.6131
     10 O1          1.5489    8.4533    5.5848 O.2       1 <0>        -0.4899
     11 C9          1.1384    6.2176    6.0693 C.2       1 <0>        -0.3092
     12 C10         1.0807    6.2111    7.4561 C.2       1 <0>         0.1722
     13 N2          0.8573    5.0526    8.0233 N.2       1 <0>        -0.5180
     14 C11         0.6966    3.9535    7.3079 C.2       1 <0>         0.3121
     15 S1          0.8472    4.4907    5.7202 S.3       1 <0>         0.1340
     16 N3          0.4564    2.6698    7.7563 N.pl3     1 <0>        -0.5904
     17 C12         0.2490    2.4343    9.1091 C.ar      1 <0>         0.4412
     18 C13        -0.1036    1.1661    9.5586 C.ar      1 <0>        -0.3412
     19 C14        -0.3003    0.9817   10.9244 C.ar      1 <0>         0.4686
     20 N4         -0.1450    2.0186   11.7452 N.ar      1 <0>        -0.5923
     21 C15         0.1898    3.2050   11.2799 C.ar      1 <0>         0.3946
     22 N5          0.3901    3.4182    9.9956 N.ar      1 <0>        -0.5459
     23 C16         0.3546    4.3498   12.2460 C.3       1 <0>        -0.0834
     24 N6         -0.6531   -0.2629   11.4224 N.pl3     1 <0>        -0.5966
     25 C17        -1.0693   -0.4249   12.8237 C.3       1 <0>         0.1300
     26 C18        -2.3993   -1.1856   12.8517 C.3       1 <0>         0.0401
     27 N7         -2.2595   -2.4378   12.0965 N.3       1 <0>        -0.5276
     28 C19        -1.9688   -2.1765   10.6804 C.3       1 <0>         0.0363
     29 C20        -0.6270   -1.4554   10.5619 C.3       1 <0>         0.1269
     30 C21        -3.4565   -3.2768   12.2420 C.3       1 <0>         0.0537
     31 C22        -3.1814   -4.6636   11.6572 C.3       1 <0>         0.0792
     32 O2         -2.1684   -5.3132   12.4279 O.3       1 <0>        -0.5589
     33 Cl1        -0.1672    9.6214    4.2392 Cl        1 <0>        -0.0433
     34 H1          2.8725    5.9906    1.1961 H         1 <0>         0.0754
     35 H2          4.4240    6.8020    1.5166 H         1 <0>         0.0754
     36 H3          3.4510    6.1760    2.8692 H         1 <0>         0.0676
     37 H4          3.7844    8.8450    0.3685 H         1 <0>         0.1337
     38 H5          2.6220   11.0077    0.5292 H         1 <0>         0.1350
     39 H6          0.8801   11.3508    2.2339 H         1 <0>         0.1371
     40 H7          1.1547    6.2381    3.4683 H         1 <0>         0.4085
     41 H8          1.2132    7.1127    8.0357 H         1 <0>         0.1884
     42 H9          0.4325    1.9325    7.1264 H         1 <0>         0.4387
     43 H10        -0.2220    0.3459    8.8660 H         1 <0>         0.1413
     44 H11         1.3882    4.3890   12.5900 H         1 <0>         0.0870
     45 H12         0.1021    5.2855   11.7470 H         1 <0>         0.0890
     46 H13        -0.3072    4.2031   13.0995 H         1 <0>         0.0846
     47 H14        -0.3126   -0.9904   13.3674 H         1 <0>         0.0744
     48 H15        -1.1984    0.5551   13.2831 H         1 <0>         0.1008
     49 H16        -2.6676   -1.4113   13.8837 H         1 <0>         0.0903
     50 H17        -3.1785   -0.5727   12.3986 H         1 <0>         0.0372
     51 H18        -1.9249   -3.1208   10.1378 H         1 <0>         0.0905
     52 H19        -2.7540   -1.5497   10.2576 H         1 <0>         0.0380
     53 H20        -0.4638   -1.1563    9.5265 H         1 <0>         0.0877
     54 H21         0.1731   -2.1219   10.8840 H         1 <0>         0.0802
     55 H22        -3.7077   -3.3713   13.2985 H         1 <0>         0.0861
     56 H23        -4.2894   -2.8169   11.7102 H         1 <0>         0.0487
     57 H24        -4.0952   -5.2572   11.6843 H         1 <0>         0.0498
     58 H25        -2.8443   -4.5626   10.6256 H         1 <0>         0.0451
     59 H26        -1.9426   -6.1994   12.1134 H         1 <0>         0.3762
@<TRIPOS>BOND
     1    1    2 1
     2    1   34 1
     3    1   35 1
     4    1   36 1
     5    2    7 ar
     6    2    3 ar
     7    3    4 ar
     8    3   37 1
     9    4    5 ar
    10    4   38 1
    11    5    6 ar
    12    5   39 1
    13    6    7 ar
    14    6   33 1
    15    7    8 1
    16    8    9 am
    17    8   40 1
    18    9   10 2
    19    9   11 1
    20   11   15 1
    21   11   12 2
    22   12   13 1
    23   12   41 1
    24   13   14 2
    25   14   15 1
    26   14   16 1
    27   16   17 1
    28   16   42 1
    29   17   18 ar
    30   17   22 ar
    31   18   43 1
    32   18   19 ar
    33   19   24 1
    34   19   20 ar
    35   20   21 ar
    36   21   23 1
    37   21   22 ar
    38   23   44 1
    39   23   45 1
    40   23   46 1
    41   24   29 1
    42   24   25 1
    43   25   26 1
    44   25   47 1
    45   25   48 1
    46   26   27 1
    47   26   49 1
    48   26   50 1
    49   27   28 1
    50   27   30 1
    51   28   29 1
    52   28   51 1
    53   28   52 1
    54   29   53 1
    55   29   54 1
    56   30   31 1
    57   30   55 1
    58   30   56 1
    59   31   32 1
    60   31   57 1
    61   31   58 1
    62   32   59 1
@<TRIPOS>MOLECULE
ZINC21982951
   61    64     0     0     0
SMALL
USER_CHARGES

@<TRIPOS>ATOM
      1 C1          3.2770    6.6581    1.8427 C.3       1 <0>        -0.1166
      2 C2          2.5837    7.9904    1.9667 C.ar      1 <0>        -0.0814
      3 C3          2.9012    9.0183    1.0999 C.ar      1 <0>        -0.1028
      4 C4          2.2660   10.2411    1.2125 C.ar      1 <0>        -0.0975
      5 C5          1.3108   10.4402    2.1928 C.ar      1 <0>        -0.1039
      6 C6          0.9888    9.4167    3.0634 C.ar      1 <0>        -0.0218
      7 C7          1.6215    8.1842    2.9485 C.ar      1 <0>         0.1327
      8 N1          1.2933    7.1433    3.8237 N.am      1 <0>        -0.6648
      9 C8          1.3141    7.3507    5.1552 C.2       1 <0>         0.5983
     10 O1          1.5193    8.4677    5.5943 O.2       1 <0>        -0.4690
     11 C9          1.0903    6.2342    6.0727 C.2       1 <0>        -0.2500
     12 C10         1.0624    6.2188    7.4604 C.2       1 <0>         0.1439
     13 N2          0.8362    5.0594    8.0246 N.2       1 <0>        -0.4984
     14 C11         0.6458    3.9675    7.3056 C.2       1 <0>         0.2172
     15 S1          0.7692    4.5136    5.7185 S.3       1 <0>         0.2242
     16 N3          0.3986    2.6839    7.7506 N.pl3     1 <0>        -0.5513
     17 C12         0.2203    2.4413    9.1063 C.ar      1 <0>         0.5098
     18 C13        -0.1335    1.1734    9.5556 C.ar      1 <0>        -0.3097
     19 C14        -0.3003    0.9817   10.9244 C.ar      1 <0>         0.4927
     20 N4         -0.1163    2.0116   11.7481 N.ar      1 <0>        -0.5695
     21 C15         0.2187    3.1980   11.2828 C.ar      1 <0>         0.4589
     22 N5          0.3911    3.4178    9.9956 N.ar      1 <0>        -0.4762
     23 C16         0.4165    4.3348   12.2521 C.3       1 <0>        -0.1303
     24 N6         -0.6531   -0.2629   11.4224 N.pl3     1 <0>        -0.6123
     25 C17        -0.9643   -0.4465   12.8484 C.3       1 <0>         0.0782
     26 C18        -2.3027   -1.1838   12.9625 C.3       1 <0>        -0.0204
     27 N7         -2.2406   -2.4311   12.1903 N.4       1 <0>        -0.3852
     28 C19        -2.0770   -2.1279   10.7629 C.3       1 <0>        -0.0304
     29 C20        -0.7330   -1.4363   10.5388 C.3       1 <0>         0.0932
     30 C21        -3.4827   -3.1900   12.3886 C.3       1 <0>        -0.0061
     31 C22        -3.3702   -4.5448   11.6865 C.3       1 <0>         0.0434
     32 O2         -2.3479   -5.3224   12.3128 O.3       1 <0>        -0.5819
     33 Cl1        -0.2098    9.6671    4.2940 Cl        1 <0>        -0.0466
     34 H1          2.7157    6.0184    1.1617 H         1 <0>         0.0770
     35 H2          4.2843    6.8074    1.4538 H         1 <0>         0.0791
     36 H3          3.3325    6.1847    2.8230 H         1 <0>         0.0631
     37 H4          3.6468    8.8665    0.3335 H         1 <0>         0.1380
     38 H5          2.5166   11.0428    0.5336 H         1 <0>         0.1401
     39 H6          0.8165   11.3966    2.2780 H         1 <0>         0.1410
     40 H7          1.0508    6.2723    3.4722 H         1 <0>         0.4077
     41 H8          1.2191    7.1146    8.0429 H         1 <0>         0.2016
     42 H9          0.3494    1.9517    7.1163 H         1 <0>         0.4545
     43 H10        -0.2756    0.3590    8.8607 H         1 <0>         0.1860
     44 H11         1.4581    4.3621   12.5724 H         1 <0>         0.1309
     45 H12         0.1613    5.2760   11.7653 H         1 <0>         0.1358
     46 H13        -0.2267    4.1885   13.1199 H         1 <0>         0.1083
     47 H14        -0.1795   -1.0367   13.3215 H         1 <0>         0.1249
     48 H15        -1.0392    0.5259   13.3352 H         1 <0>         0.1232
     49 H16        -2.5028   -1.4138   14.0090 H         1 <0>         0.1602
     50 H17        -3.0999   -0.5526   12.5701 H         1 <0>         0.1410
     51 H18        -2.1110   -3.0537   10.1885 H         1 <0>         0.1585
     52 H19        -2.8811   -1.4682   10.4370 H         1 <0>         0.1418
     53 H20        -0.6550   -1.1179    9.4992 H         1 <0>         0.1416
     54 H21         0.0756   -2.1281   10.7747 H         1 <0>         0.1211
     55 H22        -3.6469   -3.3459   13.4548 H         1 <0>         0.1465
     56 H23        -4.3202   -2.6321   11.9697 H         1 <0>         0.1464
     57 H24        -4.3221   -5.0710   11.7578 H         1 <0>         0.1026
     58 H25        -3.1180   -4.3904   10.6374 H         1 <0>         0.0719
     59 H26        -2.2211   -6.1961   11.9183 H         1 <0>         0.4154
     60 H27        -0.2308    1.8869   12.7032 H         1 <0>         0.4393
     61 H28        -1.4578   -2.9831   12.5075 H         1 <0>         0.4359
@<TRIPOS>BOND
     1    1    2 1
     2    1   34 1
     3    1   35 1
     4    1   36 1
     5    2    7 ar
     6    2    3 ar
     7    3    4 ar
     8    3   37 1
     9    4    5 ar
    10    4   38 1
    11    5    6 ar
    12    5   39 1
    13    6    7 ar
    14    6   33 1
    15    7    8 1
    16    8    9 am
    17    8   40 1
    18    9   10 2
    19    9   11 1
    20   11   15 1
    21   11   12 2
    22   12   13 1
    23   12   41 1
    24   13   14 2
    25   14   15 1
    26   14   16 1
    27   16   17 1
    28   16   42 1
    29   17   18 ar
    30   17   22 ar
    31   18   43 1
    32   18   19 ar
    33   19   24 1
    34   19   20 ar
    35   20   60 1
    36   20   21 ar
    37   21   23 1
    38   21   22 ar
    39   23   44 1
    40   23   45 1
    41   23   46 1
    42   24   29 1
    43   24   25 1
    44   25   26 1
    45   25   47 1
    46   25   48 1
    47   26   27 1
    48   26   49 1
    49   26   50 1
    50   27   28 1
    51   27   30 1
    52   27   61 1
    53   28   29 1
    54   28   51 1
    55   28   52 1
    56   29   53 1
    57   29   54 1
    58   30   31 1
    59   30   55 1
    60   30   56 1
    61   31   32 1
    62   31   57 1
    63   31   58 1
    64   32   59 1
@<TRIPOS>MOLECULE
ZINC17123471
   43    46     0     0     0
SMALL
USER_CHARGES

@<TRIPOS>ATOM
      1 C1         -0.0018    1.3511    0.3672 C.ar      1 <0>        -0.0938
      2 C2          1.1827    2.0793    0.3663 C.ar      1 <0>        -0.0692
      3 C3          2.3905    1.4549    0.2297 C.ar      1 <0>        -0.0950
      4 C4          2.4365    0.0667    0.0890 C.ar      1 <0>        -0.0698
      5 C5          1.2311   -0.6764    0.0898 C.ar      1 <0>        -0.0680
      6 C6          0.0098   -0.0074    0.2317 C.ar      1 <0>        -0.0726
      7 C7          1.2991   -2.0834   -0.0536 C.2       1 <0>         0.3178
      8 C8          0.0707   -2.8837   -0.0576 C.2       1 <0>        -0.2630
      9 C9         -1.1168   -2.3440   -0.5757 C.2       1 <0>        -0.0274
     10 C10        -2.2577   -3.0876   -0.5798 C.2       1 <0>        -0.2358
     11 C11        -2.2460   -4.3934   -0.0660 C.2       1 <0>         0.3298
     12 O1         -3.3634   -5.1218   -0.0704 O.2       1 <0>        -0.6052
     13 C12        -1.0587   -4.9331    0.4521 C.2       1 <0>        -0.2343
     14 C13         0.0835   -4.1915    0.4514 C.2       1 <0>        -0.0235
     15 N1          2.4964   -2.6822   -0.1866 N.pl3     1 <0>        -0.4252
     16 N2          3.6896   -1.9575   -0.1880 N.2       1 <0>        -0.3147
     17 C14         3.7046   -0.6519   -0.0602 C.2       1 <0>         0.4076
     18 N3          4.9085    0.0410   -0.0658 N.pl3     1 <0>        -0.6303
     19 C15         6.0979   -0.6331   -0.3248 C.ar      1 <0>         0.1747
     20 C16         6.1135   -1.6927   -1.2276 C.ar      1 <0>        -0.1306
     21 C17         7.2882   -2.3613   -1.4859 C.ar      1 <0>        -0.0312
     22 C18         8.4668   -1.9752   -0.8409 C.ar      1 <0>        -0.1519
     23 C19         8.4480   -0.9105    0.0648 C.ar      1 <0>        -0.0598
     24 C20         7.2710   -0.2427    0.3152 C.ar      1 <0>        -0.1498
     25 C21         9.7279   -2.6902   -1.1151 C.2       1 <0>         0.5630
     26 O2          9.7427   -3.6164   -1.9028 O.2       1 <0>        -0.5368
     27 N4         10.8634   -2.3168   -0.4924 N.am      1 <0>        -0.8508
     28 H1         -0.9438    1.8669    0.4812 H         1 <0>         0.1488
     29 H2          1.1477    3.1533    0.4747 H         1 <0>         0.1462
     30 H3          3.3036    2.0317    0.2301 H         1 <0>         0.1408
     31 H4         -0.9169   -0.5620    0.2339 H         1 <0>         0.1741
     32 H5         -1.1259   -1.3389   -0.9708 H         1 <0>         0.1276
     33 H6         -3.1715   -2.6722   -0.9782 H         1 <0>         0.1261
     34 H7         -1.0498   -5.9381    0.8476 H         1 <0>         0.1245
     35 H8          0.9983   -4.6084    0.8461 H         1 <0>         0.1106
     36 H9          2.5318   -3.6466   -0.2842 H         1 <0>         0.4560
     37 H10         4.9200    0.9947    0.1107 H         1 <0>         0.4291
     38 H11         5.2026   -1.9905   -1.7256 H         1 <0>         0.1401
     39 H12         7.2995   -3.1837   -2.1858 H         1 <0>         0.1434
     40 H13         9.3569   -0.6101    0.5650 H         1 <0>         0.1342
     41 H14         7.2567    0.5825    1.0117 H         1 <0>         0.1361
     42 H15        10.8515   -1.5780    0.1360 H         1 <0>         0.4005
     43 H16        11.6925   -2.7869   -0.6727 H         1 <0>         0.4076
@<TRIPOS>BOND
     1    1    6 ar
     2    1    2 ar
     3    1   28 1
     4    2    3 ar
     5    2   29 1
     6    3    4 ar
     7    3   30 1
     8    4   17 1
     9    4    5 ar
    10    5    6 ar
    11    5    7 1
    12    6   31 1
    13    7    8 2
    14    7   15 1
    15    8   14 1
    16    8    9 1
    17    9   10 2
    18    9   32 1
    19   10   11 1
    20   10   33 1
    21   11   12 2
    22   11   13 1
    23   13   14 2
    24   13   34 1
    25   14   35 1
    26   15   16 1
    27   15   36 1
    28   16   17 2
    29   17   18 1
    30   18   19 1
    31   18   37 1
    32   19   24 ar
    33   19   20 ar
    34   20   21 ar
    35   20   38 1
    36   21   22 ar
    37   21   39 1
    38   22   23 ar
    39   22   25 1
    40   23   24 ar
    41   23   40 1
    42   24   41 1
    43   25   26 2
    44   25   27 am
    45   27   42 1
    46   27   43 1
@<TRIPOS>MOLECULE
ZINC09422426
   36    38     0     0     0
SMALL
USER_CHARGES
ethyl 3-[(2-amino-9H-purin-6-yl)amino]benzoate
@<TRIPOS>ATOM
      1 C1         -6.1008    2.9400   -0.3749 C.3       1 <0>        -0.1536
      2 C2         -4.9031    3.8909   -0.4227 C.3       1 <0>         0.0627
      3 O1         -3.6760    3.1323   -0.2581 O.3       1 <0>        -0.3529
      4 C3         -2.5212    3.8257   -0.2767 C.2       1 <0>         0.5114
      5 O2         -2.5389    5.0310   -0.4263 O.2       1 <0>        -0.5045
      6 C4         -1.2332    3.1202   -0.1151 C.ar      1 <0>        -0.1065
      7 C5         -1.2098    1.7337    0.0515 C.ar      1 <0>        -0.0763
      8 C6         -0.0060    1.0779    0.2079 C.ar      1 <0>        -0.1142
      9 C7          1.1806    1.7872    0.1892 C.ar      1 <0>        -0.0739
     10 C8          1.1688    3.1665    0.0184 C.ar      1 <0>         0.1003
     11 C9         -0.0360    3.8359   -0.1340 C.ar      1 <0>        -0.0819
     12 N1          2.3716    3.8789   -0.0002 N.pl3     1 <0>        -0.5405
     13 C10         3.5138    3.2954   -0.5215 C.ar      1 <0>         0.4657
     14 C11         4.7549    3.9511   -0.4432 C.ar      1 <0>        -0.1082
     15 C12         5.8810    3.3124   -0.9881 C.ar      1 <0>         0.3403
     16 N2          6.9375    4.1615   -0.7762 N.pl3     1 <0>        -0.5871
     17 H1          7.8873    4.0031   -1.0459 H         1 <0>         0.4386
     18 C13         6.4545    5.2617   -0.1299 C.2       1 <0>         0.2549
     19 N3          5.1743    5.1361    0.0644 N.2       1 <0>        -0.4499
     20 N4          5.7373    2.1190   -1.5560 N.ar      1 <0>        -0.5909
     21 C14         4.5502    1.5372   -1.6089 C.ar      1 <0>         0.6138
     22 N5          3.4616    2.1015   -1.1013 N.ar      1 <0>        -0.5980
     23 N6          4.4412    0.2932   -2.2084 N.pl3     1 <0>        -0.8146
     24 H2         -6.1179    2.4253    0.5858 H         1 <0>         0.0678
     25 H3         -7.0220    3.5094   -0.4985 H         1 <0>         0.0817
     26 H4         -6.0157    2.2078   -1.1779 H         1 <0>         0.0675
     27 H5         -4.9882    4.6230    0.3803 H         1 <0>         0.0721
     28 H6         -4.8860    4.4056   -1.3834 H         1 <0>         0.0717
     29 H7         -2.1342    1.1753    0.0618 H         1 <0>         0.1395
     30 H8          0.0097    0.0063    0.3410 H         1 <0>         0.1355
     31 H9          2.1200    1.2677    0.3081 H         1 <0>         0.1419
     32 H10        -0.0473    4.9076   -0.2672 H         1 <0>         0.1426
     33 H11         2.2573    4.7119   -0.5415 H         1 <0>         0.3820
     34 H12         7.0473    6.1114    0.1751 H         1 <0>         0.2282
     35 H13         5.2272   -0.1364   -2.5804 H         1 <0>         0.4169
     36 H14         3.5788   -0.1482   -2.2563 H         1 <0>         0.4177
@<TRIPOS>BOND
     1    1    2 1
     2    1   24 1
     3    1   25 1
     4    1   26 1
     5    2    3 1
     6    2   27 1
     7    2   28 1
     8    3    4 1
     9    4    5 2
    10    4    6 1
    11    6   11 ar
    12    6    7 ar
    13    7    8 ar
    14    7   29 1
    15    8    9 ar
    16    8   30 1
    17    9   10 ar
    18    9   31 1
    19   10   11 ar
    20   10   12 1
    21   11   32 1
    22   12   13 1
    23   12   33 1
    24   13   22 ar
    25   13   14 ar
    26   14   19 1
    27   14   15 ar
    28   15   16 1
    29   15   20 ar
    30   16   17 1
    31   16   18 1
    32   18   19 2
    33   18   34 1
    34   20   21 ar
    35   21   22 ar
    36   21   23 1
    37   23   35 1
    38   23   36 1
@<TRIPOS>MOLECULE
ZINC00581684
   52    54     0     0     0
SMALL
USER_CHARGES

@<TRIPOS>ATOM
      1 C1         -0.3920    1.3196    0.2829 C.3       1 <0>        -0.1144
      2 C2         -0.1867   -0.1617    0.0967 C.ar      1 <0>        -0.1268
      3 C3         -0.3263   -0.7256   -1.1570 C.ar      1 <0>        -0.0825
      4 C4         -0.1394   -2.0830   -1.3319 C.ar      1 <0>        -0.1290
      5 C5          0.1904   -2.8860   -0.2467 C.ar      1 <0>         0.1580
      6 C6          0.3318   -2.3229    1.0134 C.ar      1 <0>        -0.1501
      7 C7          0.1484   -0.9579    1.1847 C.ar      1 <0>         0.1606
      8 N1          0.2955   -0.3855    2.4522 N.am      1 <0>        -0.6629
      9 C8          0.0535   -1.1204    3.5557 C.2       1 <0>         0.5622
     10 O1         -0.2158   -2.3016    3.4526 O.2       1 <0>        -0.5145
     11 C9          0.1154   -0.4914    4.8893 C.ar      1 <0>        -0.1506
     12 C10         0.4192    0.8673    5.0097 C.ar      1 <0>        -0.0674
     13 C11         0.4760    1.4504    6.2558 C.ar      1 <0>        -0.1527
     14 C12         0.2322    0.6893    7.3931 C.ar      1 <0>         0.1394
     15 C13        -0.0698   -0.6625    7.2777 C.ar      1 <0>        -0.1532
     16 C14        -0.1352   -1.2517    6.0348 C.ar      1 <0>        -0.0369
     17 O2          0.2896    1.2676    8.6195 O.3       1 <0>        -0.4971
     18 N2          0.3790   -4.2602   -0.4245 N.am      1 <0>        -0.6664
     19 C15         0.9498   -4.7214   -1.5549 C.2       1 <0>         0.5619
     20 O3          1.2253   -3.9516   -2.4545 O.2       1 <0>        -0.5163
     21 C16         1.2409   -6.1634   -1.7009 C.ar      1 <0>        -0.0899
     22 C17         0.9202   -7.0505   -0.6714 C.ar      1 <0>        -0.1453
     23 C18         1.1928   -8.3959   -0.8100 C.ar      1 <0>        -0.0758
     24 C19         1.7835   -8.8709   -1.9662 C.ar      1 <0>        -0.1713
     25 C20         2.1068   -7.9963   -2.9969 C.ar      1 <0>         0.2078
     26 C21         1.8316   -6.6431   -2.8697 C.ar      1 <0>        -0.1355
     27 N3          2.7044   -8.4812   -4.1629 N.pl3     1 <0>        -0.6372
     28 C22         2.9904   -9.9115   -4.2993 C.3       1 <0>         0.0917
     29 C23         3.0451   -7.5592   -5.2493 C.3       1 <0>         0.0891
     30 H1          0.5556    1.8387    0.1393 H         1 <0>         0.0713
     31 H2         -1.1179    1.6802   -0.4458 H         1 <0>         0.0736
     32 H3         -0.7623    1.5113    1.2900 H         1 <0>         0.0611
     33 H4         -0.5825   -0.1037   -2.0020 H         1 <0>         0.1311
     34 H5         -0.2499   -2.5208   -2.3130 H         1 <0>         0.1399
     35 H6          0.5880   -2.9448    1.8584 H         1 <0>         0.1542
     36 H7          0.5717    0.5405    2.5370 H         1 <0>         0.4114
     37 H8          0.6094    1.4592    4.1265 H         1 <0>         0.1303
     38 H9          0.7107    2.5004    6.3497 H         1 <0>         0.1385
     39 H10        -0.2583   -1.2506    8.1638 H         1 <0>         0.1394
     40 H11        -0.3746   -2.3010    5.9456 H         1 <0>         0.1435
     41 H12        -0.5533    1.6320    8.9223 H         1 <0>         0.3984
     42 H13         0.0990   -4.8815    0.2658 H         1 <0>         0.4128
     43 H14         0.4590   -6.6834    0.2335 H         1 <0>         0.1228
     44 H15         0.9443   -9.0803   -0.0124 H         1 <0>         0.1302
     45 H16         1.9948   -9.9251   -2.0687 H         1 <0>         0.1284
     46 H17         2.0782   -5.9623   -3.6711 H         1 <0>         0.1377
     47 H18         2.1327  -10.4123   -4.7483 H         1 <0>         0.0505
     48 H19         3.8649  -10.0481   -4.9353 H         1 <0>         0.0689
     49 H20         3.1863  -10.3382   -3.3156 H         1 <0>         0.0694
     50 H21         4.0582   -7.1845   -5.1035 H         1 <0>         0.0512
     51 H22         2.9854   -8.0836   -6.2030 H         1 <0>         0.0692
     52 H23         2.3452   -6.7236   -5.2496 H         1 <0>         0.0713
@<TRIPOS>BOND
     1    1    2 1
     2    1   30 1
     3    1   31 1
     4    1   32 1
     5    2    7 ar
     6    2    3 ar
     7    3    4 ar
     8    3   33 1
     9    4    5 ar
    10    4   34 1
    11    5    6 ar
    12    5   18 1
    13    6    7 ar
    14    6   35 1
    15    7    8 1
    16    8    9 am
    17    8   36 1
    18    9   10 2
    19    9   11 1
    20   11   16 ar
    21   11   12 ar
    22   12   13 ar
    23   12   37 1
    24   13   14 ar
    25   13   38 1
    26   14   15 ar
    27   14   17 1
    28   15   16 ar
    29   15   39 1
    30   16   40 1
    31   17   41 1
    32   18   19 am
    33   18   42 1
    34   19   20 2
    35   19   21 1
    36   21   26 ar
    37   21   22 ar
    38   22   23 ar
    39   22   43 1
    40   23   24 ar
    41   23   44 1
    42   24   25 ar
    43   24   45 1
    44   25   26 ar
    45   25   27 1
    46   26   46 1
    47   27   28 1
    48   27   29 1
    49   28   47 1
    50   28   48 1
    51   28   49 1
    52   29   50 1
    53   29   51 1
    54   29   52 1
@<TRIPOS>MOLECULE
ZINC00457646
   43    46     0     0     0
SMALL
USER_CHARGES
(3-benzyl-4-methyl-2-oxo-chromen-7-yl) cyclopropanecarboxylate
@<TRIPOS>ATOM
      1 C1         -1.4500    3.6139   -0.1473 C.3       1 <0>        -0.1327
      2 C2         -1.3173    2.1166   -0.0390 C.2       1 <0>         0.0292
      3 C3         -0.0012    1.4743   -0.0646 C.ar      1 <0>        -0.1443
      4 C4          1.1687    2.2330   -0.1848 C.ar      1 <0>        -0.0397
      5 C5          2.3826    1.6095   -0.2012 C.ar      1 <0>        -0.1439
      6 C6          2.4651    0.2223   -0.0981 C.ar      1 <0>         0.1408
      7 C7          1.3177   -0.5440    0.0219 C.ar      1 <0>        -0.1332
      8 C8          0.0757    0.0732    0.0398 C.ar      1 <0>         0.1619
      9 O1         -1.0553   -0.6552    0.1565 O.3       1 <0>        -0.2671
     10 C9         -2.2646   -0.0733    0.1759 C.2       1 <0>         0.5172
     11 O2         -3.2571   -0.7709    0.2829 O.2       1 <0>        -0.4524
     12 C10        -2.4153    1.3255    0.0761 C.2       1 <0>        -0.2098
     13 C11        -3.7906    1.9410    0.1027 C.3       1 <0>        -0.0246
     14 C12        -4.3619    1.9547   -1.2918 C.ar      1 <0>        -0.0828
     15 C13        -4.2308    3.0818   -2.0813 C.ar      1 <0>        -0.1173
     16 C14        -4.7506    3.0927   -3.3622 C.ar      1 <0>        -0.1213
     17 C15        -5.4102    1.9800   -3.8499 C.ar      1 <0>        -0.1207
     18 C16        -5.5463    0.8550   -3.0582 C.ar      1 <0>        -0.1188
     19 C17        -5.0219    0.8423   -1.7793 C.ar      1 <0>        -0.1074
     20 O3          3.6805   -0.3832   -0.1159 O.3       1 <0>        -0.2856
     21 C18         4.4749   -0.1874    0.9490 C.2       1 <0>         0.4923
     22 O4          4.0587    0.4140    1.9107 O.2       1 <0>        -0.4816
     23 C19         5.8854   -0.7179    0.9445 C.3       1 <0>        -0.1734
     24 C20         6.2097   -1.8704    1.8971 C.3       1 <0>        -0.1456
     25 C21         6.7395   -0.4641    2.1883 C.3       1 <0>        -0.1424
     26 H1         -1.6437    3.8874   -1.1844 H         1 <0>         0.0940
     27 H2         -2.2766    3.9515    0.4780 H         1 <0>         0.0898
     28 H3         -0.5258    4.0856    0.1864 H         1 <0>         0.0814
     29 H4          1.1110    3.3084   -0.2651 H         1 <0>         0.1501
     30 H5          3.2853    2.1951   -0.2946 H         1 <0>         0.1411
     31 H6          1.3899   -1.6186    0.1017 H         1 <0>         0.1548
     32 H7         -4.4383    1.3552    0.7549 H         1 <0>         0.0940
     33 H8         -3.7244    2.9621    0.4783 H         1 <0>         0.0926
     34 H9         -3.7190    3.9526   -1.6989 H         1 <0>         0.1212
     35 H10        -4.6447    3.9718   -3.9805 H         1 <0>         0.1221
     36 H11        -5.8196    1.9898   -4.8492 H         1 <0>         0.1214
     37 H12        -6.0619   -0.0142   -3.4391 H         1 <0>         0.1225
     38 H13        -5.1282   -0.0367   -1.1608 H         1 <0>         0.1294
     39 H14         6.3886   -0.7073   -0.0223 H         1 <0>         0.1423
     40 H15         5.4029   -2.2449    2.5271 H         1 <0>         0.1044
     41 H16         6.9266   -2.6178    1.5571 H         1 <0>         0.1157
     42 H17         7.8047   -0.2869    2.0397 H         1 <0>         0.1147
     43 H18         6.2814    0.0869    3.0096 H         1 <0>         0.1117
@<TRIPOS>BOND
     1    1    2 1
     2    1   26 1
     3    1   27 1
     4    1   28 1
     5    2   12 2
     6    2    3 1
     7    3    8 ar
     8    3    4 ar
     9    4    5 ar
    10    4   29 1
    11    5    6 ar
    12    5   30 1
    13    6    7 ar
    14    6   20 1
    15    7    8 ar
    16    7   31 1
    17    8    9 1
    18    9   10 1
    19   10   11 2
    20   10   12 1
    21   12   13 1
    22   13   14 1
    23   13   32 1
    24   13   33 1
    25   14   19 ar
    26   14   15 ar
    27   15   16 ar
    28   15   34 1
    29   16   17 ar
    30   16   35 1
    31   17   18 ar
    32   17   36 1
    33   18   19 ar
    34   18   37 1
    35   19   38 1
    36   20   21 1
    37   21   22 2
    38   21   23 1
    39   23   25 1
    40   23   24 1
    41   23   39 1
    42   24   25 1
    43   24   40 1
    44   24   41 1
    45   25   42 1
    46   25   43 1
@<TRIPOS>MOLECULE
ZINC14951176
   39    42     0     0     0
SMALL
USER_CHARGES

@<TRIPOS>ATOM
      1 C1          0.2405    1.0255    0.8302 C.ar      1 <0>        -0.0645
      2 C2          1.4224    1.7334    0.7710 C.ar      1 <0>        -0.1488
      3 C3          2.3671    1.4303   -0.1967 C.ar      1 <0>         0.1270
      4 C4          2.1300    0.4154   -1.1103 C.ar      1 <0>        -0.1484
      5 C5          0.9516   -0.2992   -1.0607 C.ar      1 <0>        -0.0503
      6 C6         -0.0037    0.0016   -0.0874 C.ar      1 <0>        -0.0633
      7 C7         -1.2678   -0.7602   -0.0291 C.2       1 <0>         0.1046
      8 C8         -1.3961   -2.1162   -0.0863 C.2       1 <0>         0.0796
      9 N1         -2.7456   -2.4073    0.0017 N.pl3     1 <0>        -0.5519
     10 C9         -3.4195   -1.2472    0.1100 C.2       1 <0>         0.4661
     11 C10        -4.8730   -1.1131    0.2269 C.2       1 <0>        -0.2712
     12 C11        -5.4545    0.1603    0.3285 C.2       1 <0>        -0.0131
     13 C12        -6.8063    0.2847    0.4372 C.2       1 <0>        -0.2432
     14 C13        -7.6177   -0.8599    0.4477 C.2       1 <0>         0.3274
     15 O1         -8.9418   -0.7377    0.5542 O.2       1 <0>        -0.6199
     16 C14        -7.0368   -2.1329    0.3456 C.2       1 <0>        -0.2432
     17 C15        -5.6854   -2.2577    0.2315 C.2       1 <0>        -0.0132
     18 N2         -2.5363   -0.2302    0.0993 N.pl3     1 <0>        -0.5537
     19 C16        -0.2980   -3.0933   -0.2185 C.ar      1 <0>         0.0029
     20 C17         0.8460   -3.0046    0.5859 C.ar      1 <0>        -0.1375
     21 C18         1.8471   -3.9391    0.4288 C.ar      1 <0>         0.1110
     22 N3          1.7384   -4.9058   -0.4634 N.ar      1 <0>        -0.4697
     23 C19         0.6787   -5.0262   -1.2411 C.ar      1 <0>         0.1111
     24 C20        -0.3725   -4.1394   -1.1479 C.ar      1 <0>        -0.1541
     25 F1          3.5233    2.1271   -0.2501 F         1 <0>        -0.1285
     26 H1         -0.4930    1.2596    1.5875 H         1 <0>         0.1388
     27 H2          1.6122    2.5258    1.4800 H         1 <0>         0.1474
     28 H3          2.8693    0.1839   -1.8628 H         1 <0>         0.1469
     29 H4          0.7677   -1.0896   -1.7733 H         1 <0>         0.1375
     30 H5         -3.1383   -3.2941   -0.0126 H         1 <0>         0.4530
     31 H6         -4.8300    1.0414    0.3209 H         1 <0>         0.1049
     32 H7         -7.2538    1.2645    0.5158 H         1 <0>         0.1221
     33 H8         -7.6616   -3.0138    0.3533 H         1 <0>         0.1221
     34 H9         -5.2386   -3.2374    0.1489 H         1 <0>         0.1046
     35 H10        -2.7542    0.7126    0.1673 H         1 <0>         0.4532
     36 H11         0.9421   -2.2159    1.3174 H         1 <0>         0.1420
     37 H12         2.7328   -3.8793    1.0439 H         1 <0>         0.1658
     38 H13         0.6328   -5.8333   -1.9573 H         1 <0>         0.1659
     39 H14        -1.2383   -4.2467   -1.7845 H         1 <0>         0.1405
@<TRIPOS>BOND
     1    1    6 ar
     2    1    2 ar
     3    1   26 1
     4    2    3 ar
     5    2   27 1
     6    3    4 ar
     7    3   25 1
     8    4    5 ar
     9    4   28 1
    10    5    6 ar
    11    5   29 1
    12    6    7 1
    13    7   18 1
    14    7    8 2
    15    8    9 1
    16    8   19 1
    17    9   10 1
    18    9   30 1
    19   10   11 2
    20   10   18 1
    21   11   17 1
    22   11   12 1
    23   12   13 2
    24   12   31 1
    25   13   14 1
    26   13   32 1
    27   14   15 2
    28   14   16 1
    29   16   17 2
    30   16   33 1
    31   17   34 1
    32   18   35 1
    33   19   24 ar
    34   19   20 ar
    35   20   21 ar
    36   20   36 1
    37   21   22 ar
    38   21   37 1
    39   22   23 ar
    40   23   24 ar
    41   23   38 1
    42   24   39 1
@<TRIPOS>MOLECULE
ZINC14951176
   40    43     0     0     0
SMALL
USER_CHARGES

@<TRIPOS>ATOM
      1 C1          0.2405    1.0255    0.8302 C.ar      1 <0>        -0.0528
      2 C2          1.4224    1.7334    0.7710 C.ar      1 <0>        -0.1439
      3 C3          2.3671    1.4303   -0.1967 C.ar      1 <0>         0.1411
      4 C4          2.1300    0.4154   -1.1103 C.ar      1 <0>        -0.1508
      5 C5          0.9516   -0.2992   -1.0607 C.ar      1 <0>        -0.0597
      6 C6         -0.0037    0.0016   -0.0874 C.ar      1 <0>        -0.0905
      7 C7         -1.2678   -0.7602   -0.0291 C.2       1 <0>         0.1717
      8 C8         -1.3961   -2.1162   -0.0863 C.2       1 <0>         0.0049
      9 N1         -2.7456   -2.4073    0.0017 N.pl3     1 <0>        -0.5619
     10 C9         -3.4195   -1.2472    0.1100 C.2       1 <0>         0.4672
     11 C10        -4.8730   -1.1131    0.2269 C.2       1 <0>        -0.2599
     12 C11        -5.6849   -2.2580    0.2378 C.2       1 <0>        -0.0193
     13 C12        -7.0367   -2.1330    0.3465 C.2       1 <0>        -0.2271
     14 C13        -7.6177   -0.8599    0.4475 C.2       1 <0>         0.3291
     15 O1         -8.9418   -0.7377    0.5539 O.2       1 <0>        -0.5899
     16 C14        -6.8064    0.2847    0.4370 C.2       1 <0>        -0.2265
     17 C15        -5.4541    0.1600    0.3338 C.2       1 <0>        -0.0193
     18 N2         -2.5363   -0.2302    0.0993 N.pl3     1 <0>        -0.5609
     19 C16        -0.2980   -3.0933   -0.2185 C.ar      1 <0>         0.1131
     20 C17         0.8460   -3.0046    0.5859 C.ar      1 <0>        -0.1113
     21 C18         1.8471   -3.9391    0.4288 C.ar      1 <0>         0.1475
     22 N3          1.7384   -4.9058   -0.4634 N.ar      1 <0>        -0.4453
     23 C19         0.6789   -5.0260   -1.2413 C.ar      1 <0>         0.1502
     24 C20        -0.3725   -4.1394   -1.1479 C.ar      1 <0>        -0.1247
     25 F1          3.5233    2.1271   -0.2501 F         1 <0>        -0.1206
     26 H1         -0.4930    1.2596    1.5875 H         1 <0>         0.1448
     27 H2          1.6122    2.5258    1.4800 H         1 <0>         0.1545
     28 H3          2.8693    0.1839   -1.8628 H         1 <0>         0.1503
     29 H4          0.7677   -1.0896   -1.7733 H         1 <0>         0.1343
     30 H5         -3.1383   -3.2941   -0.0126 H         1 <0>         0.4541
     31 H6         -5.2377   -3.2379    0.1597 H         1 <0>         0.1066
     32 H7         -7.6615   -3.0138    0.3545 H         1 <0>         0.1278
     33 H8         -7.2539    1.2645    0.5152 H         1 <0>         0.1286
     34 H9         -4.8293    1.0409    0.3299 H         1 <0>         0.1087
     35 H10        -2.7542    0.7126    0.1673 H         1 <0>         0.4588
     36 H11         0.9421   -2.2159    1.3174 H         1 <0>         0.1893
     37 H12         2.7328   -3.8793    1.0439 H         1 <0>         0.2181
     38 H13         0.6331   -5.8328   -1.9578 H         1 <0>         0.2182
     39 H14        -1.2383   -4.2467   -1.7845 H         1 <0>         0.1884
     40 H15         2.4602   -5.5480   -0.5503 H         1 <0>         0.4572
@<TRIPOS>BOND
     1    1    6 ar
     2    1    2 ar
     3    1   26 1
     4    2    3 ar
     5    2   27 1
     6    3    4 ar
     7    3   25 1
     8    4    5 ar
     9    4   28 1
    10    5    6 ar
    11    5   29 1
    12    6    7 1
    13    7   18 1
    14    7    8 2
    15    8    9 1
    16    8   19 1
    17    9   10 1
    18    9   30 1
    19   10   11 2
    20   10   18 1
    21   11   17 1
    22   11   12 1
    23   12   13 2
    24   12   31 1
    25   13   14 1
    26   13   32 1
    27   14   15 2
    28   14   16 1
    29   16   17 2
    30   16   33 1
    31   17   34 1
    32   18   35 1
    33   19   24 ar
    34   19   20 ar
    35   20   21 ar
    36   20   36 1
    37   21   22 ar
    38   21   37 1
    39   22   23 ar
    40   22   40 1
    41   23   24 ar
    42   23   38 1
    43   24   39 1
@<TRIPOS>MOLECULE
ZINC14951176
   39    42     0     0     0
SMALL
USER_CHARGES

@<TRIPOS>ATOM
      1 C1         -0.0169    1.3921    0.0097 C.ar      1 <0>        -0.0566
      2 C2          1.1683    2.0955    0.0022 C.ar      1 <0>        -0.1420
      3 C3          2.3804    1.4175   -0.0135 C.ar      1 <0>         0.1205
      4 C4          2.4035    0.0288   -0.0217 C.ar      1 <0>        -0.1413
      5 C5          1.2227   -0.6820   -0.0137 C.ar      1 <0>        -0.0915
      6 C6          0.0021   -0.0041    0.0020 C.ar      1 <0>        -0.0305
      7 C7         -1.2663   -0.7622    0.0101 C.2       1 <0>         0.2668
      8 N1         -2.4688   -0.2344    0.0239 N.2       1 <0>        -0.4516
      9 H1         -0.6429   -2.7598   -0.0166 H         1 <0>         0.4248
     10 C8         -3.3891   -1.2133    0.0276 C.2       1 <0>         0.0607
     11 C9         -2.7170   -2.4244    0.0153 C.2       1 <0>         0.0509
     12 N2         -1.3752   -2.1239   -0.0017 N.pl3     1 <0>        -0.5528
     13 C10        -3.3214   -3.7709    0.0147 C.ar      1 <0>        -0.0389
     14 C11        -4.3834   -4.0632    0.8738 C.ar      1 <0>        -0.0572
     15 C12        -4.9440   -5.3230    0.8688 C.ar      1 <0>        -0.1473
     16 C13        -4.4555   -6.2985    0.0139 C.ar      1 <0>         0.1118
     17 C14        -3.4017   -6.0145   -0.8405 C.ar      1 <0>        -0.1493
     18 C15        -2.8374   -4.7564   -0.8492 C.ar      1 <0>        -0.0780
     19 F1         -5.0084   -7.5311    0.0136 F         1 <0>        -0.1337
     20 C16        -4.8582   -1.0303    0.0430 C.ar      1 <0>         0.0400
     21 C17        -5.7004   -1.9173   -0.6371 C.ar      1 <0>        -0.1586
     22 C18        -7.0629   -1.7095   -0.5964 C.ar      1 <0>         0.1014
     23 N3         -7.5737   -0.6921    0.0713 N.ar      1 <0>        -0.4840
     24 C19        -6.8154    0.1672    0.7258 C.ar      1 <0>         0.1006
     25 C20        -5.4433    0.0310    0.7427 C.ar      1 <0>        -0.1465
     26 O1          3.5463    2.1144   -0.0214 O.3       1 <0>        -0.4977
     27 H2         -0.9589    1.9200    0.0260 H         1 <0>         0.1437
     28 H3          1.1545    3.1754    0.0081 H         1 <0>         0.1381
     29 H4          3.3480   -0.4948   -0.0346 H         1 <0>         0.1359
     30 H5          1.2415   -1.7618   -0.0204 H         1 <0>         0.1230
     31 H6         -4.7644   -3.3041    1.5409 H         1 <0>         0.1365
     32 H7         -5.7651   -5.5501    1.5325 H         1 <0>         0.1435
     33 H8         -3.0248   -6.7788   -1.5040 H         1 <0>         0.1419
     34 H9         -2.0195   -4.5348   -1.5187 H         1 <0>         0.1326
     35 H10        -5.2894   -2.7518   -1.1857 H         1 <0>         0.1340
     36 H11        -7.7211   -2.3883   -1.1184 H         1 <0>         0.1574
     37 H12        -7.2760    0.9856    1.2591 H         1 <0>         0.1586
     38 H13        -4.8292    0.7351    1.2845 H         1 <0>         0.1395
     39 H14         3.8927    2.3115    0.8597 H         1 <0>         0.3954
@<TRIPOS>BOND
     1    1    6 ar
     2    1    2 ar
     3    1   27 1
     4    2    3 ar
     5    2   28 1
     6    3    4 ar
     7    3   26 1
     8    4    5 ar
     9    4   29 1
    10    5    6 ar
    11    5   30 1
    12    6    7 1
    13    7    8 2
    14    7   12 1
    15    8   10 1
    16    9   12 1
    17   10   20 1
    18   10   11 2
    19   11   13 1
    20   11   12 1
    21   13   18 ar
    22   13   14 ar
    23   14   15 ar
    24   14   31 1
    25   15   16 ar
    26   15   32 1
    27   16   17 ar
    28   16   19 1
    29   17   18 ar
    30   17   33 1
    31   18   34 1
    32   20   25 ar
    33   20   21 ar
    34   21   22 ar
    35   21   35 1
    36   22   23 ar
    37   22   36 1
    38   23   24 ar
    39   24   25 ar
    40   24   37 1
    41   25   38 1
    42   26   39 1
@<TRIPOS>MOLECULE
ZINC14951176
   40    43     0     0     0
SMALL
USER_CHARGES

@<TRIPOS>ATOM
      1 C1         -0.0079    1.3560    0.4128 C.ar      1 <0>        -0.0502
      2 C2          1.1789    2.0446    0.5411 C.ar      1 <0>        -0.1379
      3 C3          2.3872    1.3600    0.5181 C.ar      1 <0>         0.1743
      4 C4          2.4048   -0.0205    0.3656 C.ar      1 <0>        -0.1372
      5 C5          1.2223   -0.7164    0.2363 C.ar      1 <0>        -0.0529
      6 C6          0.0054   -0.0319    0.2597 C.ar      1 <0>        -0.1114
      7 C7         -1.2648   -0.7743    0.1224 C.cat     1 <0>         0.3974
      8 N1         -2.5103   -0.2175    0.1240 N.pl3     1 <0>        -0.5055
      9 H1         -2.7195    0.7253    0.2141 H         1 <0>         0.4639
     10 C8         -3.4150   -1.2456   -0.0267 C.2       1 <0>         0.1188
     11 C9         -2.6710   -2.4104   -0.1160 C.2       1 <0>         0.1124
     12 N2         -1.3744   -2.0755   -0.0265 N.pl3     1 <0>        -0.4709
     13 C10        -3.2098   -3.7802   -0.2862 C.ar      1 <0>        -0.0876
     14 C11        -4.1834   -4.0340   -1.2519 C.ar      1 <0>        -0.0424
     15 C12        -4.6816   -5.3110   -1.4069 C.ar      1 <0>        -0.1470
     16 C13        -4.2164   -6.3406   -0.6047 C.ar      1 <0>         0.1433
     17 C14        -3.2491   -6.0935    0.3562 C.ar      1 <0>        -0.1478
     18 C15        -2.7406   -4.8209    0.5148 C.ar      1 <0>        -0.0599
     19 F1         -4.7080   -7.5895   -0.7596 F         1 <0>        -0.1208
     20 C16        -4.8840   -1.1288   -0.0821 C.ar      1 <0>        -0.0205
     21 C17        -5.7034   -1.9735    0.6798 C.ar      1 <0>        -0.1289
     22 C18        -7.0715   -1.8287    0.5974 C.ar      1 <0>         0.1171
     23 N3         -7.6107   -0.9116   -0.1841 N.ar      1 <0>        -0.4578
     24 C19        -6.8767   -0.0959   -0.9180 C.ar      1 <0>         0.1165
     25 C20        -5.5005   -0.1662   -0.8936 C.ar      1 <0>        -0.1481
     26 O1          3.5548    2.0423    0.6448 O.3       1 <0>        -0.4899
     27 H2         -0.9472    1.8885    0.4352 H         1 <0>         0.1371
     28 H3          1.1694    3.1181    0.6592 H         1 <0>         0.1540
     29 H4          3.3464   -0.5492    0.3479 H         1 <0>         0.1543
     30 H5          1.2369   -1.7897    0.1170 H         1 <0>         0.1372
     31 H6         -4.5471   -3.2320   -1.8771 H         1 <0>         0.1402
     32 H7         -5.4356   -5.5085   -2.1544 H         1 <0>         0.1527
     33 H8         -2.8897   -6.8992    0.9791 H         1 <0>         0.1527
     34 H9         -1.9838   -4.6301    1.2612 H         1 <0>         0.1391
     35 H10        -5.2693   -2.7263    1.3211 H         1 <0>         0.1460
     36 H11        -7.7114   -2.4748    1.1801 H         1 <0>         0.1719
     37 H12        -7.3614    0.6395   -1.5430 H         1 <0>         0.1713
     38 H13        -4.9063    0.5074   -1.4932 H         1 <0>         0.1422
     39 H14         3.8545    2.1428    1.5587 H         1 <0>         0.4115
     40 H15        -0.6320   -2.6987   -0.0633 H         1 <0>         0.4629
@<TRIPOS>BOND
     1    1    6 ar
     2    1    2 ar
     3    1   27 1
     4    2    3 ar
     5    2   28 1
     6    3    4 ar
     7    3   26 1
     8    4    5 ar
     9    4   29 1
    10    5    6 ar
    11    5   30 1
    12    6    7 1
    13    7   12 2
    14    7    8 1
    15    8    9 1
    16    8   10 1
    17   10   11 2
    18   10   20 1
    19   11   12 1
    20   11   13 1
    21   12   40 1
    22   13   18 ar
    23   13   14 ar
    24   14   15 ar
    25   14   31 1
    26   15   16 ar
    27   15   32 1
    28   16   17 ar
    29   16   19 1
    30   17   18 ar
    31   17   33 1
    32   18   34 1
    33   20   25 ar
    34   20   21 ar
    35   21   22 ar
    36   21   35 1
    37   22   23 ar
    38   22   36 1
    39   23   24 ar
    40   24   25 ar
    41   24   37 1
    42   25   38 1
    43   26   39 1
@<TRIPOS>MOLECULE
ZINC14951176
   40    43     0     0     0
SMALL
USER_CHARGES

@<TRIPOS>ATOM
      1 C1         -0.0268    1.3873   -0.2487 C.ar      1 <0>        -0.0533
      2 C2          1.1507    2.0881   -0.3954 C.ar      1 <0>        -0.1372
      3 C3          2.3508    1.4075   -0.5560 C.ar      1 <0>         0.1741
      4 C4          2.3694    0.0187   -0.5693 C.ar      1 <0>        -0.1379
      5 C5          1.1963   -0.6894   -0.4227 C.ar      1 <0>        -0.0501
      6 C6         -0.0123   -0.0089   -0.2611 C.ar      1 <0>        -0.1113
      7 C7         -1.2726   -0.7643   -0.1040 C.cat     1 <0>         0.3964
      8 N1         -1.3739   -2.1224    0.0021 N.pl3     1 <0>        -0.5087
      9 H1         -0.6406   -2.7573   -0.0113 H         1 <0>         0.4641
     10 C8         -2.7098   -2.4213    0.1324 C.2       1 <0>         0.1445
     11 C9         -3.3862   -1.2129    0.1003 C.2       1 <0>         0.0865
     12 N2         -2.4734   -0.2367   -0.0386 N.pl3     1 <0>        -0.4668
     13 C10        -4.8514   -1.0295    0.2063 C.ar      1 <0>        -0.0181
     14 C11        -5.5878   -1.6830    1.2008 C.ar      1 <0>        -0.1314
     15 C12        -6.9507   -1.4834    1.2636 C.ar      1 <0>         0.1177
     16 N3         -7.5598   -0.6900    0.4025 N.ar      1 <0>        -0.4587
     17 C13        -6.9031   -0.0552   -0.5501 C.ar      1 <0>         0.1173
     18 C14        -5.5375   -0.1932   -0.6817 C.ar      1 <0>        -0.1516
     19 C15        -3.3053   -3.7640    0.2776 C.ar      1 <0>        -0.0905
     20 C16        -4.4063   -4.1307   -0.5000 C.ar      1 <0>        -0.0398
     21 C17        -4.9583   -5.3865   -0.3599 C.ar      1 <0>        -0.1481
     22 C18        -4.4232   -6.2840    0.5507 C.ar      1 <0>         0.1454
     23 C19        -3.3311   -5.9257    1.3253 C.ar      1 <0>        -0.1491
     24 C20        -2.7664   -4.6752    1.1893 C.ar      1 <0>        -0.0562
     25 F1         -4.9685   -7.5129    0.6840 F         1 <0>        -0.1204
     26 O1          3.5092    2.1019   -0.7007 O.3       1 <0>        -0.4899
     27 H2         -0.9590    1.9172   -0.1198 H         1 <0>         0.1369
     28 H3          1.1404    3.1680   -0.3860 H         1 <0>         0.1542
     29 H4          3.3045   -0.5068   -0.6950 H         1 <0>         0.1540
     30 H5          1.2115   -1.7693   -0.4335 H         1 <0>         0.1375
     31 H6         -5.0961   -2.3342    1.9084 H         1 <0>         0.1454
     32 H7         -7.5277   -1.9833    2.0275 H         1 <0>         0.1715
     33 H8         -7.4422    0.5842   -1.2336 H         1 <0>         0.1711
     34 H9         -5.0059    0.3326   -1.4610 H         1 <0>         0.1417
     35 H10        -4.8245   -3.4319   -1.2094 H         1 <0>         0.1408
     36 H11        -5.8095   -5.6711   -0.9606 H         1 <0>         0.1531
     37 H12        -2.9189   -6.6290    2.0337 H         1 <0>         0.1530
     38 H13        -1.9125   -4.3987    1.7900 H         1 <0>         0.1398
     39 H14         3.9581    2.2964    0.1334 H         1 <0>         0.4114
     40 H15        -2.6712    0.7118   -0.0857 H         1 <0>         0.4627
@<TRIPOS>BOND
     1    1    6 ar
     2    1    2 ar
     3    1   27 1
     4    2    3 ar
     5    2   28 1
     6    3    4 ar
     7    3   26 1
     8    4    5 ar
     9    4   29 1
    10    5    6 ar
    11    5   30 1
    12    6    7 1
    13    7   12 2
    14    7    8 1
    15    8    9 1
    16    8   10 1
    17   10   11 2
    18   10   19 1
    19   11   12 1
    20   11   13 1
    21   12   40 1
    22   13   18 ar
    23   13   14 ar
    24   14   15 ar
    25   14   31 1
    26   15   16 ar
    27   15   32 1
    28   16   17 ar
    29   17   18 ar
    30   17   33 1
    31   18   34 1
    32   19   24 ar
    33   19   20 ar
    34   20   21 ar
    35   20   35 1
    36   21   22 ar
    37   21   36 1
    38   22   23 ar
    39   22   25 1
    40   23   24 ar
    41   23   37 1
    42   24   38 1
    43   26   39 1
@<TRIPOS>MOLECULE
ZINC28563889
   39    42     0     0     0
SMALL
USER_CHARGES

@<TRIPOS>ATOM
      1 C1          0.0070    1.3571    0.5325 C.ar      1 <0>        -0.1055
      2 C2          1.1769    2.0767    0.3653 C.ar      1 <0>        -0.1165
      3 C3          2.3798    1.4182    0.2151 C.ar      1 <0>        -0.0737
      4 C4          2.4150    0.0230    0.2324 C.ar      1 <0>        -0.0233
      5 C5          1.2312   -0.6968    0.4019 C.ar      1 <0>        -0.1090
      6 C6          0.0349   -0.0260    0.5506 C.ar      1 <0>        -0.1156
      7 C7          3.7005   -0.6894    0.0715 C.2       1 <0>         0.2707
      8 N1          3.8583   -2.0443    0.0662 N.pl3     1 <0>        -0.5499
      9 H1          3.1563   -2.7062    0.1663 H         1 <0>         0.4251
     10 C8          5.2002   -2.2962   -0.1083 C.2       1 <0>         0.0328
     11 C9          5.8203   -1.0611   -0.2045 C.2       1 <0>         0.0748
     12 N2          4.8719   -0.1182   -0.0949 N.2       1 <0>        -0.4548
     13 C10         7.2700   -0.8239   -0.3988 C.ar      1 <0>         0.0148
     14 C11         7.9877   -1.5923   -1.3153 C.ar      1 <0>        -0.0966
     15 C12         9.3376   -1.3692   -1.4948 C.ar      1 <0>        -0.0930
     16 C13         9.9827   -0.3846   -0.7675 C.ar      1 <0>        -0.0593
     17 C14         9.2750    0.3850    0.1472 C.ar      1 <0>         0.1188
     18 C15         7.9190    0.1716    0.3294 C.ar      1 <0>        -0.1046
     19 O1          9.9126    1.3511    0.8596 O.3       1 <0>        -0.4852
     20 Cl1        11.6813   -0.1107   -0.9982 Cl        1 <0>        -0.0539
     21 C16         5.8493   -3.6188   -0.1788 C.ar      1 <0>         0.0234
     22 C17         7.0020   -3.8968    0.5688 C.ar      1 <0>        -0.1427
     23 C18         7.5750   -5.1466    0.4725 C.ar      1 <0>         0.1085
     24 N3          7.0535   -6.0735   -0.3094 N.ar      1 <0>        -0.4786
     25 C19         5.9697   -5.8543   -1.0302 C.ar      1 <0>         0.1067
     26 C20         5.3276   -4.6353   -0.9909 C.ar      1 <0>        -0.1652
     27 H2         -0.9316    1.8775    0.6538 H         1 <0>         0.1282
     28 H3          1.1482    3.1562    0.3521 H         1 <0>         0.1315
     29 H4          3.2922    1.9809    0.0840 H         1 <0>         0.1384
     30 H5          1.2516   -1.7766    0.4158 H         1 <0>         0.1176
     31 H6         -0.8818   -0.5818    0.6819 H         1 <0>         0.1293
     32 H7          7.4872   -2.3620   -1.8840 H         1 <0>         0.1313
     33 H8          9.8922   -1.9649   -2.2048 H         1 <0>         0.1410
     34 H9          7.3668    0.7719    1.0372 H         1 <0>         0.1428
     35 H10         9.9160    2.2181    0.4313 H         1 <0>         0.3951
     36 H11         7.4346   -3.1431    1.2101 H         1 <0>         0.1393
     37 H12         8.4633   -5.3707    1.0445 H         1 <0>         0.1625
     38 H13         5.5783   -6.6424   -1.6564 H         1 <0>         0.1607
     39 H14         4.4385   -4.4645   -1.5799 H         1 <0>         0.1341
@<TRIPOS>BOND
     1    1    6 ar
     2    1    2 ar
     3    1   27 1
     4    2    3 ar
     5    2   28 1
     6    3    4 ar
     7    3   29 1
     8    4    5 ar
     9    4    7 1
    10    5    6 ar
    11    5   30 1
    12    6   31 1
    13    7   12 2
    14    7    8 1
    15    8    9 1
    16    8   10 1
    17   10   11 2
    18   10   21 1
    19   11   12 1
    20   11   13 1
    21   13   18 ar
    22   13   14 ar
    23   14   15 ar
    24   14   32 1
    25   15   16 ar
    26   15   33 1
    27   16   17 ar
    28   16   20 1
    29   17   18 ar
    30   17   19 1
    31   18   34 1
    32   19   35 1
    33   21   26 ar
    34   21   22 ar
    35   22   23 ar
    36   22   36 1
    37   23   24 ar
    38   23   37 1
    39   24   25 ar
    40   25   26 ar
    41   25   38 1
    42   26   39 1
@<TRIPOS>MOLECULE
ZINC53214756
   71    77     0     0     0
SMALL
USER_CHARGES

@<TRIPOS>ATOM
      1 C1          0.5182    1.2656    0.0086 C.3       1 <0>        -0.1155
      2 C2          0.2506   -0.2166    0.0604 C.ar      1 <0>        -0.0497
      3 C3          0.2481   -0.9597   -1.1037 C.ar      1 <0>        -0.1186
      4 C4          0.0026   -2.3198   -1.0570 C.ar      1 <0>        -0.0884
      5 C5         -0.2415   -2.9401    0.1545 C.ar      1 <0>        -0.1186
      6 C6         -0.2408   -2.2025    1.3222 C.ar      1 <0>        -0.0496
      7 C7          0.0119   -0.8376    1.2794 C.ar      1 <0>         0.1132
      8 N1          0.0195   -0.0880    2.4621 N.am      1 <0>        -0.4628
      9 C8          1.1754    0.0671    3.1395 C.2       1 <0>         0.5876
     10 O1          2.2055   -0.4366    2.7329 O.2       1 <0>        -0.4766
     11 C9          1.1651    0.8564    4.3771 C.ar      1 <0>        -0.3314
     12 C10         2.3164    1.0650    5.1361 C.ar      1 <0>         0.2960
     13 N2          2.2205    1.7893    6.2384 N.ar      1 <0>        -0.5681
     14 C11         1.0592    2.3086    6.6198 C.ar      1 <0>         0.6153
     15 N3         -0.0593    2.1343    5.9278 N.ar      1 <0>        -0.5809
     16 C12        -0.0503    1.4225    4.8116 C.ar      1 <0>         0.4906
     17 N4         -1.1953    1.2203    4.0642 N.pl3     1 <0>        -0.4382
     18 C13        -1.1579    0.4842    2.9105 C.2       1 <0>         0.5183
     19 N5         -2.3621    0.4426    2.3823 N.2       1 <0>        -0.4645
     20 C14        -3.2306    1.1446    3.1528 C.ar      1 <0>         0.0828
     21 C15        -2.5030    1.6464    4.2441 C.ar      1 <0>         0.0493
     22 C16        -3.1402    2.4112    5.2088 C.ar      1 <0>        -0.0820
     23 C17        -4.4924    2.6647    5.1012 C.ar      1 <0>        -0.1037
     24 C18        -5.2191    2.1593    4.0338 C.ar      1 <0>        -0.1042
     25 C19        -4.5978    1.4166    3.0545 C.ar      1 <0>        -0.0679
     26 N6          1.0141    3.0568    7.7788 N.pl3     1 <0>        -0.6227
     27 C20         2.1976    3.3550    8.4664 C.ar      1 <0>         0.1197
     28 C21         3.3516    3.6665    7.7596 C.ar      1 <0>        -0.0547
     29 C22         4.5180    3.9609    8.4372 C.ar      1 <0>        -0.1652
     30 C23         4.5370    3.9455    9.8258 C.ar      1 <0>         0.1889
     31 C24         3.3829    3.6340   10.5327 C.ar      1 <0>        -0.1650
     32 C25         2.2152    3.3448    9.8549 C.ar      1 <0>        -0.0878
     33 N7          5.7192    4.2434   10.5127 N.pl3     1 <0>        -0.6448
     34 C26         5.7951    4.1201   11.9766 C.3       1 <0>         0.0998
     35 C27         7.0337    3.2905   12.3307 C.3       1 <0>        -0.0233
     36 N8          8.2199    3.8949   11.7112 N.4       1 <0>        -0.3839
     37 C28         8.1071    3.8319   10.2485 C.3       1 <0>        -0.0234
     38 C29         6.9233    4.6829    9.7908 C.3       1 <0>         0.0984
     39 C30         9.4200    3.1642   12.1398 C.3       1 <0>        -0.0472
     40 C31        -0.5079   -2.8791    2.6420 C.3       1 <0>        -0.1156
     41 H1          1.5892    1.4449    0.1025 H         1 <0>         0.0752
     42 H2          0.1648    1.6656   -0.9418 H         1 <0>         0.0779
     43 H3         -0.0059    1.7582    0.8276 H         1 <0>         0.0553
     44 H4          0.4377   -0.4780   -2.0516 H         1 <0>         0.1329
     45 H5          0.0011   -2.8987   -1.9688 H         1 <0>         0.1325
     46 H6         -0.4333   -4.0024    0.1877 H         1 <0>         0.1329
     47 H7          3.2634    0.6449    4.8311 H         1 <0>         0.1986
     48 H8         -2.5798    2.8074    6.0427 H         1 <0>         0.1350
     49 H9         -4.9880    3.2604    5.8535 H         1 <0>         0.1380
     50 H10        -6.2769    2.3646    3.9605 H         1 <0>         0.1394
     51 H11        -5.1692    1.0284    2.2243 H         1 <0>         0.1404
     52 H12         0.1630    3.3761    8.1171 H         1 <0>         0.4293
     53 H13         3.3369    3.6781    6.6797 H         1 <0>         0.1348
     54 H14         5.4156    4.2027    7.8875 H         1 <0>         0.1280
     55 H15         3.3977    3.6218   11.6125 H         1 <0>         0.1290
     56 H16         1.3165    3.1070   10.4046 H         1 <0>         0.1330
     57 H17         5.8776    5.1107   12.4239 H         1 <0>         0.0880
     58 H18         4.9008    3.6203   12.3489 H         1 <0>         0.1262
     59 H19         7.1599    3.2695   13.4132 H         1 <0>         0.1409
     60 H20         6.9082    2.2734   11.9595 H         1 <0>         0.1326
     61 H21         9.0242    4.2099    9.7966 H         1 <0>         0.1415
     62 H22         7.9491    2.7984    9.9403 H         1 <0>         0.1328
     63 H23         6.7746    4.5550    8.7185 H         1 <0>         0.1273
     64 H24         7.1217    5.7313   10.0135 H         1 <0>         0.0878
     65 H25         9.3399    2.1216   11.8321 H         1 <0>         0.1218
     66 H26        10.3013    3.6119   11.6806 H         1 <0>         0.1253
     67 H27         9.5093    3.2170   13.2249 H         1 <0>         0.1251
     68 H28         0.4336   -3.2206    3.0723 H         1 <0>         0.0751
     69 H29        -0.9835   -2.1730    3.3226 H         1 <0>         0.0555
     70 H30        -1.1669   -3.7331    2.4857 H         1 <0>         0.0778
     71 H31         8.2947    4.8587   12.0003 H         1 <0>         0.4247
@<TRIPOS>BOND
     1    1    2 1
     2    1   41 1
     3    1   42 1
     4    1   43 1
     5    2    7 ar
     6    2    3 ar
     7    3    4 ar
     8    3   44 1
     9    4    5 ar
    10    4   45 1
    11    5    6 ar
    12    5   46 1
    13    6    7 ar
    14    6   40 1
    15    7    8 1
    16    8   18 1
    17    8    9 am
    18    9   10 2
    19    9   11 1
    20   11   16 ar
    21   11   12 ar
    22   12   13 ar
    23   12   47 1
    24   13   14 ar
    25   14   15 ar
    26   14   26 1
    27   15   16 ar
    28   16   17 1
    29   17   21 1
    30   17   18 1
    31   18   19 2
    32   19   20 1
    33   20   25 ar
    34   20   21 ar
    35   21   22 ar
    36   22   23 ar
    37   22   48 1
    38   23   24 ar
    39   23   49 1
    40   24   25 ar
    41   24   50 1
    42   25   51 1
    43   26   27 1
    44   26   52 1
    45   27   32 ar
    46   27   28 ar
    47   28   29 ar
    48   28   53 1
    49   29   30 ar
    50   29   54 1
    51   30   31 ar
    52   30   33 1
    53   31   32 ar
    54   31   55 1
    55   32   56 1
    56   33   38 1
    57   33   34 1
    58   34   35 1
    59   34   57 1
    60   34   58 1
    61   35   36 1
    62   35   59 1
    63   35   60 1
    64   36   37 1
    65   36   39 1
    66   36   71 1
    67   37   38 1
    68   37   61 1
    69   37   62 1
    70   38   63 1
    71   38   64 1
    72   39   65 1
    73   39   66 1
    74   39   67 1
    75   40   68 1
    76   40   69 1
    77   40   70 1
@<TRIPOS>MOLECULE
ZINC53214756
   72    78     0     0     0
SMALL
USER_CHARGES

@<TRIPOS>ATOM
      1 C1          0.4332    1.8459   -0.0966 C.3       1 <0>        -0.1154
      2 C2          0.2320    0.3535   -0.1552 C.ar      1 <0>        -0.0494
      3 C3          0.2374   -0.2975   -1.3733 C.ar      1 <0>        -0.1170
      4 C4          0.0529   -1.6668   -1.4279 C.ar      1 <0>        -0.0843
      5 C5         -0.1376   -2.3888   -0.2640 C.ar      1 <0>        -0.1169
      6 C6         -0.1441   -1.7437    0.9572 C.ar      1 <0>        -0.0493
      7 C7          0.0466   -0.3694    1.0159 C.ar      1 <0>         0.1062
      8 N1          0.0458    0.2869    2.2529 N.am      1 <0>        -0.4581
      9 C8          1.2077    0.4423    2.9199 C.2       1 <0>         0.5837
     10 O1          2.2504    0.0192    2.4575 O.2       1 <0>        -0.4684
     11 C9          1.1882    1.1328    4.2153 C.ar      1 <0>        -0.3093
     12 C10         2.3447    1.3349    4.9680 C.ar      1 <0>         0.2949
     13 N2          2.2398    1.9671    6.1250 N.ar      1 <0>        -0.5762
     14 C11         1.0649    2.4016    6.5657 C.ar      1 <0>         0.6033
     15 N3         -0.0588    2.2303    5.8818 N.ar      1 <0>        -0.5679
     16 C12        -0.0417    1.6073    4.7137 C.ar      1 <0>         0.4949
     17 N4         -1.1920    1.4109    3.9729 N.pl3     1 <0>        -0.4383
     18 C13        -1.1461    0.7687    2.7648 C.2       1 <0>         0.5148
     19 N5         -2.3580    0.7132    2.2558 N.2       1 <0>        -0.4542
     20 C14        -3.2403    1.3137    3.0934 C.ar      1 <0>         0.0841
     21 C15        -2.5132    1.7616    4.2083 C.ar      1 <0>         0.0453
     22 C16        -3.1633    2.4198    5.2406 C.ar      1 <0>        -0.0844
     23 C17        -4.5274    2.6186    5.1767 C.ar      1 <0>        -0.0994
     24 C18        -5.2533    2.1637    4.0862 C.ar      1 <0>        -0.1007
     25 C19        -4.6199    1.5297    3.0403 C.ar      1 <0>        -0.0629
     26 N6          1.0109    3.0553    7.7807 N.pl3     1 <0>        -0.6267
     27 C20         2.1918    3.3530    8.4676 C.ar      1 <0>         0.2440
     28 C21         3.3467    3.6671    7.7627 C.ar      1 <0>        -0.0966
     29 C22         4.5113    3.9611    8.4442 C.ar      1 <0>        -0.0517
     30 C23         4.5287    3.9425    9.8268 C.ar      1 <0>        -0.1063
     31 C24         3.3807    3.6297   10.5316 C.ar      1 <0>        -0.0594
     32 C25         2.2112    3.3408    9.8564 C.ar      1 <0>        -0.1283
     33 N7          5.7094    4.2401   10.5136 N.4       1 <0>        -0.3154
     34 C26         6.1000    3.0885   11.3378 C.3       1 <0>        -0.0320
     35 C27         7.3923    3.4142   12.0894 C.3       1 <0>        -0.0299
     36 N8          7.1755    4.5831   12.9524 N.4       1 <0>        -0.3958
     37 C28         6.7848    5.7346   12.1282 C.3       1 <0>        -0.0299
     38 C29         5.4926    5.4089   11.3766 C.3       1 <0>        -0.0317
     39 C30         8.4162    4.8958   13.6741 C.3       1 <0>        -0.0515
     40 C31        -0.3524   -2.5311    2.2252 C.3       1 <0>        -0.1155
     41 H1          1.4971    2.0659   -0.0081 H         1 <0>         0.0749
     42 H2          0.0425    2.3012   -1.0067 H         1 <0>         0.0799
     43 H3         -0.0945    2.2500    0.7673 H         1 <0>         0.0533
     44 H4          0.3856    0.2636   -2.2841 H         1 <0>         0.1349
     45 H5          0.0572   -2.1735   -2.3817 H         1 <0>         0.1350
     46 H6         -0.2818   -3.4581   -0.3099 H         1 <0>         0.1349
     47 H7          3.3029    0.9834    4.6148 H         1 <0>         0.2058
     48 H8         -2.6037    2.7758    6.0929 H         1 <0>         0.1328
     49 H9         -5.0331    3.1315    5.9815 H         1 <0>         0.1400
     50 H10        -6.3205    2.3246    4.0480 H         1 <0>         0.1431
     51 H11        -5.1908    1.1813    2.1923 H         1 <0>         0.1441
     52 H12         0.1537    3.3081    8.1578 H         1 <0>         0.4399
     53 H13         3.3340    3.6811    6.6828 H         1 <0>         0.1649
     54 H14         5.4096    4.2054    7.8967 H         1 <0>         0.1526
     55 H15         3.3978    3.6153   11.6114 H         1 <0>         0.1443
     56 H16         1.3138    3.1009   10.4075 H         1 <0>         0.1574
     57 H17         5.3084    2.8693   12.0543 H         1 <0>         0.1525
     58 H18         6.2609    2.2213   10.6974 H         1 <0>         0.1780
     59 H19         7.6821    2.5598   12.7010 H         1 <0>         0.1778
     60 H20         8.1839    3.6335   11.3729 H         1 <0>         0.1555
     61 H21         6.6240    6.6019   12.7686 H         1 <0>         0.1777
     62 H22         7.5765    5.9538   11.4118 H         1 <0>         0.1554
     63 H23         5.2028    6.2633   10.7651 H         1 <0>         0.1776
     64 H24         4.7010    5.1897   12.0931 H         1 <0>         0.1526
     65 H25         9.2078    5.1150   12.9576 H         1 <0>         0.1316
     66 H26         8.2553    5.7631   14.3145 H         1 <0>         0.1380
     67 H27         8.7060    4.0414   14.2856 H         1 <0>         0.1380
     68 H28         0.6124   -2.8612    2.6104 H         1 <0>         0.0749
     69 H29        -0.8438   -1.9018    2.9671 H         1 <0>         0.0535
     70 H30        -0.9763   -3.3998    2.0150 H         1 <0>         0.0799
     71 H31         6.4426    4.3801   13.6157 H         1 <0>         0.4359
     72 H32         6.4422    4.4430    9.8504 H         1 <0>         0.4352
@<TRIPOS>BOND
     1    1    2 1
     2    1   41 1
     3    1   42 1
     4    1   43 1
     5    2    7 ar
     6    2    3 ar
     7    3    4 ar
     8    3   44 1
     9    4    5 ar
    10    4   45 1
    11    5    6 ar
    12    5   46 1
    13    6    7 ar
    14    6   40 1
    15    7    8 1
    16    8   18 1
    17    8    9 am
    18    9   10 2
    19    9   11 1
    20   11   16 ar
    21   11   12 ar
    22   12   13 ar
    23   12   47 1
    24   13   14 ar
    25   14   15 ar
    26   14   26 1
    27   15   16 ar
    28   16   17 1
    29   17   21 1
    30   17   18 1
    31   18   19 2
    32   19   20 1
    33   20   25 ar
    34   20   21 ar
    35   21   22 ar
    36   22   23 ar
    37   22   48 1
    38   23   24 ar
    39   23   49 1
    40   24   25 ar
    41   24   50 1
    42   25   51 1
    43   26   27 1
    44   26   52 1
    45   27   32 ar
    46   27   28 ar
    47   28   29 ar
    48   28   53 1
    49   29   30 ar
    50   29   54 1
    51   30   31 ar
    52   30   33 1
    53   31   32 ar
    54   31   55 1
    55   32   56 1
    56   33   38 1
    57   33   34 1
    58   33   72 1
    59   34   35 1
    60   34   57 1
    61   34   58 1
    62   35   36 1
    63   35   59 1
    64   35   60 1
    65   36   37 1
    66   36   39 1
    67   36   71 1
    68   37   38 1
    69   37   61 1
    70   37   62 1
    71   38   63 1
    72   38   64 1
    73   39   65 1
    74   39   66 1
    75   39   67 1
    76   40   68 1
    77   40   69 1
    78   40   70 1
@<TRIPOS>MOLECULE
ZINC05730882
   30    32     0     0     0
SMALL
USER_CHARGES

@<TRIPOS>ATOM
      1 C1         -0.0178    1.4608    0.0101 C.3       1 <0>         0.0894
      2 N1          0.0021   -0.0041    0.0020 N.pl3     1 <0>        -0.5101
      3 C2         -1.1762   -0.7118    0.0037 C.2       1 <0>         0.3046
      4 C3         -1.1132   -2.1130   -0.0047 C.2       1 <0>        -0.1767
      5 C4          0.1307   -2.7317   -0.0140 C.2       1 <0>         0.5199
      6 O1          0.2196   -4.0818   -0.0227 O.3       1 <0>        -0.6816
      7 N2          1.2380   -1.9852   -0.0147 N.2       1 <0>        -0.6311
      8 C5          1.1844   -0.6712   -0.0129 C.2       1 <0>         0.6258
      9 O2          2.3352    0.0327   -0.0200 O.3       1 <0>        -0.6887
     10 N3         -2.4301   -2.5606   -0.0008 N.pl3     1 <0>        -0.4333
     11 C6         -3.2173   -1.4646    0.0094 C.2       1 <0>         0.4391
     12 N4         -2.4620   -0.3723    0.0120 N.2       1 <0>        -0.5470
     13 S1         -4.9292   -1.4799    0.0168 S.2       1 <0>        -0.7980
     14 C7         -2.8772   -3.9557   -0.0067 C.3       1 <0>         0.1647
     15 C8         -3.0236   -4.4422    1.4121 C.ar      1 <0>        -0.0880
     16 C9         -1.9488   -5.0256    2.0568 C.ar      1 <0>        -0.0771
     17 C10        -2.0824   -5.4721    3.3580 C.ar      1 <0>        -0.1274
     18 C11        -3.2920   -5.3350    4.0153 C.ar      1 <0>        -0.0339
     19 C12        -4.3673   -4.7511    3.3696 C.ar      1 <0>        -0.1283
     20 C13        -4.2309   -4.2999    2.0703 C.ar      1 <0>        -0.0733
     21 Cl1        -3.4608   -5.8961    5.6494 Cl        1 <0>        -0.0984
     22 H1          1.0048    1.8381    0.0023 H         1 <0>         0.0894
     23 H2         -0.5450    1.8219   -0.8730 H         1 <0>         0.0525
     24 H3         -0.5280    1.8123    0.9069 H         1 <0>         0.0522
     25 H4         -3.8381   -4.0271   -0.5162 H         1 <0>         0.0983
     26 H5         -2.1431   -4.5703   -0.5277 H         1 <0>         0.1002
     27 H6         -1.0046   -5.1329    1.5434 H         1 <0>         0.1562
     28 H7         -1.2428   -5.9281    3.8614 H         1 <0>         0.1255
     29 H8         -5.3119   -4.6442    3.8820 H         1 <0>         0.1254
     30 H9         -5.0688   -3.8398    1.5677 H         1 <0>         0.1497
@<TRIPOS>BOND
     1    1    2 1
     2    1   22 1
     3    1   23 1
     4    1   24 1
     5    2    8 1
     6    2    3 1
     7    3   12 2
     8    3    4 1
     9    4    5 2
    10    4   10 1
    11    5    6 1
    12    5    7 1
    13    7    8 2
    14    8    9 1
    15   10   11 1
    16   10   14 1
    17   11   12 1
    18   11   13 2
    19   14   15 1
    20   14   25 1
    21   14   26 1
    22   15   20 ar
    23   15   16 ar
    24   16   17 ar
    25   16   27 1
    26   17   18 ar
    27   17   28 1
    28   18   19 ar
    29   18   21 1
    30   19   20 ar
    31   19   29 1
    32   20   30 1
@<TRIPOS>MOLECULE
ZINC02361683
   52    55     0     0     0
SMALL
USER_CHARGES
1,7-dibenzyl-8-(2-hydroxyethylsulfanyl)-3-methyl-purine-2,6-dione
@<TRIPOS>ATOM
      1 C1         -0.0127    1.0858    0.0080 C.3       1 <0>         0.0858
      2 N1         -0.6984    1.5583    1.2133 N.am      1 <0>        -0.5104
      3 C2         -0.8361    2.9179    1.4436 C.2       1 <0>         0.3320
      4 C3         -1.4956    3.3391    2.5937 C.2       1 <0>        -0.1399
      5 C4         -1.9924    2.3780    3.4911 C.2       1 <0>         0.5989
      6 O1         -2.5698    2.7244    4.5070 O.2       1 <0>        -0.5100
      7 N2         -1.8238    1.0681    3.2159 N.am      1 <0>        -0.5436
      8 C5         -1.1895    0.6713    2.0992 C.2       1 <0>         0.7100
      9 O2         -1.0555   -0.5181    1.8840 O.2       1 <0>        -0.5306
     10 C6         -2.3404    0.0628    4.1480 C.3       1 <0>         0.1576
     11 C7         -1.2803   -0.2699    5.1662 C.ar      1 <0>        -0.1206
     12 C8         -0.3874   -1.2969    4.9239 C.ar      1 <0>        -0.0911
     13 C9          0.5880   -1.5989    5.8557 C.ar      1 <0>        -0.1267
     14 C10         0.6639   -0.8807    7.0344 C.ar      1 <0>        -0.1086
     15 C11        -0.2323    0.1429    7.2790 C.ar      1 <0>        -0.1270
     16 C12        -1.2044    0.4484    6.3449 C.ar      1 <0>        -0.0919
     17 N3         -1.4912    4.7275    2.5609 N.pl3     1 <0>        -0.3866
     18 C13        -0.8494    5.0898    1.4173 C.2       1 <0>         0.2631
     19 N4         -0.4711    4.0073    0.7666 N.2       1 <0>        -0.4920
     20 S1         -0.5672    6.7468    0.8888 S.3       1 <0>         0.0296
     21 C14         0.3115    6.4364   -0.6629 C.3       1 <0>        -0.1118
     22 C15         0.6701    7.7700   -1.3215 C.3       1 <0>         0.0911
     23 O3          1.3638    7.5250   -2.5465 O.3       1 <0>        -0.5650
     24 C16        -2.0662    5.6276    3.5635 C.3       1 <0>         0.1448
     25 C17        -1.0262    5.9488    4.6057 C.ar      1 <0>        -0.1259
     26 C18        -0.9072    5.1550    5.7311 C.ar      1 <0>        -0.0876
     27 C19         0.0500    5.4468    6.6847 C.ar      1 <0>        -0.1234
     28 C20         0.8814    6.5385    6.5180 C.ar      1 <0>        -0.1037
     29 C21         0.7589    7.3355    5.3951 C.ar      1 <0>        -0.1233
     30 C22        -0.1948    7.0406    4.4390 C.ar      1 <0>        -0.0943
     31 H1          0.0021   -0.0041    0.0020 H         1 <0>         0.1041
     32 H2          1.0099    1.4631    0.0003 H         1 <0>         0.0781
     33 H3         -0.5399    1.4469   -0.8751 H         1 <0>         0.0791
     34 H4         -3.2209    0.4565    4.6557 H         1 <0>         0.1108
     35 H5         -2.6109   -0.8382    3.5975 H         1 <0>         0.1113
     36 H6         -0.4495   -1.8610    4.0050 H         1 <0>         0.1303
     37 H7          1.2880   -2.3989    5.6648 H         1 <0>         0.1238
     38 H8          1.4232   -1.1196    7.7644 H         1 <0>         0.1224
     39 H9         -0.1733    0.7038    8.2000 H         1 <0>         0.1228
     40 H10        -1.9049    1.2479    6.5361 H         1 <0>         0.1283
     41 H11         1.2233    5.8754   -0.4582 H         1 <0>         0.1084
     42 H12        -0.3268    5.8603   -1.3329 H         1 <0>         0.1086
     43 H13        -0.2418    8.3310   -1.5262 H         1 <0>         0.0586
     44 H14         1.3083    8.3461   -0.6515 H         1 <0>         0.0584
     45 H15         1.6228    8.3278   -3.0193 H         1 <0>         0.3892
     46 H16        -2.3929    6.5484    3.0803 H         1 <0>         0.1098
     47 H17        -2.9197    5.1442    4.0389 H         1 <0>         0.1198
     48 H18        -1.5597    4.3046    5.8635 H         1 <0>         0.1347
     49 H19         0.1454    4.8244    7.5622 H         1 <0>         0.1247
     50 H20         1.6263    6.7691    7.2652 H         1 <0>         0.1248
     51 H21         1.4082    8.1886    5.2651 H         1 <0>         0.1268
     52 H22        -0.2907    7.6634    3.5619 H         1 <0>         0.1263
@<TRIPOS>BOND
     1    1    2 1
     2    1   31 1
     3    1   32 1
     4    1   33 1
     5    2    8 am
     6    2    3 1
     7    3   19 1
     8    3    4 2
     9    4    5 1
    10    4   17 1
    11    5    6 2
    12    5    7 am
    13    7    8 am
    14    7   10 1
    15    8    9 2
    16   10   11 1
    17   10   34 1
    18   10   35 1
    19   11   16 ar
    20   11   12 ar
    21   12   13 ar
    22   12   36 1
    23   13   14 ar
    24   13   37 1
    25   14   15 ar
    26   14   38 1
    27   15   16 ar
    28   15   39 1
    29   16   40 1
    30   17   18 1
    31   17   24 1
    32   18   19 2
    33   18   20 1
    34   20   21 1
    35   21   22 1
    36   21   41 1
    37   21   42 1
    38   22   23 1
    39   22   43 1
    40   22   44 1
    41   23   45 1
    42   24   25 1
    43   24   46 1
    44   24   47 1
    45   25   30 ar
    46   25   26 ar
    47   26   27 ar
    48   26   48 1
    49   27   28 ar
    50   27   49 1
    51   28   29 ar
    52   28   50 1
    53   29   30 ar
    54   29   51 1
    55   30   52 1
@<TRIPOS>MOLECULE
ZINC33909278
   51    54     0     0     0
SMALL
USER_CHARGES

@<TRIPOS>ATOM
      1 C1          0.8257    1.2245   -0.2159 C.3       1 <0>        -0.0939
      2 C2         -0.0097   -0.0098    0.0066 C.2       1 <0>         0.1212
      3 N1         -0.4179   -0.3106    1.2015 N.2       1 <0>        -0.1732
      4 N2         -1.0687   -1.5294    1.4334 N.pl3     1 <0>        -0.5506
      5 C3         -1.6024   -1.7997    2.6730 C.2       1 <0>         0.5643
      6 N3         -1.5669   -0.9884    3.7112 N.2       1 <0>        -0.4977
      7 C4         -2.1749   -1.5561    4.7533 C.2       1 <0>         0.3510
      8 C5         -2.6240   -2.8082    4.3467 C.2       1 <0>        -0.1642
      9 N4         -2.2541   -2.9432    3.0162 N.pl3     1 <0>        -0.4316
     10 C6         -2.5130   -4.0955    2.1494 C.3       1 <0>         0.1473
     11 C7         -1.3700   -5.0718    2.2569 C.ar      1 <0>        -0.1247
     12 C8         -0.2853   -4.9623    1.4069 C.ar      1 <0>        -0.1028
     13 C9          0.7631   -5.8578    1.5055 C.ar      1 <0>        -0.1207
     14 C10         0.7271   -6.8625    2.4543 C.ar      1 <0>        -0.1024
     15 C11        -0.3572   -6.9715    3.3048 C.ar      1 <0>        -0.1187
     16 C12        -1.4037   -6.0733    3.2090 C.ar      1 <0>        -0.0853
     17 C13        -3.3074   -3.6244    5.2661 C.2       1 <0>         0.6003
     18 O1         -3.7095   -4.7252    4.9320 O.2       1 <0>        -0.5191
     19 N5         -3.5125   -3.1759    6.5217 N.am      1 <0>        -0.6507
     20 H1         -3.9835   -3.7364    7.1581 H         1 <0>         0.4400
     21 C14        -3.0739   -1.9643    6.9045 C.2       1 <0>         0.7108
     22 O2         -3.2762   -1.5935    8.0448 O.2       1 <0>        -0.5326
     23 N6         -2.4161   -1.1513    6.0567 N.am      1 <0>        -0.5076
     24 C15        -1.9545    0.1623    6.5124 C.3       1 <0>         0.0877
     25 C16        -0.3634   -0.8761   -1.1332 C.ar      1 <0>        -0.0456
     26 C17        -1.6325   -1.4551   -1.2072 C.ar      1 <0>        -0.1301
     27 C18        -1.9565   -2.2639   -2.2765 C.ar      1 <0>        -0.0457
     28 C19        -1.0278   -2.5026   -3.2741 C.ar      1 <0>        -0.0382
     29 C20         0.2313   -1.9327   -3.2071 C.ar      1 <0>        -0.0464
     30 C21         0.5672   -1.1168   -2.1469 C.ar      1 <0>        -0.0859
     31 N7         -1.3829   -3.3722   -4.4184 N.pl3     1 <0>         0.0285
     32 O3         -2.4821   -3.8719   -4.4796 O.2       1 <0>        -0.1504
     33 O4         -0.5737   -3.5827   -5.2916 O.3       1 <0>        -0.1475
     34 H2          1.8813    0.9717   -0.1162 H         1 <0>         0.0928
     35 H3          0.6384    1.6146   -1.2163 H         1 <0>         0.0871
     36 H4          0.5616    1.9802    0.5240 H         1 <0>         0.0930
     37 H5         -1.1430   -2.1828    0.7204 H         1 <0>         0.4009
     38 H6         -3.4374   -4.5829    2.4594 H         1 <0>         0.1241
     39 H7         -2.6080   -3.7595    1.1169 H         1 <0>         0.0942
     40 H8         -0.2572   -4.1773    0.6657 H         1 <0>         0.1071
     41 H9          1.6102   -5.7727    0.8410 H         1 <0>         0.1252
     42 H10         1.5459   -7.5626    2.5308 H         1 <0>         0.1273
     43 H11        -0.3855   -7.7566    4.0458 H         1 <0>         0.1285
     44 H12        -2.2491   -6.1562    3.8760 H         1 <0>         0.1392
     45 H13        -2.7325    0.9038    6.3311 H         1 <0>         0.0746
     46 H14        -1.7342    0.1201    7.5790 H         1 <0>         0.0944
     47 H15        -1.0532    0.4403    5.9660 H         1 <0>         0.0935
     48 H16        -2.3581   -1.2703   -0.4289 H         1 <0>         0.1477
     49 H17        -2.9373   -2.7123   -2.3351 H         1 <0>         0.1614
     50 H18         0.9515   -2.1239   -3.9890 H         1 <0>         0.1632
     51 H19         1.5488   -0.6691   -2.0982 H         1 <0>         0.1600
@<TRIPOS>BOND
     1    1    2 1
     2    1   34 1
     3    1   35 1
     4    1   36 1
     5    2    3 2
     6    2   25 1
     7    3    4 1
     8    4    5 1
     9    4   37 1
    10    5    9 1
    11    5    6 2
    12    6    7 1
    13    7   23 1
    14    7    8 2
    15    8    9 1
    16    8   17 1
    17    9   10 1
    18   10   11 1
    19   10   38 1
    20   10   39 1
    21   11   16 ar
    22   11   12 ar
    23   12   13 ar
    24   12   40 1
    25   13   14 ar
    26   13   41 1
    27   14   15 ar
    28   14   42 1
    29   15   16 ar
    30   15   43 1
    31   16   44 1
    32   17   18 2
    33   17   19 am
    34   19   20 1
    35   19   21 am
    36   21   22 2
    37   21   23 am
    38   23   24 1
    39   24   45 1
    40   24   46 1
    41   24   47 1
    42   25   30 ar
    43   25   26 ar
    44   26   27 ar
    45   26   48 1
    46   27   28 ar
    47   27   49 1
    48   28   29 ar
    49   28   31 1
    50   29   30 ar
    51   29   50 1
    52   30   51 1
    53   31   32 2
    54   31   33 1
@<TRIPOS>MOLECULE
ZINC33909278
   50    53     0     0     0
SMALL
USER_CHARGES

@<TRIPOS>ATOM
      1 C1          0.8257    1.2246   -0.2159 C.3       1 <0>        -0.0857
      2 C2         -0.0097   -0.0098    0.0066 C.2       1 <0>         0.0823
      3 N1         -0.4179   -0.3105    1.2015 N.2       1 <0>        -0.1534
      4 N2         -1.0686   -1.5293    1.4334 N.pl3     1 <0>        -0.5470
      5 C3         -1.6022   -1.7995    2.6726 C.2       1 <0>         0.5060
      6 N3         -1.5661   -0.9878    3.7100 N.2       1 <0>        -0.5080
      7 C4         -2.1737   -1.5549    4.7530 C.2       1 <0>         0.3099
      8 C5         -2.6243   -2.8114    4.3451 C.2       1 <0>        -0.1188
      9 N4         -2.2543   -2.9444    3.0152 N.pl3     1 <0>        -0.4365
     10 C6         -2.5130   -4.0958    2.1471 C.3       1 <0>         0.1535
     11 C7         -1.3698   -5.0720    2.2535 C.ar      1 <0>        -0.1125
     12 C8         -0.2851   -4.9613    1.4038 C.ar      1 <0>        -0.1076
     13 C9          0.7635   -5.8568    1.5014 C.ar      1 <0>        -0.1306
     14 C10         0.7276   -6.8625    2.4491 C.ar      1 <0>        -0.1120
     15 C11        -0.3567   -6.9726    3.2994 C.ar      1 <0>        -0.1227
     16 C12        -1.4033   -6.0746    3.2046 C.ar      1 <0>        -0.0767
     17 C13        -3.3039   -3.6205    5.2623 C.2       1 <0>         0.5163
     18 O1         -3.7507   -4.8425    4.8931 O.3       1 <0>        -0.6734
     19 N5         -3.5065   -3.1792    6.4985 N.2       1 <0>        -0.6413
     20 C14        -3.0772   -1.9817    6.8876 C.2       1 <0>         0.6615
     21 O2         -3.2868   -1.6195    8.0336 O.2       1 <0>        -0.5936
     22 N6         -2.4168   -1.1587    6.0505 N.am      1 <0>        -0.5318
     23 C15        -1.9599    0.1528    6.5169 C.3       1 <0>         0.0882
     24 C16        -0.3634   -0.8760   -1.1332 C.ar      1 <0>        -0.0297
     25 C17        -1.6325   -1.4551   -1.2072 C.ar      1 <0>        -0.1301
     26 C18        -1.9564   -2.2643   -2.2762 C.ar      1 <0>        -0.0433
     27 C19        -1.0276   -2.5034   -3.2736 C.ar      1 <0>        -0.0460
     28 C20         0.2315   -1.9334   -3.2067 C.ar      1 <0>        -0.0481
     29 C21         0.5671   -1.1168   -2.1470 C.ar      1 <0>        -0.0933
     30 N7         -1.3825   -3.3734   -4.4175 N.pl3     1 <0>         0.0327
     31 O3         -2.4817   -3.8732   -4.4787 O.2       1 <0>        -0.1544
     32 O4         -0.5732   -3.5842   -5.2906 O.3       1 <0>        -0.1563
     33 H1          1.8813    0.9717   -0.1163 H         1 <0>         0.0854
     34 H2          0.6384    1.6146   -1.2164 H         1 <0>         0.0807
     35 H3          0.5617    1.9802    0.5240 H         1 <0>         0.0888
     36 H4         -1.1430   -2.1828    0.7204 H         1 <0>         0.3963
     37 H5         -3.4373   -4.5836    2.4565 H         1 <0>         0.1253
     38 H6         -2.6079   -3.7586    1.1149 H         1 <0>         0.0784
     39 H7         -0.2570   -4.1756    0.6634 H         1 <0>         0.1024
     40 H8          1.6107   -5.7708    0.8371 H         1 <0>         0.1181
     41 H9          1.5466   -7.5625    2.5249 H         1 <0>         0.1205
     42 H10        -0.3849   -7.7586    4.0396 H         1 <0>         0.1248
     43 H11        -2.2487   -6.1583    3.8714 H         1 <0>         0.1551
     44 H12        -2.7393    0.8936    6.3384 H         1 <0>         0.0519
     45 H13        -1.7428    0.1036    7.5839 H         1 <0>         0.0793
     46 H14        -1.0577    0.4369    5.9753 H         1 <0>         0.0694
     47 H15        -2.3582   -1.2700   -0.4290 H         1 <0>         0.1498
     48 H16        -2.9372   -2.7127   -2.3347 H         1 <0>         0.1600
     49 H17         0.9518   -2.1249   -3.9884 H         1 <0>         0.1592
     50 H18         1.5486   -0.6687   -2.0985 H         1 <0>         0.1570
@<TRIPOS>BOND
     1    1    2 1
     2    1   33 1
     3    1   34 1
     4    1   35 1
     5    2    3 2
     6    2   24 1
     7    3    4 1
     8    4    5 1
     9    4   36 1
    10    5    9 1
    11    5    6 2
    12    6    7 1
    13    7   22 1
    14    7    8 2
    15    8    9 1
    16    8   17 1
    17    9   10 1
    18   10   11 1
    19   10   37 1
    20   10   38 1
    21   11   16 ar
    22   11   12 ar
    23   12   13 ar
    24   12   39 1
    25   13   14 ar
    26   13   40 1
    27   14   15 ar
    28   14   41 1
    29   15   16 ar
    30   15   42 1
    31   16   43 1
    32   17   18 1
    33   17   19 2
    34   19   20 1
    35   20   21 2
    36   20   22 am
    37   22   23 1
    38   23   44 1
    39   23   45 1
    40   23   46 1
    41   24   29 ar
    42   24   25 ar
    43   25   26 ar
    44   25   47 1
    45   26   27 ar
    46   26   48 1
    47   27   28 ar
    48   27   30 1
    49   28   29 ar
    50   28   49 1
    51   29   50 1
    52   30   31 2
    53   30   32 1
@<TRIPOS>MOLECULE
ZINC11617039
   55    58     0     0     0
SMALL
USER_CHARGES

@<TRIPOS>ATOM
      1 H1          0.2120    6.2074    3.3921 H         1 <0>         0.1353
      2 C1         -0.6814    5.6062    3.3098 C.ar      1 <0>         0.0196
      3 C2         -1.0741    5.1311    2.1031 C.ar      1 <0>        -0.1998
      4 C3         -2.2288    4.3474    1.9606 C.ar      1 <0>         0.2426
      5 C4         -3.0111    4.0257    3.0293 C.ar      1 <0>        -0.1858
      6 C5         -2.6578    4.4884    4.3143 C.ar      1 <0>         0.1374
      7 C6         -1.4433    5.3059    4.4600 C.ar      1 <0>        -0.2352
      8 C7         -1.3367    5.6110    5.8041 C.2       1 <0>         0.1330
      9 N1         -2.3705    5.0424    6.4391 N.pl3     1 <0>        -0.3190
     10 N2         -3.1795    4.3626    5.5213 N.2       1 <0>        -0.3200
     11 C8         -2.6225    5.1281    7.8797 C.3       1 <0>         0.0831
     12 H2         -3.2434    5.9992    8.0888 H         1 <0>         0.0888
     13 H3         -3.1369    4.2268    8.2129 H         1 <0>         0.0992
     14 H4         -1.6744    5.2222    8.4094 H         1 <0>         0.0983
     15 C9         -0.2495    6.4365    6.4425 C.3       1 <0>        -0.1025
     16 H5         -0.5455    7.4855    6.4477 H         1 <0>         0.0927
     17 H6         -0.0907    6.0987    7.4666 H         1 <0>         0.0807
     18 H7          0.6740    6.3223    5.8749 H         1 <0>         0.0943
     19 H8         -3.8955    3.4210    2.8932 H         1 <0>         0.1075
     20 N3         -2.5862    3.8853    0.6908 N.pl3     1 <0>        -0.5925
     21 C10        -3.6562    3.0160    0.5454 C.ar      1 <0>         0.5430
     22 C11        -3.4766    1.6392    0.6984 C.ar      1 <0>        -0.2193
     23 C12        -4.5711    0.8111    0.5450 C.ar      1 <0>         0.2156
     24 N4         -5.7510    1.3422    0.2594 N.ar      1 <0>        -0.5411
     25 C13        -5.8925    2.6520    0.1199 C.ar      1 <0>         0.6254
     26 N5         -4.8692    3.4808    0.2639 N.ar      1 <0>        -0.5160
     27 N6         -7.1427    3.1682   -0.1788 N.pl3     1 <0>        -0.6061
     28 C14        -7.2911    4.5338   -0.4396 C.ar      1 <0>         0.0902
     29 C15        -6.2697    5.2382   -1.0645 C.ar      1 <0>        -0.0370
     30 C16        -6.4197    6.5867   -1.3210 C.ar      1 <0>        -0.1186
     31 C17        -7.5850    7.2362   -0.9562 C.ar      1 <0>         0.0334
     32 C18        -8.6034    6.5381   -0.3338 C.ar      1 <0>        -0.6606
     33 C19        -8.4623    5.1877   -0.0798 C.ar      1 <0>        -0.0140
     34 S1        -10.0857    7.3705    0.1294 S.o2      1 <0>         2.7024
     35 O1        -10.5091    8.1093   -1.0082 O.2       1 <0>        -0.9461
     36 O2        -10.9137    6.4040    0.7615 O.2       1 <0>        -0.9598
     37 N7         -9.6818    8.4799    1.2907 N.pl3     1 <0>        -1.2481
     38 C20        -7.7450    8.7080   -1.2374 C.3       1 <0>        -0.1567
     39 H9         -8.1929    8.8433   -2.2218 H         1 <0>         0.1090
     40 H10        -8.3897    9.1545   -0.4804 H         1 <0>         0.0769
     41 H11        -6.7680    9.1908   -1.2132 H         1 <0>         0.0924
     42 H12        -4.4665   -0.2581    0.6563 H         1 <0>         0.2280
     43 H13        -2.5039    1.2316    0.9310 H         1 <0>         0.1988
     44 C21        -1.8301    4.3196   -0.4864 C.3       1 <0>         0.0917
     45 H14        -1.0078    3.6271   -0.6659 H         1 <0>         0.0746
     46 H15        -2.4881    4.3354   -1.3553 H         1 <0>         0.0729
     47 H16        -1.4320    5.3196   -0.3140 H         1 <0>         0.0953
     48 H17        -0.4834    5.3620    1.2289 H         1 <0>         0.1346
     49 H18        -7.9152    2.5823   -0.2071 H         1 <0>         0.4391
     50 H19        -5.3592    4.7318   -1.3490 H         1 <0>         0.1427
     51 H20        -5.6260    7.1349   -1.8068 H         1 <0>         0.1482
     52 H21        -9.2599    4.6421    0.4024 H         1 <0>         0.1564
     53 H22        -8.7604    8.5635    1.5820 H         1 <0>         0.4174
     54 H23       -10.3667    9.0460    1.6797 H         1 <0>         0.4270
     55 H24        -6.5221    0.7638    0.1506 H         1 <0>         0.4504
@<TRIPOS>BOND
     1    1    2 1
     2    2    7 ar
     3    2    3 ar
     4    3    4 ar
     5    3   48 1
     6    4    5 ar
     7    4   20 1
     8    5    6 ar
     9    5   19 1
    10    6   10 2
    11    6    7 ar
    12    7    8 2
    13    8    9 1
    14    8   15 1
    15    9   10 1
    16    9   11 1
    17   11   12 1
    18   11   13 1
    19   11   14 1
    20   15   16 1
    21   15   17 1
    22   15   18 1
    23   20   21 1
    24   20   44 1
    25   21   26 ar
    26   21   22 ar
    27   22   23 ar
    28   22   43 1
    29   23   24 ar
    30   23   42 1
    31   24   25 ar
    32   24   55 1
    33   25   26 ar
    34   25   27 1
    35   27   28 1
    36   27   49 1
    37   28   33 ar
    38   28   29 ar
    39   29   30 ar
    40   29   50 1
    41   30   31 ar
    42   30   51 1
    43   31   32 ar
    44   31   38 1
    45   32   33 ar
    46   32   34 1
    47   33   52 1
    48   34   35 2
    49   34   36 2
    50   34   37 1
    51   37   53 1
    52   37   54 1
    53   38   39 1
    54   38   40 1
    55   38   41 1
    56   44   45 1
    57   44   46 1
    58   44   47 1
@<TRIPOS>MOLECULE
ZINC28563821
   62    66     0     0     0
SMALL
USER_CHARGES

@<TRIPOS>ATOM
      1 C1         -0.4485    2.2529   -0.1279 C.3       1 <0>        -0.0549
      2 N1         -0.4507    0.7937   -0.2969 N.4       1 <0>        -0.3889
      3 C2          0.1599    0.4493   -1.5879 C.3       1 <0>        -0.0476
      4 C3          0.3193    0.1737    0.7898 C.3       1 <0>        -0.0017
      5 C4         -0.3858    0.4278    2.1237 C.3       1 <0>         0.0227
      6 O1         -1.6502   -0.2381    2.1286 O.3       1 <0>        -0.3268
      7 C5         -2.4087   -0.1130    3.2483 C.ar      1 <0>         0.1223
      8 C6         -1.9451    0.6418    4.3182 C.ar      1 <0>        -0.1980
      9 C7         -2.7118    0.7716    5.4559 C.ar      1 <0>        -0.0346
     10 C8         -3.9565    0.1431    5.5322 C.ar      1 <0>        -0.0318
     11 C9         -4.4190   -0.6148    4.4544 C.ar      1 <0>        -0.0695
     12 C10        -3.6485   -0.7353    3.3182 C.ar      1 <0>        -0.1347
     13 C11        -4.7817    0.2793    6.7503 C.2       1 <0>         0.2520
     14 N2         -6.0074   -0.2904    6.9435 N.pl3     1 <0>        -0.5514
     15 H1         -6.4876   -0.8508    6.3140 H         1 <0>         0.4249
     16 C12        -6.4338    0.0789    8.1987 C.2       1 <0>         0.0581
     17 C13        -5.4325    0.8750    8.7332 C.2       1 <0>         0.0666
     18 N3         -4.4502    0.9632    7.8220 N.2       1 <0>        -0.4494
     19 C14        -5.4422    1.5096   10.0709 C.ar      1 <0>         0.0362
     20 C15        -5.8939    0.8099   11.1954 C.ar      1 <0>        -0.1527
     21 C16        -5.8858    1.4393   12.4224 C.ar      1 <0>         0.1041
     22 N4         -5.4602    2.6826   12.5433 N.ar      1 <0>        -0.4807
     23 C17        -5.0262    3.3778   11.5090 C.ar      1 <0>         0.1012
     24 C18        -4.9945    2.8238   10.2465 C.ar      1 <0>        -0.1476
     25 C19        -7.7032   -0.2974    8.8463 C.ar      1 <0>        -0.0093
     26 C20        -8.4888    0.6781    9.4697 C.ar      1 <0>        -0.0909
     27 C21        -9.6627    0.3274   10.0681 C.ar      1 <0>        -0.0645
     28 C22       -10.0888   -1.0105   10.0630 C.ar      1 <0>        -0.0488
     29 C23        -9.3041   -1.9815    9.4410 C.ar      1 <0>        -0.0582
     30 C24        -8.1283   -1.6286    8.8345 C.ar      1 <0>        -0.0979
     31 C25        -9.9707   -3.3306    9.5688 C.3       1 <0>        -0.0833
     32 C26       -11.2727   -3.0975   10.3469 C.3       1 <0>        -0.1142
     33 C27       -11.3050   -1.6169   10.6379 C.2       1 <0>         0.1649
     34 N5        -12.2372   -0.9885   11.2796 N.2       1 <0>        -0.3164
     35 O2        -13.3551   -1.6992   11.7799 O.3       1 <0>        -0.4005
     36 H2          0.5774    2.6202   -0.1541 H         1 <0>         0.1251
     37 H3         -1.0198    2.7129   -0.9342 H         1 <0>         0.1275
     38 H4         -0.9015    2.5084    0.8300 H         1 <0>         0.1217
     39 H5          1.1858    0.8166   -1.6140 H         1 <0>         0.1234
     40 H6          0.1583   -0.6334   -1.7132 H         1 <0>         0.1248
     41 H7         -0.4114    0.9093   -2.3942 H         1 <0>         0.1260
     42 H8          0.3928   -0.8999    0.6164 H         1 <0>         0.1430
     43 H9          1.3193    0.6064    0.8192 H         1 <0>         0.1504
     44 H10         0.2293    0.0456    2.9384 H         1 <0>         0.1113
     45 H11        -0.5388    1.4989    2.2556 H         1 <0>         0.0892
     46 H12        -0.9822    1.1273    4.2586 H         1 <0>         0.1350
     47 H13        -2.3505    1.3584    6.2875 H         1 <0>         0.1472
     48 H14        -5.3811   -1.1024    4.5096 H         1 <0>         0.1317
     49 H15        -4.0073   -1.3180    2.4826 H         1 <0>         0.1396
     50 H16        -6.2440   -0.2077   11.1037 H         1 <0>         0.1336
     51 H17        -6.2329    0.9077   13.2961 H         1 <0>         0.1585
     52 H18        -4.6873    4.3929   11.6538 H         1 <0>         0.1588
     53 H19        -4.6334    3.3968    9.4053 H         1 <0>         0.1368
     54 H20        -8.1654    1.7085    9.4771 H         1 <0>         0.1327
     55 H21       -10.2675    1.0822   10.5486 H         1 <0>         0.1364
     56 H22        -7.5253   -2.3820    8.3496 H         1 <0>         0.1273
     57 H23       -10.1923   -3.7335    8.5805 H         1 <0>         0.0910
     58 H24        -9.3249   -4.0166   10.1169 H         1 <0>         0.0927
     59 H25       -12.1318   -3.3817    9.7391 H         1 <0>         0.0967
     60 H26       -11.2633   -3.6651   11.2774 H         1 <0>         0.0977
     61 H27       -13.9976   -1.1455   12.2443 H         1 <0>         0.4094
     62 H28        -1.4003    0.4537   -0.2726 H         1 <0>         0.4336
@<TRIPOS>BOND
     1    1    2 1
     2    1   36 1
     3    1   37 1
     4    1   38 1
     5    2    3 1
     6    2    4 1
     7    2   62 1
     8    3   39 1
     9    3   40 1
    10    3   41 1
    11    4    5 1
    12    4   42 1
    13    4   43 1
    14    5    6 1
    15    5   44 1
    16    5   45 1
    17    6    7 1
    18    7   12 ar
    19    7    8 ar
    20    8    9 ar
    21    8   46 1
    22    9   10 ar
    23    9   47 1
    24   10   11 ar
    25   10   13 1
    26   11   12 ar
    27   11   48 1
    28   12   49 1
    29   13   18 2
    30   13   14 1
    31   14   15 1
    32   14   16 1
    33   16   17 2
    34   16   25 1
    35   17   18 1
    36   17   19 1
    37   19   24 ar
    38   19   20 ar
    39   20   21 ar
    40   20   50 1
    41   21   22 ar
    42   21   51 1
    43   22   23 ar
    44   23   24 ar
    45   23   52 1
    46   24   53 1
    47   25   30 ar
    48   25   26 ar
    49   26   27 ar
    50   26   54 1
    51   27   28 ar
    52   27   55 1
    53   28   33 1
    54   28   29 ar
    55   29   30 ar
    56   29   31 1
    57   30   56 1
    58   31   32 1
    59   31   57 1
    60   31   58 1
    61   32   33 1
    62   32   59 1
    63   32   60 1
    64   33   34 2
    65   34   35 1
    66   35   61 1
@<TRIPOS>MOLECULE
ZINC28563821
   63    67     0     0     0
SMALL
USER_CHARGES

@<TRIPOS>ATOM
      1 C1          0.1188   -0.0112   -0.0891 C.3       1 <0>        -0.0553
      2 N1         -0.5730    0.1624    1.1951 N.4       1 <0>        -0.3895
      3 C2         -0.6605    1.5936    1.5146 C.3       1 <0>        -0.0494
      4 C3         -1.9259   -0.4023    1.1027 C.3       1 <0>        -0.0034
      5 C4         -1.8344   -1.9187    0.9209 C.3       1 <0>         0.0195
      6 O1         -1.2475   -2.5034    2.0853 O.3       1 <0>        -0.3169
      7 C5         -1.0932   -3.8529    2.0865 C.ar      1 <0>         0.1718
      8 C6         -1.4944   -4.5970    0.9844 C.ar      1 <0>        -0.1959
      9 C7         -1.3391   -5.9663    0.9816 C.ar      1 <0>        -0.0269
     10 C8         -0.7775   -6.6056    2.0888 C.ar      1 <0>        -0.1143
     11 C9         -0.3754   -5.8540    3.1948 C.ar      1 <0>        -0.0316
     12 C10        -0.5293   -4.4845    3.1876 C.ar      1 <0>        -0.1303
     13 C11        -0.6095   -8.0737    2.0902 C.cat     1 <0>         0.3818
     14 N2         -0.9580   -8.9104    1.0701 N.pl3     1 <0>        -0.5028
     15 H1         -1.3553   -8.6522    0.2237 H         1 <0>         0.4631
     16 C12        -0.6396  -10.1897    1.4668 C.2       1 <0>         0.1272
     17 C13        -0.0987  -10.0812    2.7384 C.2       1 <0>         0.1173
     18 N3         -0.0958   -8.7804    3.0716 N.pl3     1 <0>        -0.4663
     19 C14         0.3926  -11.1980    3.5763 C.ar      1 <0>        -0.0610
     20 C15         1.2387  -12.1643    3.0281 C.ar      1 <0>        -0.0771
     21 C16         1.6939  -13.2004    3.8070 C.ar      1 <0>        -0.0669
     22 C17         1.3123  -13.2934    5.1544 C.ar      1 <0>        -0.0143
     23 C18         0.4674  -12.3272    5.6989 C.ar      1 <0>        -0.0570
     24 C19         0.0160  -11.2844    4.9167 C.ar      1 <0>        -0.0814
     25 C20         0.2053  -12.6433    7.1521 C.3       1 <0>        -0.0855
     26 C21         0.9863  -13.9271    7.4633 C.3       1 <0>        -0.1156
     27 C22         1.6707  -14.3017    6.1711 C.2       1 <0>         0.1490
     28 N4          2.4372  -15.3280    5.9867 N.2       1 <0>        -0.3026
     29 O2          2.6974  -16.2187    7.0563 O.3       1 <0>        -0.3895
     30 C23        -0.8356  -11.4295    0.6927 C.ar      1 <0>        -0.0253
     31 C24        -1.4140  -12.5628    1.2811 C.ar      1 <0>        -0.1261
     32 C25        -1.5780  -13.7002    0.5200 C.ar      1 <0>         0.1195
     33 N5         -1.1988  -13.7310   -0.7440 N.ar      1 <0>        -0.4547
     34 C26        -0.6503  -12.6872   -1.3373 C.ar      1 <0>         0.1172
     35 C27        -0.4540  -11.5063   -0.6540 C.ar      1 <0>        -0.1485
     36 H2          1.1228    0.4078   -0.0206 H         1 <0>         0.1303
     37 H3          0.1838   -1.0731   -0.3262 H         1 <0>         0.1182
     38 H4         -0.4367    0.5029   -0.8735 H         1 <0>         0.1278
     39 H5          0.3419    1.9938    1.6668 H         1 <0>         0.1289
     40 H6         -1.1411    2.1211    0.6907 H         1 <0>         0.1261
     41 H7         -1.2471    1.7278    2.4234 H         1 <0>         0.1268
     42 H8         -2.4762   -0.1785    2.0166 H         1 <0>         0.1464
     43 H9         -2.4448    0.0352    0.2498 H         1 <0>         0.1558
     44 H10        -2.8338   -2.3279    0.7732 H         1 <0>         0.1170
     45 H11        -1.2173   -2.1437    0.0510 H         1 <0>         0.0947
     46 H12        -1.9290   -4.1018    0.1287 H         1 <0>         0.1503
     47 H13        -1.6516   -6.5442    0.1245 H         1 <0>         0.1407
     48 H14         0.0590   -6.3448    4.0531 H         1 <0>         0.1455
     49 H15        -0.2148   -3.9020    4.0410 H         1 <0>         0.1576
     50 H16         1.5350  -12.0973    1.9916 H         1 <0>         0.1369
     51 H17         2.3479  -13.9467    3.3806 H         1 <0>         0.1455
     52 H18        -0.6345  -10.5346    5.3423 H         1 <0>         0.1336
     53 H19         0.5599  -11.8276    7.7823 H         1 <0>         0.0965
     54 H20        -0.8605  -12.8053    7.3135 H         1 <0>         0.0979
     55 H21         1.7259  -13.7399    8.2418 H         1 <0>         0.1013
     56 H22         0.3038  -14.7188    7.7724 H         1 <0>         0.1021
     57 H23         3.2801  -16.9542    6.8227 H         1 <0>         0.4149
     58 H24        -1.7259  -12.5451    2.3149 H         1 <0>         0.1468
     59 H25        -2.0226  -14.5786    0.9640 H         1 <0>         0.1730
     60 H26        -0.3550  -12.7582   -2.3737 H         1 <0>         0.1717
     61 H27        -0.0088  -10.6549   -1.1472 H         1 <0>         0.1408
     62 H28        -0.0587   -0.3135    1.9212 H         1 <0>         0.4319
     63 H29         0.2332   -8.4182    3.9091 H         1 <0>         0.4629
@<TRIPOS>BOND
     1    1    2 1
     2    1   36 1
     3    1   37 1
     4    1   38 1
     5    2    3 1
     6    2    4 1
     7    2   62 1
     8    3   39 1
     9    3   40 1
    10    3   41 1
    11    4    5 1
    12    4   42 1
    13    4   43 1
    14    5    6 1
    15    5   44 1
    16    5   45 1
    17    6    7 1
    18    7   12 ar
    19    7    8 ar
    20    8    9 ar
    21    8   46 1
    22    9   10 ar
    23    9   47 1
    24   10   11 ar
    25   10   13 1
    26   11   12 ar
    27   11   48 1
    28   12   49 1
    29   13   18 2
    30   13   14 1
    31   14   15 1
    32   14   16 1
    33   16   17 2
    34   16   30 1
    35   17   18 1
    36   17   19 1
    37   18   63 1
    38   19   24 ar
    39   19   20 ar
    40   20   21 ar
    41   20   50 1
    42   21   22 ar
    43   21   51 1
    44   22   27 1
    45   22   23 ar
    46   23   24 ar
    47   23   25 1
    48   24   52 1
    49   25   26 1
    50   25   53 1
    51   25   54 1
    52   26   27 1
    53   26   55 1
    54   26   56 1
    55   27   28 2
    56   28   29 1
    57   29   57 1
    58   30   35 ar
    59   30   31 ar
    60   31   32 ar
    61   31   58 1
    62   32   33 ar
    63   32   59 1
    64   33   34 ar
    65   34   35 ar
    66   34   60 1
    67   35   61 1
@<TRIPOS>MOLECULE
ZINC28563821
   62    66     0     0     0
SMALL
USER_CHARGES

@<TRIPOS>ATOM
      1 C1          0.8656   -0.3580   -0.9926 C.3       1 <0>        -0.0546
      2 N1         -0.0118   -0.0050    0.1314 N.4       1 <0>        -0.3890
      3 C2         -0.0444    1.4554    0.2873 C.3       1 <0>        -0.0476
      4 C3         -1.3695   -0.4996   -0.1331 C.3       1 <0>        -0.0017
      5 C4         -1.3621   -2.0295   -0.1432 C.3       1 <0>         0.0229
      6 O1         -1.0224   -2.5127    1.1580 O.3       1 <0>        -0.3270
      7 C5         -0.9712   -3.8602    1.3215 C.ar      1 <0>         0.1222
      8 C6         -1.2378   -4.6989    0.2468 C.ar      1 <0>        -0.1977
      9 C7         -1.1874   -6.0665    0.4086 C.ar      1 <0>        -0.0347
     10 C8         -0.8674   -6.6089    1.6550 C.ar      1 <0>        -0.0315
     11 C9         -0.5997   -5.7623    2.7328 C.ar      1 <0>        -0.0696
     12 C10        -0.6470   -4.3957    2.5614 C.ar      1 <0>        -0.1346
     13 C11        -0.8127   -8.0747    1.8330 C.2       1 <0>         0.2519
     14 N2         -1.0447   -8.9648    0.8950 N.2       1 <0>        -0.4494
     15 H1         -0.2907   -8.3035    3.8462 H         1 <0>         0.4248
     16 C12        -0.9069  -10.2000    1.4033 C.2       1 <0>         0.0655
     17 C13        -0.5681  -10.0703    2.7414 C.2       1 <0>         0.0600
     18 N3         -0.5073   -8.7196    2.9971 N.pl3     1 <0>        -0.5516
     19 C14        -0.3173  -11.1626    3.6988 C.ar      1 <0>        -0.0113
     20 C15        -1.1767  -12.2656    3.7454 C.ar      1 <0>        -0.0938
     21 C16        -0.9425  -13.2747    4.6320 C.ar      1 <0>        -0.0625
     22 C17         0.1586  -13.2130    5.5012 C.ar      1 <0>        -0.0985
     23 C18         1.0141  -12.1125    5.4531 C.ar      1 <0>        -0.0633
     24 C19         0.7827  -11.1020    4.5586 C.ar      1 <0>        -0.1015
     25 C20         2.1122  -12.2787    6.4764 C.3       1 <0>        -0.0824
     26 C21         1.8495  -13.6175    7.1789 C.3       1 <0>        -0.0662
     27 C22         0.6049  -14.1723    6.5299 C.2       1 <0>         0.1644
     28 N4          0.0295  -15.2938    6.8242 N.2       1 <0>        -0.3135
     29 O2         -1.1390  -15.6932    6.1313 O.3       1 <0>        -0.4028
     30 C23        -1.0857  -11.4721    0.6672 C.ar      1 <0>         0.0355
     31 C24        -0.2979  -12.5904    0.9622 C.ar      1 <0>        -0.1551
     32 C25        -0.4983  -13.7555    0.2522 C.ar      1 <0>         0.1036
     33 N5         -1.4165  -13.8236   -0.6932 N.ar      1 <0>        -0.4808
     34 C26        -2.1803  -12.7929   -1.0028 C.ar      1 <0>         0.1010
     35 C27        -2.0511  -11.5911   -0.3389 C.ar      1 <0>        -0.1472
     36 H2          1.8730    0.0089   -0.7963 H         1 <0>         0.1274
     37 H3          0.8897   -1.4416   -1.1082 H         1 <0>         0.1216
     38 H4          0.4851    0.0966   -1.9073 H         1 <0>         0.1251
     39 H5         -0.4425    1.9089   -0.6204 H         1 <0>         0.1234
     40 H6         -0.6804    1.7164    1.1331 H         1 <0>         0.1248
     41 H7          0.9658    1.8244    0.4649 H         1 <0>         0.1260
     42 H8         -2.0438   -0.1446    0.6463 H         1 <0>         0.1430
     43 H9         -1.7080   -0.1315   -1.1017 H         1 <0>         0.1504
     44 H10        -2.3506   -2.3958   -0.4202 H         1 <0>         0.1114
     45 H11        -0.6274   -2.3845   -0.8658 H         1 <0>         0.0890
     46 H12        -1.4851   -4.2786   -0.7168 H         1 <0>         0.1351
     47 H13        -1.3954   -6.7180   -0.4273 H         1 <0>         0.1472
     48 H14        -0.3518   -6.1779    3.6983 H         1 <0>         0.1316
     49 H15        -0.4358   -3.7402    3.3934 H         1 <0>         0.1397
     50 H16        -2.0254  -12.3176    3.0796 H         1 <0>         0.1309
     51 H17        -1.6073  -14.1252    4.6661 H         1 <0>         0.1406
     52 H18         1.4495  -10.2533    4.5207 H         1 <0>         0.1247
     53 H19         3.0837  -12.2995    5.9826 H         1 <0>         0.0947
     54 H20         2.0767  -11.4635    7.1991 H         1 <0>         0.0933
     55 H21         2.6893  -14.2953    7.0260 H         1 <0>         0.1036
     56 H22         1.6810  -13.4583    8.2440 H         1 <0>         0.1027
     57 H23        -1.4962  -16.5441    6.4204 H         1 <0>         0.4072
     58 H24         0.4558  -12.5416    1.7341 H         1 <0>         0.1340
     59 H25         0.1047  -14.6239    0.4726 H         1 <0>         0.1580
     60 H26        -2.9193  -12.8931   -1.7840 H         1 <0>         0.1591
     61 H27        -2.6828  -10.7531   -0.5943 H         1 <0>         0.1380
     62 H28         0.3404   -0.4258    0.9781 H         1 <0>         0.4336
@<TRIPOS>BOND
     1    1    2 1
     2    1   36 1
     3    1   37 1
     4    1   38 1
     5    2    3 1
     6    2    4 1
     7    2   62 1
     8    3   39 1
     9    3   40 1
    10    3   41 1
    11    4    5 1
    12    4   42 1
    13    4   43 1
    14    5    6 1
    15    5   44 1
    16    5   45 1
    17    6    7 1
    18    7   12 ar
    19    7    8 ar
    20    8    9 ar
    21    8   46 1
    22    9   10 ar
    23    9   47 1
    24   10   11 ar
    25   10   13 1
    26   11   12 ar
    27   11   48 1
    28   12   49 1
    29   13   14 2
    30   13   18 1
    31   14   16 1
    32   15   18 1
    33   16   30 1
    34   16   17 2
    35   17   19 1
    36   17   18 1
    37   19   24 ar
    38   19   20 ar
    39   20   21 ar
    40   20   50 1
    41   21   22 ar
    42   21   51 1
    43   22   27 1
    44   22   23 ar
    45   23   24 ar
    46   23   25 1
    47   24   52 1
    48   25   26 1
    49   25   53 1
    50   25   54 1
    51   26   27 1
    52   26   55 1
    53   26   56 1
    54   27   28 2
    55   28   29 1
    56   29   57 1
    57   30   35 ar
    58   30   31 ar
    59   31   32 ar
    60   31   58 1
    61   32   33 ar
    62   32   59 1
    63   33   34 ar
    64   34   35 ar
    65   34   60 1
    66   35   61 1
@<TRIPOS>MOLECULE
ZINC28563821
   63    67     0     0     0
SMALL
USER_CHARGES

@<TRIPOS>ATOM
      1 C1          0.1188   -0.0112   -0.0891 C.3       1 <0>        -0.0554
      2 N1         -0.5730    0.1624    1.1951 N.4       1 <0>        -0.3895
      3 C2         -0.6605    1.5936    1.5146 C.3       1 <0>        -0.0493
      4 C3         -1.9259   -0.4023    1.1027 C.3       1 <0>        -0.0033
      5 C4         -1.8344   -1.9187    0.9209 C.3       1 <0>         0.0195
      6 O1         -1.2475   -2.5034    2.0853 O.3       1 <0>        -0.3168
      7 C5         -1.0932   -3.8529    2.0865 C.ar      1 <0>         0.1717
      8 C6         -1.4944   -4.5970    0.9844 C.ar      1 <0>        -0.1958
      9 C7         -1.3391   -5.9663    0.9816 C.ar      1 <0>        -0.0270
     10 C8         -0.7775   -6.6056    2.0888 C.ar      1 <0>        -0.1140
     11 C9         -0.3754   -5.8540    3.1948 C.ar      1 <0>        -0.0318
     12 C10        -0.5293   -4.4845    3.1876 C.ar      1 <0>        -0.1302
     13 C11        -0.6095   -8.0737    2.0902 C.cat     1 <0>         0.3811
     14 N2         -0.9580   -8.9104    1.0701 N.pl3     1 <0>        -0.5027
     15 H1         -1.3553   -8.6522    0.2237 H         1 <0>         0.4629
     16 C12        -0.6396  -10.1897    1.4668 C.2       1 <0>         0.1260
     17 C13        -0.0987  -10.0812    2.7384 C.2       1 <0>         0.1183
     18 N3         -0.0958   -8.7804    3.0716 N.pl3     1 <0>        -0.4664
     19 C14         0.3926  -11.1980    3.5763 C.ar      1 <0>        -0.0617
     20 C15         1.2387  -12.1643    3.0281 C.ar      1 <0>        -0.0801
     21 C16         1.6939  -13.2004    3.8070 C.ar      1 <0>        -0.0646
     22 C17         1.3123  -13.2934    5.1544 C.ar      1 <0>        -0.0658
     23 C18         0.4674  -12.3272    5.6989 C.ar      1 <0>        -0.0610
     24 C19         0.0160  -11.2844    4.9167 C.ar      1 <0>        -0.0850
     25 C20         0.2053  -12.6433    7.1521 C.3       1 <0>        -0.0846
     26 C21         0.9863  -13.9271    7.4633 C.3       1 <0>        -0.0690
     27 C22         1.6707  -14.3017    6.1711 C.2       1 <0>         0.1519
     28 N4          2.4372  -15.3280    5.9867 N.2       1 <0>        -0.2941
     29 O2          3.0157  -15.5602    4.7153 O.3       1 <0>        -0.4017
     30 C23        -0.8356  -11.4295    0.6927 C.ar      1 <0>        -0.0248
     31 C24        -1.4140  -12.5628    1.2811 C.ar      1 <0>        -0.1258
     32 C25        -1.5780  -13.7002    0.5200 C.ar      1 <0>         0.1194
     33 N5         -1.1988  -13.7310   -0.7440 N.ar      1 <0>        -0.4547
     34 C26        -0.6503  -12.6872   -1.3373 C.ar      1 <0>         0.1171
     35 C27        -0.4540  -11.5063   -0.6540 C.ar      1 <0>        -0.1488
     36 H2          1.1228    0.4078   -0.0206 H         1 <0>         0.1303
     37 H3          0.1838   -1.0731   -0.3262 H         1 <0>         0.1182
     38 H4         -0.4367    0.5029   -0.8735 H         1 <0>         0.1278
     39 H5          0.3419    1.9938    1.6668 H         1 <0>         0.1288
     40 H6         -1.1411    2.1211    0.6907 H         1 <0>         0.1261
     41 H7         -1.2471    1.7278    2.4234 H         1 <0>         0.1268
     42 H8         -2.4762   -0.1785    2.0166 H         1 <0>         0.1464
     43 H9         -2.4448    0.0352    0.2498 H         1 <0>         0.1557
     44 H10        -2.8338   -2.3279    0.7732 H         1 <0>         0.1169
     45 H11        -1.2173   -2.1437    0.0510 H         1 <0>         0.0947
     46 H12        -1.9290   -4.1018    0.1287 H         1 <0>         0.1504
     47 H13        -1.6516   -6.5442    0.1245 H         1 <0>         0.1406
     48 H14         0.0590   -6.3448    4.0531 H         1 <0>         0.1453
     49 H15        -0.2148   -3.9020    4.0410 H         1 <0>         0.1576
     50 H16         1.5350  -12.0973    1.9916 H         1 <0>         0.1343
     51 H17         2.3479  -13.9467    3.3806 H         1 <0>         0.1488
     52 H18        -0.6345  -10.5346    5.3423 H         1 <0>         0.1316
     53 H19         0.5599  -11.8276    7.7823 H         1 <0>         0.0989
     54 H20        -0.8605  -12.8053    7.3135 H         1 <0>         0.1003
     55 H21         1.7259  -13.7399    8.2418 H         1 <0>         0.1075
     56 H22         0.3038  -14.7188    7.7724 H         1 <0>         0.1082
     57 H23         3.5722  -16.3500    4.6747 H         1 <0>         0.4143
     58 H24        -1.7259  -12.5451    2.3149 H         1 <0>         0.1461
     59 H25        -2.0226  -14.5786    0.9640 H         1 <0>         0.1728
     60 H26        -0.3550  -12.7582   -2.3737 H         1 <0>         0.1718
     61 H27        -0.0088  -10.6549   -1.1472 H         1 <0>         0.1408
     62 H28        -0.0587   -0.3135    1.9212 H         1 <0>         0.4320
     63 H29         0.2332   -8.4182    3.9091 H         1 <0>         0.4628
@<TRIPOS>BOND
     1    1    2 1
     2    1   36 1
     3    1   37 1
     4    1   38 1
     5    2    3 1
     6    2    4 1
     7    2   62 1
     8    3   39 1
     9    3   40 1
    10    3   41 1
    11    4    5 1
    12    4   42 1
    13    4   43 1
    14    5    6 1
    15    5   44 1
    16    5   45 1
    17    6    7 1
    18    7   12 ar
    19    7    8 ar
    20    8    9 ar
    21    8   46 1
    22    9   10 ar
    23    9   47 1
    24   10   11 ar
    25   10   13 1
    26   11   12 ar
    27   11   48 1
    28   12   49 1
    29   13   18 2
    30   13   14 1
    31   14   15 1
    32   14   16 1
    33   16   17 2
    34   16   30 1
    35   17   18 1
    36   17   19 1
    37   18   63 1
    38   19   24 ar
    39   19   20 ar
    40   20   21 ar
    41   20   50 1
    42   21   22 ar
    43   21   51 1
    44   22   27 1
    45   22   23 ar
    46   23   24 ar
    47   23   25 1
    48   24   52 1
    49   25   26 1
    50   25   53 1
    51   25   54 1
    52   26   27 1
    53   26   55 1
    54   26   56 1
    55   27   28 2
    56   28   29 1
    57   29   57 1
    58   30   35 ar
    59   30   31 ar
    60   31   32 ar
    61   31   58 1
    62   32   33 ar
    63   32   59 1
    64   33   34 ar
    65   34   35 ar
    66   34   60 1
    67   35   61 1
@<TRIPOS>MOLECULE
ZINC28563821
   62    66     0     0     0
SMALL
USER_CHARGES

@<TRIPOS>ATOM
      1 C1         -0.0178    1.4648    0.0101 C.3       1 <0>        -0.0549
      2 N1          0.0021   -0.0041    0.0020 N.4       1 <0>        -0.3890
      3 C2          0.6897   -0.4778   -1.2066 C.3       1 <0>        -0.0476
      4 C3          0.7126   -0.4907    1.1921 C.3       1 <0>        -0.0017
      5 C4         -0.0711   -0.1034    2.4478 C.3       1 <0>         0.0227
      6 O1         -1.3280   -0.7834    2.4535 O.3       1 <0>        -0.3267
      7 C5         -2.1515   -0.5483    3.5078 C.ar      1 <0>         0.1228
      8 C6         -1.7572    0.3252    4.5133 C.ar      1 <0>        -0.1981
      9 C7         -2.5901    0.5667    5.5844 C.ar      1 <0>        -0.0338
     10 C8         -3.8317   -0.0680    5.6580 C.ar      1 <0>        -0.0327
     11 C9         -4.2243   -0.9453    4.6451 C.ar      1 <0>        -0.0692
     12 C10        -3.3880   -1.1775    3.5746 C.ar      1 <0>        -0.1348
     13 C11        -4.7276    0.1878    6.8049 C.2       1 <0>         0.2560
     14 N2         -4.4651    0.9898    7.8120 N.2       1 <0>        -0.4522
     15 H1         -6.4031   -0.9928    6.3884 H         1 <0>         0.4244
     16 C12        -5.4962    0.9839    8.6722 C.2       1 <0>         0.0819
     17 C13        -6.4603    0.1246    8.1688 C.2       1 <0>         0.0416
     18 N3         -5.9615   -0.3669    6.9836 N.pl3     1 <0>        -0.5506
     19 C14        -7.7643   -0.1953    8.7791 C.ar      1 <0>         0.0179
     20 C15        -7.8704   -0.4722   10.1492 C.ar      1 <0>        -0.1404
     21 C16        -9.1093   -0.7663   10.6770 C.ar      1 <0>         0.1097
     22 N4        -10.1844   -0.7895    9.9116 N.ar      1 <0>        -0.4756
     23 C17       -10.1298   -0.5351    8.6175 C.ar      1 <0>         0.1077
     24 C18        -8.9337   -0.2254    8.0065 C.ar      1 <0>        -0.1661
     25 C19        -5.5868    1.7559    9.9318 C.ar      1 <0>         0.0094
     26 C20        -6.8179    2.2602   10.3563 C.ar      1 <0>        -0.1105
     27 C21        -6.9006    2.9761   11.5259 C.ar      1 <0>        -0.0647
     28 C22        -5.7513    3.2042   12.2987 C.ar      1 <0>        -0.1072
     29 C23        -4.5237    2.6995   11.8722 C.ar      1 <0>        -0.0662
     30 C24        -4.4436    1.9762   10.7002 C.ar      1 <0>        -0.0849
     31 C25        -3.4489    3.0735   12.8649 C.3       1 <0>        -0.0816
     32 C26        -4.1438    3.8767   13.9726 C.3       1 <0>        -0.0659
     33 C27        -5.5981    3.9339   13.5725 C.2       1 <0>         0.1682
     34 N5         -6.5451    4.5208   14.2310 N.2       1 <0>        -0.3191
     35 O2         -7.8716    4.4965   13.7364 O.3       1 <0>        -0.4046
     36 H2          1.0047    1.8421    0.0024 H         1 <0>         0.1251
     37 H3         -0.5450    1.8259   -0.8730 H         1 <0>         0.1275
     38 H4         -0.5280    1.8163    0.9069 H         1 <0>         0.1217
     39 H5          1.7123   -0.1005   -1.2143 H         1 <0>         0.1234
     40 H6          0.7044   -1.5677   -1.2126 H         1 <0>         0.1248
     41 H7          0.1625   -0.1167   -2.0897 H         1 <0>         0.1260
     42 H8          0.8051   -1.5756    1.1418 H         1 <0>         0.1431
     43 H9          1.7055   -0.0428    1.2310 H         1 <0>         0.1504
     44 H10         0.4987   -0.3857    3.3332 H         1 <0>         0.1114
     45 H11        -0.2405    0.9733    2.4528 H         1 <0>         0.0892
     46 H12        -0.7966    0.8154    4.4559 H         1 <0>         0.1353
     47 H13        -2.2827    1.2457    6.3660 H         1 <0>         0.1477
     48 H14        -5.1837   -1.4384    4.6986 H         1 <0>         0.1314
     49 H15        -3.6926   -1.8528    2.7888 H         1 <0>         0.1397
     50 H16        -6.9949   -0.4557   10.7813 H         1 <0>         0.1404
     51 H17        -9.2015   -0.9810   11.7314 H         1 <0>         0.1633
     52 H18       -11.0355   -0.5659    8.0300 H         1 <0>         0.1615
     53 H19        -8.8972   -0.0138    6.9481 H         1 <0>         0.1331
     54 H20        -7.7051    2.0876    9.7650 H         1 <0>         0.1245
     55 H21        -7.8537    3.3654   11.8519 H         1 <0>         0.1363
     56 H22        -3.4920    1.5829   10.3743 H         1 <0>         0.1310
     57 H23        -2.9960    2.1744   13.2826 H         1 <0>         0.0933
     58 H24        -2.6883    3.6855   12.3800 H         1 <0>         0.0930
     59 H25        -4.0356    3.3696   14.9314 H         1 <0>         0.1021
     60 H26        -3.7275    4.8826   14.0276 H         1 <0>         0.1016
     61 H27        -8.5087    4.9611   14.2961 H         1 <0>         0.4052
     62 H28        -0.9445   -0.3533    0.0092 H         1 <0>         0.4336
@<TRIPOS>BOND
     1    1    2 1
     2    1   36 1
     3    1   37 1
     4    1   38 1
     5    2    3 1
     6    2    4 1
     7    2   62 1
     8    3   39 1
     9    3   40 1
    10    3   41 1
    11    4    5 1
    12    4   42 1
    13    4   43 1
    14    5    6 1
    15    5   44 1
    16    5   45 1
    17    6    7 1
    18    7   12 ar
    19    7    8 ar
    20    8    9 ar
    21    8   46 1
    22    9   10 ar
    23    9   47 1
    24   10   11 ar
    25   10   13 1
    26   11   12 ar
    27   11   48 1
    28   12   49 1
    29   13   14 2
    30   13   18 1
    31   14   16 1
    32   15   18 1
    33   16   25 1
    34   16   17 2
    35   17   19 1
    36   17   18 1
    37   19   24 ar
    38   19   20 ar
    39   20   21 ar
    40   20   50 1
    41   21   22 ar
    42   21   51 1
    43   22   23 ar
    44   23   24 ar
    45   23   52 1
    46   24   53 1
    47   25   30 ar
    48   25   26 ar
    49   26   27 ar
    50   26   54 1
    51   27   28 ar
    52   27   55 1
    53   28   33 1
    54   28   29 ar
    55   29   30 ar
    56   29   31 1
    57   30   56 1
    58   31   32 1
    59   31   57 1
    60   31   58 1
    61   32   33 1
    62   32   59 1
    63   32   60 1
    64   33   34 2
    65   34   35 1
    66   35   61 1
@<TRIPOS>MOLECULE
ZINC28563821
   62    66     0     0     0
SMALL
USER_CHARGES

@<TRIPOS>ATOM
      1 C1         -0.0178    1.4648    0.0101 C.3       1 <0>        -0.0549
      2 N1          0.0021   -0.0041    0.0020 N.4       1 <0>        -0.3890
      3 C2          0.6897   -0.4778   -1.2066 C.3       1 <0>        -0.0477
      4 C3          0.7126   -0.4907    1.1921 C.3       1 <0>        -0.0018
      5 C4         -0.0711   -0.1034    2.4478 C.3       1 <0>         0.0227
      6 O1         -1.3280   -0.7834    2.4535 O.3       1 <0>        -0.3268
      7 C5         -2.1515   -0.5483    3.5078 C.ar      1 <0>         0.1229
      8 C6         -1.7572    0.3252    4.5133 C.ar      1 <0>        -0.1982
      9 C7         -2.5901    0.5667    5.5844 C.ar      1 <0>        -0.0336
     10 C8         -3.8317   -0.0680    5.6580 C.ar      1 <0>        -0.0331
     11 C9         -4.2243   -0.9453    4.6451 C.ar      1 <0>        -0.0691
     12 C10        -3.3880   -1.1775    3.5746 C.ar      1 <0>        -0.1348
     13 C11        -4.7276    0.1878    6.8049 C.2       1 <0>         0.2566
     14 N2         -4.4651    0.9898    7.8120 N.2       1 <0>        -0.4520
     15 H1         -6.4031   -0.9928    6.3884 H         1 <0>         0.4246
     16 C12        -5.4962    0.9839    8.6722 C.2       1 <0>         0.0810
     17 C13        -6.4603    0.1246    8.1688 C.2       1 <0>         0.0427
     18 N3         -5.9615   -0.3669    6.9836 N.pl3     1 <0>        -0.5505
     19 C14        -7.7643   -0.1953    8.7791 C.ar      1 <0>         0.0174
     20 C15        -7.8704   -0.4722   10.1492 C.ar      1 <0>        -0.1409
     21 C16        -9.1093   -0.7663   10.6770 C.ar      1 <0>         0.1097
     22 N4        -10.1844   -0.7895    9.9116 N.ar      1 <0>        -0.4757
     23 C17       -10.1298   -0.5351    8.6175 C.ar      1 <0>         0.1079
     24 C18        -8.9337   -0.2254    8.0065 C.ar      1 <0>        -0.1658
     25 C19        -5.5868    1.7559    9.9318 C.ar      1 <0>         0.0105
     26 C20        -6.8179    2.2602   10.3563 C.ar      1 <0>        -0.1074
     27 C21        -6.9006    2.9761   11.5259 C.ar      1 <0>        -0.0671
     28 C22        -5.7513    3.2042   12.2987 C.ar      1 <0>        -0.0572
     29 C23        -4.5237    2.6995   11.8722 C.ar      1 <0>        -0.0614
     30 C24        -4.4436    1.9762   10.7002 C.ar      1 <0>        -0.0814
     31 C25        -3.4489    3.0735   12.8649 C.3       1 <0>        -0.0821
     32 C26        -4.1438    3.8767   13.9726 C.3       1 <0>        -0.1143
     33 C27        -5.5981    3.9339   13.5725 C.2       1 <0>         0.1690
     34 N5         -6.5451    4.5208   14.2310 N.2       1 <0>        -0.3211
     35 O2         -6.2546    5.1874   15.4461 O.3       1 <0>        -0.4032
     36 H2          1.0047    1.8421    0.0024 H         1 <0>         0.1251
     37 H3         -0.5450    1.8259   -0.8730 H         1 <0>         0.1275
     38 H4         -0.5280    1.8163    0.9069 H         1 <0>         0.1217
     39 H5          1.7123   -0.1005   -1.2143 H         1 <0>         0.1234
     40 H6          0.7044   -1.5677   -1.2126 H         1 <0>         0.1249
     41 H7          0.1625   -0.1167   -2.0897 H         1 <0>         0.1260
     42 H8          0.8051   -1.5756    1.1418 H         1 <0>         0.1430
     43 H9          1.7055   -0.0428    1.2310 H         1 <0>         0.1504
     44 H10         0.4987   -0.3857    3.3332 H         1 <0>         0.1114
     45 H11        -0.2405    0.9733    2.4528 H         1 <0>         0.0892
     46 H12        -0.7966    0.8154    4.4559 H         1 <0>         0.1352
     47 H13        -2.2827    1.2457    6.3660 H         1 <0>         0.1478
     48 H14        -5.1837   -1.4384    4.6986 H         1 <0>         0.1315
     49 H15        -3.6926   -1.8528    2.7888 H         1 <0>         0.1397
     50 H16        -6.9949   -0.4557   10.7813 H         1 <0>         0.1411
     51 H17        -9.2015   -0.9810   11.7314 H         1 <0>         0.1637
     52 H18       -11.0355   -0.5659    8.0300 H         1 <0>         0.1614
     53 H19        -8.8972   -0.0138    6.9481 H         1 <0>         0.1331
     54 H20        -7.7051    2.0876    9.7650 H         1 <0>         0.1271
     55 H21        -7.8537    3.3654   11.8519 H         1 <0>         0.1325
     56 H22        -3.4920    1.5829   10.3743 H         1 <0>         0.1331
     57 H23        -2.9960    2.1744   13.2826 H         1 <0>         0.0910
     58 H24        -2.6883    3.6855   12.3800 H         1 <0>         0.0907
     59 H25        -4.0356    3.3696   14.9314 H         1 <0>         0.0962
     60 H26        -3.7275    4.8826   14.0276 H         1 <0>         0.0957
     61 H27        -7.0250    5.5951   15.8649 H         1 <0>         0.4079
     62 H28        -0.9445   -0.3533    0.0092 H         1 <0>         0.4336
@<TRIPOS>BOND
     1    1    2 1
     2    1   36 1
     3    1   37 1
     4    1   38 1
     5    2    3 1
     6    2    4 1
     7    2   62 1
     8    3   39 1
     9    3   40 1
    10    3   41 1
    11    4    5 1
    12    4   42 1
    13    4   43 1
    14    5    6 1
    15    5   44 1
    16    5   45 1
    17    6    7 1
    18    7   12 ar
    19    7    8 ar
    20    8    9 ar
    21    8   46 1
    22    9   10 ar
    23    9   47 1
    24   10   11 ar
    25   10   13 1
    26   11   12 ar
    27   11   48 1
    28   12   49 1
    29   13   14 2
    30   13   18 1
    31   14   16 1
    32   15   18 1
    33   16   25 1
    34   16   17 2
    35   17   19 1
    36   17   18 1
    37   19   24 ar
    38   19   20 ar
    39   20   21 ar
    40   20   50 1
    41   21   22 ar
    42   21   51 1
    43   22   23 ar
    44   23   24 ar
    45   23   52 1
    46   24   53 1
    47   25   30 ar
    48   25   26 ar
    49   26   27 ar
    50   26   54 1
    51   27   28 ar
    52   27   55 1
    53   28   33 1
    54   28   29 ar
    55   29   30 ar
    56   29   31 1
    57   30   56 1
    58   31   32 1
    59   31   57 1
    60   31   58 1
    61   32   33 1
    62   32   59 1
    63   32   60 1
    64   33   34 2
    65   34   35 1
    66   35   61 1
@<TRIPOS>MOLECULE
ZINC34640412
   43    46     0     0     0
SMALL
USER_CHARGES

@<TRIPOS>ATOM
      1 C1         -0.0168    1.3908    0.0097 C.ar      1 <0>        -0.1104
      2 C2          1.1640    2.0945    0.0022 C.ar      1 <0>        -0.0640
      3 C3          2.3915    1.4155   -0.0131 C.ar      1 <0>        -0.0688
      4 C4          2.4067    0.0213   -0.0207 C.ar      1 <0>        -0.0575
      5 C5          1.2202   -0.6823   -0.0128 C.ar      1 <0>        -0.1055
      6 C6          0.0021   -0.0041    0.0020 C.ar      1 <0>         0.0217
      7 C7         -1.2706   -0.7638    0.0101 C.2       1 <0>        -0.1885
      8 C8         -1.6067   -1.7834   -0.8305 C.2       1 <0>         0.0834
      9 N1         -2.8430   -2.2046   -0.4953 N.pl3     1 <0>        -0.3600
     10 N2         -3.2973   -1.4333    0.5811 N.2       1 <0>        -0.2712
     11 C9         -2.3595   -0.5675    0.8976 C.2       1 <0>         0.1273
     12 C10        -2.4294    0.4371    1.9856 C.ar      1 <0>         0.0288
     13 C11        -1.2876    0.7907    2.7112 C.ar      1 <0>        -0.1426
     14 C12        -1.3973    1.7300    3.7155 C.ar      1 <0>         0.1016
     15 N3         -2.5584    2.2914    3.9939 N.ar      1 <0>        -0.4791
     16 C13        -3.6592    1.9862    3.3336 C.ar      1 <0>         0.1002
     17 C14        -3.6377    1.0612    2.3104 C.ar      1 <0>        -0.1462
     18 C15        -3.5856   -3.2858   -1.1477 C.3       1 <0>         0.1338
     19 C16        -4.0072   -4.3190   -0.1009 C.3       1 <0>         0.0659
     20 O1         -4.7315   -5.3737   -0.7373 O.3       1 <0>        -0.5704
     21 C17         3.8344   -0.4704   -0.0369 C.3       1 <0>        -0.0827
     22 C18         4.7229    0.7809   -0.0387 C.3       1 <0>        -0.1142
     23 C19         3.7677    1.9494   -0.0234 C.2       1 <0>         0.1729
     24 N4          4.0975    3.2008   -0.0199 N.2       1 <0>        -0.3250
     25 O2          5.4637    3.5729   -0.0309 O.3       1 <0>        -0.4061
     26 H1         -0.9593    1.9179    0.0260 H         1 <0>         0.1268
     27 H2          1.1467    3.1743    0.0078 H         1 <0>         0.1297
     28 H3          1.2348   -1.7622   -0.0190 H         1 <0>         0.1284
     29 H4         -0.9922   -2.1825   -1.6239 H         1 <0>         0.1843
     30 H5         -0.3341    0.3349    2.4889 H         1 <0>         0.1383
     31 H6         -0.5211    2.0093    4.2817 H         1 <0>         0.1593
     32 H7         -4.5887    2.4700    3.5950 H         1 <0>         0.1597
     33 H8         -4.5417    0.8195    1.7710 H         1 <0>         0.1385
     34 H9         -4.4723   -2.8769   -1.6322 H         1 <0>         0.0984
     35 H10        -2.9512   -3.7633   -1.8945 H         1 <0>         0.1094
     36 H11        -3.1205   -4.7280    0.3835 H         1 <0>         0.0526
     37 H12        -4.6416   -3.8415    0.6458 H         1 <0>         0.0633
     38 H13        -5.0307   -6.0661   -0.1323 H         1 <0>         0.3920
     39 H14         4.0339   -1.0696    0.8514 H         1 <0>         0.0902
     40 H15         4.0169   -1.0601   -0.9353 H         1 <0>         0.0898
     41 H16         5.3539    0.7973    0.8500 H         1 <0>         0.0949
     42 H17         5.3368    0.8068   -0.9391 H         1 <0>         0.0945
     43 H18         5.6110    4.5286   -0.0272 H         1 <0>         0.4063
@<TRIPOS>BOND
     1    1    6 ar
     2    1    2 ar
     3    1   26 1
     4    2    3 ar
     5    2   27 1
     6    3   23 1
     7    3    4 ar
     8    4    5 ar
     9    4   21 1
    10    5    6 ar
    11    5   28 1
    12    6    7 1
    13    7   11 1
    14    7    8 2
    15    8    9 1
    16    8   29 1
    17    9   10 1
    18    9   18 1
    19   10   11 2
    20   11   12 1
    21   12   17 ar
    22   12   13 ar
    23   13   14 ar
    24   13   30 1
    25   14   15 ar
    26   14   31 1
    27   15   16 ar
    28   16   17 ar
    29   16   32 1
    30   17   33 1
    31   18   19 1
    32   18   34 1
    33   18   35 1
    34   19   20 1
    35   19   36 1
    36   19   37 1
    37   20   38 1
    38   21   22 1
    39   21   39 1
    40   21   40 1
    41   22   23 1
    42   22   41 1
    43   22   42 1
    44   23   24 2
    45   24   25 1
    46   25   43 1
@<TRIPOS>MOLECULE
ZINC34640412
   43    46     0     0     0
SMALL
USER_CHARGES

@<TRIPOS>ATOM
      1 C1         -0.0168    1.3908    0.0097 C.ar      1 <0>        -0.1137
      2 C2          1.1640    2.0945    0.0022 C.ar      1 <0>        -0.0615
      3 C3          2.3915    1.4155   -0.0131 C.ar      1 <0>        -0.1185
      4 C4          2.4067    0.0213   -0.0207 C.ar      1 <0>        -0.0624
      5 C5          1.2202   -0.6823   -0.0128 C.ar      1 <0>        -0.1089
      6 C6          0.0021   -0.0041    0.0020 C.ar      1 <0>         0.0206
      7 C7         -1.2706   -0.7638    0.0101 C.2       1 <0>        -0.1874
      8 C8         -1.6067   -1.7834   -0.8305 C.2       1 <0>         0.0824
      9 N1         -2.8430   -2.2046   -0.4953 N.pl3     1 <0>        -0.3601
     10 N2         -3.2973   -1.4333    0.5811 N.2       1 <0>        -0.2713
     11 C9         -2.3595   -0.5675    0.8976 C.2       1 <0>         0.1267
     12 C10        -2.4294    0.4371    1.9856 C.ar      1 <0>         0.0291
     13 C11        -1.2876    0.7907    2.7112 C.ar      1 <0>        -0.1420
     14 C12        -1.3973    1.7300    3.7155 C.ar      1 <0>         0.1016
     15 N3         -2.5584    2.2914    3.9939 N.ar      1 <0>        -0.4790
     16 C13        -3.6592    1.9862    3.3336 C.ar      1 <0>         0.1000
     17 C14        -3.6377    1.0612    2.3104 C.ar      1 <0>        -0.1464
     18 C15        -3.5856   -3.2858   -1.1477 C.3       1 <0>         0.1339
     19 C16        -4.0072   -4.3190   -0.1009 C.3       1 <0>         0.0660
     20 O1         -4.7315   -5.3737   -0.7373 O.3       1 <0>        -0.5704
     21 C17         3.8344   -0.4704   -0.0369 C.3       1 <0>        -0.0822
     22 C18         4.7229    0.7809   -0.0387 C.3       1 <0>        -0.0655
     23 C19         3.7677    1.9494   -0.0234 C.2       1 <0>         0.1714
     24 N4          4.0975    3.2008   -0.0199 N.2       1 <0>        -0.3247
     25 O2          3.0922    4.1979   -0.0050 O.3       1 <0>        -0.4048
     26 H1         -0.9593    1.9179    0.0260 H         1 <0>         0.1239
     27 H2          1.1467    3.1743    0.0078 H         1 <0>         0.1336
     28 H3          1.2348   -1.7622   -0.0190 H         1 <0>         0.1262
     29 H4         -0.9922   -2.1825   -1.6239 H         1 <0>         0.1839
     30 H5         -0.3341    0.3349    2.4889 H         1 <0>         0.1376
     31 H6         -0.5211    2.0093    4.2817 H         1 <0>         0.1589
     32 H7         -4.5887    2.4700    3.5950 H         1 <0>         0.1599
     33 H8         -4.5417    0.8195    1.7710 H         1 <0>         0.1385
     34 H9         -4.4723   -2.8769   -1.6322 H         1 <0>         0.0983
     35 H10        -2.9512   -3.7633   -1.8945 H         1 <0>         0.1093
     36 H11        -3.1205   -4.7280    0.3835 H         1 <0>         0.0526
     37 H12        -4.6416   -3.8415    0.6458 H         1 <0>         0.0633
     38 H13        -5.0307   -6.0661   -0.1323 H         1 <0>         0.3920
     39 H14         4.0339   -1.0696    0.8514 H         1 <0>         0.0925
     40 H15         4.0169   -1.0601   -0.9353 H         1 <0>         0.0921
     41 H16         5.3539    0.7973    0.8500 H         1 <0>         0.1008
     42 H17         5.3368    0.8068   -0.9391 H         1 <0>         0.1004
     43 H18         3.4350    5.1021   -0.0034 H         1 <0>         0.4033
@<TRIPOS>BOND
     1    1    6 ar
     2    1    2 ar
     3    1   26 1
     4    2    3 ar
     5    2   27 1
     6    3   23 1
     7    3    4 ar
     8    4    5 ar
     9    4   21 1
    10    5    6 ar
    11    5   28 1
    12    6    7 1
    13    7   11 1
    14    7    8 2
    15    8    9 1
    16    8   29 1
    17    9   10 1
    18    9   18 1
    19   10   11 2
    20   11   12 1
    21   12   17 ar
    22   12   13 ar
    23   13   14 ar
    24   13   30 1
    25   14   15 ar
    26   14   31 1
    27   15   16 ar
    28   16   17 ar
    29   16   32 1
    30   17   33 1
    31   18   19 1
    32   18   34 1
    33   18   35 1
    34   19   20 1
    35   19   36 1
    36   19   37 1
    37   20   38 1
    38   21   22 1
    39   21   39 1
    40   21   40 1
    41   22   23 1
    42   22   41 1
    43   22   42 1
    44   23   24 2
    45   24   25 1
    46   25   43 1
@<TRIPOS>MOLECULE
ZINC18710085
   53    57     0     0     0
SMALL
USER_CHARGES

@<TRIPOS>ATOM
      1 C1          0.0890    1.3306    0.4873 C.3       1 <0>         0.0749
      2 N1          0.4081   -0.0534    0.1284 N.pl3     1 <0>        -0.5085
      3 C2          0.3528   -0.6077   -1.1416 C.ar      1 <0>         0.0507
      4 C3          0.0137   -0.1123   -2.3916 C.ar      1 <0>        -0.0838
      5 C4          0.0591   -0.9388   -3.4947 C.ar      1 <0>        -0.1077
      6 C5          0.4436   -2.2696   -3.3617 C.ar      1 <0>         0.0751
      7 C6          0.7843   -2.7778   -2.1231 C.ar      1 <0>        -0.0835
      8 C7          0.7420   -1.9496   -0.9988 C.ar      1 <0>         0.0911
      9 N2          1.0108   -2.1503    0.3180 N.2       1 <0>        -0.5208
     10 C8          0.8212   -1.0367    0.9810 C.2       1 <0>         0.5369
     11 N3          1.0073   -0.8814    2.3399 N.pl3     1 <0>        -0.6412
     12 C9          1.5328   -1.9319    3.0980 C.ar      1 <0>         0.2053
     13 C10         2.3998   -2.8463    2.5135 C.ar      1 <0>        -0.1275
     14 C11         2.9176   -3.8826    3.2654 C.ar      1 <0>        -0.0424
     15 C12         2.5735   -4.0107    4.5987 C.ar      1 <0>        -0.2053
     16 C13         1.7106   -3.1021    5.1837 C.ar      1 <0>        -0.0432
     17 C14         1.1938   -2.0602    4.4389 C.ar      1 <0>        -0.1549
     18 C15         3.1396   -5.1433    5.4158 C.3       1 <0>         0.5100
     19 F1          4.3412   -4.7372    6.0062 F         1 <0>        -0.1771
     20 F2          2.2267   -5.5000    6.4140 F         1 <0>        -0.1778
     21 F3          3.3767   -6.2442    4.5857 F         1 <0>        -0.1766
     22 O1          0.4838   -3.0743   -4.4569 O.3       1 <0>        -0.2390
     23 C16        -0.5198   -3.9726   -4.6248 C.ar      1 <0>         0.1693
     24 C17        -1.5519   -4.0724   -3.6928 C.ar      1 <0>        -0.2330
     25 C18        -2.5577   -4.9965   -3.8940 C.ar      1 <0>         0.1462
     26 N4         -2.5549   -5.7828   -4.9518 N.ar      1 <0>        -0.5008
     27 C19        -1.5918   -5.7224   -5.8653 C.ar      1 <0>         0.2185
     28 C20        -0.5464   -4.8114   -5.7333 C.ar      1 <0>        -0.1453
     29 C21        -1.6332   -6.6264   -7.0353 C.2       1 <0>         0.2951
     30 N5         -2.5993   -7.5546   -7.2938 N.pl3     1 <0>        -0.5196
     31 H1         -3.3797   -7.7419   -6.7491 H         1 <0>         0.4364
     32 C22        -2.2593   -8.1700   -8.4662 C.2       1 <0>        -0.1211
     33 C23        -1.1072   -7.6076   -8.8883 C.2       1 <0>         0.0664
     34 N6         -0.7487   -6.6689   -8.0066 N.2       1 <0>        -0.4582
     35 C24        -3.0256   -9.2688   -9.1565 C.3       1 <0>         0.5516
     36 F4         -3.9502   -8.7065  -10.0431 F         1 <0>        -0.1675
     37 F5         -2.1361  -10.0835   -9.8651 F         1 <0>        -0.1592
     38 F6         -3.7018  -10.0363   -8.2021 F         1 <0>        -0.1759
     39 H2          0.9883    1.9420    0.4122 H         1 <0>         0.0804
     40 H3         -0.6705    1.7164   -0.1926 H         1 <0>         0.0932
     41 H4         -0.2881    1.3632    1.5095 H         1 <0>         0.0841
     42 H5         -0.2858    0.9195   -2.5011 H         1 <0>         0.1337
     43 H6         -0.2058   -0.5511   -4.4673 H         1 <0>         0.1432
     44 H7          1.0819   -3.8113   -2.0243 H         1 <0>         0.1405
     45 H8          0.7733   -0.0434    2.7688 H         1 <0>         0.4223
     46 H9          2.6684   -2.7473    1.4722 H         1 <0>         0.1551
     47 H10         3.5917   -4.5939    2.8116 H         1 <0>         0.1402
     48 H11         1.4439   -3.2049    6.2251 H         1 <0>         0.1410
     49 H12         0.5234   -1.3483    4.8975 H         1 <0>         0.1374
     50 H13        -1.5643   -3.4335   -2.8221 H         1 <0>         0.1469
     51 H14        -3.3584   -5.0766   -3.1737 H         1 <0>         0.1687
     52 H15         0.2337   -4.7602   -6.4784 H         1 <0>         0.1618
     53 H16        -0.5687   -7.8687   -9.7873 H         1 <0>         0.1936
@<TRIPOS>BOND
     1    1    2 1
     2    1   39 1
     3    1   40 1
     4    1   41 1
     5    2   10 1
     6    2    3 1
     7    3    8 ar
     8    3    4 ar
     9    4    5 ar
    10    4   42 1
    11    5    6 ar
    12    5   43 1
    13    6    7 ar
    14    6   22 1
    15    7    8 ar
    16    7   44 1
    17    8    9 1
    18    9   10 2
    19   10   11 1
    20   11   12 1
    21   11   45 1
    22   12   17 ar
    23   12   13 ar
    24   13   14 ar
    25   13   46 1
    26   14   15 ar
    27   14   47 1
    28   15   16 ar
    29   15   18 1
    30   16   17 ar
    31   16   48 1
    32   17   49 1
    33   18   19 1
    34   18   20 1
    35   18   21 1
    36   22   23 1
    37   23   28 ar
    38   23   24 ar
    39   24   25 ar
    40   24   50 1
    41   25   26 ar
    42   25   51 1
    43   26   27 ar
    44   27   28 ar
    45   27   29 1
    46   28   52 1
    47   29   34 2
    48   29   30 1
    49   30   31 1
    50   30   32 1
    51   32   33 2
    52   32   35 1
    53   33   34 1
    54   33   53 1
    55   35   36 1
    56   35   37 1
    57   35   38 1
@<TRIPOS>MOLECULE
ZINC18710082
   51    54     0     0     0
SMALL
USER_CHARGES
N-(3,3-dimethylindolin-6-yl)-2-(4-pyridylmethylamino)pyridine-3-carboxamide
@<TRIPOS>ATOM
      1 C1         -0.1736   12.3280    1.7993 C.3       1 <0>        -0.1353
      2 C2          0.1708   11.8132    0.4003 C.3       1 <0>        -0.0256
      3 C3         -1.0658   11.8695   -0.5114 C.3       1 <0>         0.1234
      4 N1         -1.3159   10.4807   -0.9061 N.pl3     1 <0>        -0.7429
      5 C4         -0.3660    9.6387   -0.3256 C.ar      1 <0>         0.2160
      6 C5          0.5375   10.3468    0.4531 C.ar      1 <0>        -0.1735
      7 C6          1.5592    9.6928    1.1152 C.ar      1 <0>        -0.0387
      8 C7          1.6921    8.3220    1.0083 C.ar      1 <0>        -0.1957
      9 C8          0.7942    7.6005    0.2318 C.ar      1 <0>         0.1856
     10 C9         -0.2273    8.2550   -0.4368 C.ar      1 <0>        -0.1821
     11 N2          0.9251    6.2127    0.1203 N.am      1 <0>        -0.6647
     12 C10        -0.1735    5.4372    0.0302 C.2       1 <0>         0.5789
     13 O1         -1.2750    5.9485   -0.0352 O.2       1 <0>        -0.5287
     14 C11        -0.0401    3.9694    0.0111 C.ar      1 <0>        -0.2727
     15 C12         1.2239    3.3691   -0.0284 C.ar      1 <0>         0.0067
     16 C13         1.2952    1.9877   -0.0446 C.ar      1 <0>        -0.2460
     17 C14         0.1281    1.2446   -0.0215 C.ar      1 <0>         0.1889
     18 N3         -1.0535    1.8288    0.0102 N.ar      1 <0>        -0.5475
     19 C15        -1.1794    3.1469    0.0326 C.ar      1 <0>         0.4585
     20 N4         -2.4385    3.7170    0.0712 N.pl3     1 <0>        -0.6966
     21 C16        -3.6235    2.8669    0.2103 C.3       1 <0>         0.1646
     22 C17        -4.8603    3.7278    0.2259 C.ar      1 <0>        -0.0635
     23 C18        -5.3699    4.2164    1.4192 C.ar      1 <0>        -0.1527
     24 C19        -6.5037    5.0063    1.3940 C.ar      1 <0>         0.0990
     25 N5         -7.1042    5.2881    0.2543 N.ar      1 <0>        -0.4796
     26 C20        -6.6504    4.8370   -0.8988 C.ar      1 <0>         0.0984
     27 C21        -5.5189    4.0453   -0.9522 C.ar      1 <0>        -0.1533
     28 C22         1.3163   12.6286   -0.2029 C.3       1 <0>        -0.1347
     29 H1          0.6875   12.2011    2.4554 H         1 <0>         0.0611
     30 H2         -0.4352   13.3847    1.7435 H         1 <0>         0.0600
     31 H3         -1.0186   11.7650    2.1958 H         1 <0>         0.0571
     32 H4         -0.8602   12.4810   -1.3900 H         1 <0>         0.0683
     33 H5         -1.9215   12.2676    0.0338 H         1 <0>         0.0682
     34 H6         -2.0366   10.1891   -1.4861 H         1 <0>         0.4122
     35 H7          2.2565   10.2556    1.7181 H         1 <0>         0.1233
     36 H8          2.4915    7.8130    1.5263 H         1 <0>         0.1249
     37 H9         -0.9211    7.6916   -1.0433 H         1 <0>         0.1338
     38 H10         1.8066    5.8081    0.1078 H         1 <0>         0.4114
     39 H11         2.1214    3.9696   -0.0455 H         1 <0>         0.1354
     40 H12         2.2547    1.4928   -0.0753 H         1 <0>         0.1405
     41 H13         0.1860    0.1663   -0.0342 H         1 <0>         0.1633
     42 H14        -2.5372    4.6797    0.0061 H         1 <0>         0.4269
     43 H15        -3.6739    2.1736   -0.6293 H         1 <0>         0.0815
     44 H16        -3.5601    2.3050    1.1421 H         1 <0>         0.0787
     45 H17        -4.8851    3.9853    2.3562 H         1 <0>         0.1361
     46 H18        -6.9051    5.3935    2.3188 H         1 <0>         0.1583
     47 H19        -7.1692    5.0889   -1.8119 H         1 <0>         0.1582
     48 H20        -5.1525    3.6783   -1.8995 H         1 <0>         0.1363
     49 H21         1.5192   12.2770   -1.2145 H         1 <0>         0.0571
     50 H22         1.0360   13.6815   -0.2335 H         1 <0>         0.0599
     51 H23         2.2099   12.5082    0.4097 H         1 <0>         0.0612
@<TRIPOS>BOND
     1    1    2 1
     2    1   29 1
     3    1   30 1
     4    1   31 1
     5    2    6 1
     6    2    3 1
     7    2   28 1
     8    3    4 1
     9    3   32 1
    10    3   33 1
    11    4    5 1
    12    4   34 1
    13    5   10 ar
    14    5    6 ar
    15    6    7 ar
    16    7    8 ar
    17    7   35 1
    18    8    9 ar
    19    8   36 1
    20    9   10 ar
    21    9   11 1
    22   10   37 1
    23   11   12 am
    24   11   38 1
    25   12   13 2
    26   12   14 1
    27   14   19 ar
    28   14   15 ar
    29   15   16 ar
    30   15   39 1
    31   16   17 ar
    32   16   40 1
    33   17   18 ar
    34   17   41 1
    35   18   19 ar
    36   19   20 1
    37   20   21 1
    38   20   42 1
    39   21   22 1
    40   21   43 1
    41   21   44 1
    42   22   27 ar
    43   22   23 ar
    44   23   24 ar
    45   23   45 1
    46   24   25 ar
    47   24   46 1
    48   25   26 ar
    49   26   27 ar
    50   26   47 1
    51   27   48 1
    52   28   49 1
    53   28   50 1
    54   28   51 1
@<TRIPOS>MOLECULE
ZINC03963016
   42    46     0     0     0
SMALL
USER_CHARGES
3-(morpholinoBLAHyl)phenol
@<TRIPOS>ATOM
      1 C1         -1.2199    1.7485    0.0174 C.ar      1 <0>        -0.1114
      2 C2         -1.2454    3.1288    0.0308 C.ar      1 <0>        -0.0774
      3 C3         -0.0514    3.8476    0.0228 C.ar      1 <0>        -0.0316
      4 C4          1.1652    3.1691    0.0075 C.ar      1 <0>        -0.0947
      5 C5          1.1814    1.7842    0.0004 C.ar      1 <0>         0.0969
      6 C6         -0.0126    1.0758    0.0080 C.ar      1 <0>        -0.1204
      7 O1          2.3662    1.1187   -0.0145 O.3       1 <0>        -0.4955
      8 C7         -0.0760    5.3307    0.0300 C.ar      1 <0>         0.3845
      9 N1          1.0710    5.9932    0.0217 N.ar      1 <0>        -0.4874
     10 C8          1.0827    7.3220    0.0274 C.ar      1 <0>         0.1715
     11 C9          2.1340    8.3518    0.0216 C.ar      1 <0>        -0.1770
     12 C10         3.5264    8.3236    0.0080 C.ar      1 <0>         0.0114
     13 C11         4.2037    9.5307    0.0066 C.ar      1 <0>        -0.1955
     14 C12         3.4805   10.7116    0.0188 C.ar      1 <0>         0.1704
     15 N2          2.1641   10.7119    0.0316 N.ar      1 <0>        -0.4762
     16 C13         1.4636    9.5855    0.0336 C.ar      1 <0>         0.3115
     17 O2          0.1349    9.3460    0.0455 O.3       1 <0>        -0.1672
     18 C14        -0.1299    8.0233    0.0423 C.ar      1 <0>        -0.0415
     19 C15        -1.3182    7.2817    0.0506 C.ar      1 <0>         0.4009
     20 N3         -1.2469    5.9562    0.0390 N.ar      1 <0>        -0.5158
     21 N4         -2.5483    7.9214    0.0658 N.pl3     1 <0>        -0.4671
     22 C16        -2.6536    8.8336    1.2139 C.3       1 <0>         0.0181
     23 C17        -3.9995    9.5613    1.1590 C.3       1 <0>         0.0659
     24 O3         -5.0560    8.5977    1.1343 O.3       1 <0>        -0.3796
     25 C18        -4.9848    7.6934    0.0286 C.3       1 <0>         0.0595
     26 C19        -3.6490    6.9468    0.0722 C.3       1 <0>         0.0258
     27 H1         -2.1460    1.1928    0.0184 H         1 <0>         0.1359
     28 H2         -2.1904    3.6515    0.0423 H         1 <0>         0.1394
     29 H3          2.0932    3.7215    0.0009 H         1 <0>         0.1435
     30 H4          0.0021   -0.0041    0.0020 H         1 <0>         0.1341
     31 H5          2.7007    0.9308   -0.9022 H         1 <0>         0.3927
     32 H6          4.0626    7.3862   -0.0010 H         1 <0>         0.1508
     33 H7          5.2835    9.5514   -0.0034 H         1 <0>         0.1556
     34 H8          4.0084   11.6537    0.0174 H         1 <0>         0.1815
     35 H9         -2.5862    8.2625    2.1399 H         1 <0>         0.0633
     36 H10        -1.8440    9.5623    1.1753 H         1 <0>         0.1014
     37 H11        -4.0451   10.1746    0.2590 H         1 <0>         0.0678
     38 H12        -4.1066   10.1965    2.0382 H         1 <0>         0.1107
     39 H13        -5.0591    8.2524   -0.9042 H         1 <0>         0.0641
     40 H14        -5.8042    6.9772    0.0900 H         1 <0>         0.1096
     41 H15        -3.5659    6.2983   -0.8000 H         1 <0>         0.1026
     42 H16        -3.5970    6.3450    0.9795 H         1 <0>         0.0691
@<TRIPOS>BOND
     1    1    6 ar
     2    1    2 ar
     3    1   27 1
     4    2    3 ar
     5    2   28 1
     6    3    4 ar
     7    3    8 1
     8    4    5 ar
     9    4   29 1
    10    5    6 ar
    11    5    7 1
    12    6   30 1
    13    7   31 1
    14    8   20 ar
    15    8    9 ar
    16    9   10 ar
    17   10   18 ar
    18   10   11 1
    19   11   16 ar
    20   11   12 ar
    21   12   13 ar
    22   12   32 1
    23   13   14 ar
    24   13   33 1
    25   14   15 ar
    26   14   34 1
    27   15   16 ar
    28   16   17 1
    29   17   18 1
    30   18   19 ar
    31   19   20 ar
    32   19   21 1
    33   21   26 1
    34   21   22 1
    35   22   23 1
    36   22   35 1
    37   22   36 1
    38   23   24 1
    39   23   37 1
    40   23   38 1
    41   24   25 1
    42   25   26 1
    43   25   39 1
    44   25   40 1
    45   26   41 1
    46   26   42 1
@<TRIPOS>MOLECULE
ZINC23247639
   69    72     0     0     0
SMALL
USER_CHARGES
1-[4-[(4-ethylpiperazin-1-yl)methyl]-3-(trifluoromethyl)phenyl]-3-[4-(6-methylaminopyrimidin-4-yl)oxyphenyl]urea
@<TRIPOS>ATOM
      1 C1          8.9417    3.3719    8.2172 C.3       1 <0>        -0.1901
      2 C2         10.1498    2.9102    7.3997 C.3       1 <0>        -0.0070
      3 N1          9.9972    3.3533    6.0075 N.4       1 <0>        -0.4011
      4 C3         11.2367    3.1387    5.2477 C.3       1 <0>         0.0016
      5 C4         11.0629    3.6845    3.8284 C.3       1 <0>         0.0271
      6 N2          9.9288    3.0094    3.1822 N.3       1 <0>        -0.5300
      7 C5          8.6893    3.2240    3.9420 C.3       1 <0>         0.0232
      8 C6          8.8631    2.6781    5.3612 C.3       1 <0>        -0.0016
      9 C7          9.7762    3.4524    1.7899 C.3       1 <0>         0.0786
     10 C8          8.7879    2.5601    1.0842 C.ar      1 <0>        -0.0666
     11 C9          7.5022    3.0092    0.8434 C.ar      1 <0>        -0.0932
     12 C10         6.5958    2.1959    0.1923 C.ar      1 <0>        -0.0888
     13 C11         6.9731    0.9214   -0.2106 C.ar      1 <0>         0.1880
     14 C12         8.2646    0.4735    0.0326 C.ar      1 <0>        -0.1043
     15 C13         9.1683    1.2940    0.6793 C.ar      1 <0>        -0.1369
     16 C14        10.5702    0.8086    0.9441 C.3       1 <0>         0.5111
     17 F1         10.7250   -0.4786    0.4184 F         1 <0>        -0.1776
     18 F2         11.4860    1.6739    0.3362 F         1 <0>        -0.1774
     19 F3         10.8008    0.7797    2.3237 F         1 <0>        -0.1628
     20 N3          6.0552    0.0926   -0.8655 N.am      1 <0>        -0.6979
     21 C15         4.7513    0.1311   -0.5266 C.2       1 <0>         0.7117
     22 O1          4.3858    0.8194    0.4067 O.2       1 <0>        -0.5623
     23 N4          3.8526   -0.5934   -1.2222 N.am      1 <0>        -0.6900
     24 C16         2.4863   -0.4790   -0.9335 C.ar      1 <0>         0.1635
     25 C17         1.5516   -0.5518   -1.9576 C.ar      1 <0>        -0.1265
     26 C18         0.2052   -0.4394   -1.6724 C.ar      1 <0>        -0.0923
     27 C19        -0.2137   -0.2543   -0.3628 C.ar      1 <0>         0.0841
     28 C20         0.7198   -0.1815    0.6609 C.ar      1 <0>        -0.0957
     29 C21         2.0665   -0.2932    0.3769 C.ar      1 <0>        -0.1058
     30 O2         -1.5393   -0.1385   -0.0833 O.3       1 <0>        -0.2424
     31 C22        -2.3129   -1.2454   -0.1983 C.ar      1 <0>         0.3836
     32 C23        -3.6894   -1.1637   -0.0277 C.ar      1 <0>        -0.3134
     33 C24        -4.4409   -2.3284   -0.1601 C.ar      1 <0>         0.4631
     34 N5         -3.8165   -3.4721   -0.4341 N.ar      1 <0>        -0.5936
     35 C25        -2.5082   -3.5081   -0.5840 C.ar      1 <0>         0.3760
     36 N6         -1.7644   -2.4263   -0.4707 N.ar      1 <0>        -0.6039
     37 N7         -5.8178   -2.2988   -0.0034 N.pl3     1 <0>        -0.7218
     38 C26        -6.4937   -1.0344    0.2979 C.3       1 <0>         0.0891
     39 H1          9.0560    3.0401    9.2597 H         1 <0>         0.1066
     40 H2          8.0243    2.9380    7.7928 H         1 <0>         0.0798
     41 H3          8.8763    4.4695    8.1868 H         1 <0>         0.0803
     42 H4         11.0672    3.3441    7.8241 H         1 <0>         0.1306
     43 H5         10.2153    1.8126    7.4301 H         1 <0>         0.1269
     44 H6         12.0665    3.6630    5.7442 H         1 <0>         0.1361
     45 H7         11.4577    2.0621    5.2031 H         1 <0>         0.1357
     46 H8         10.8699    4.7665    3.8728 H         1 <0>         0.0625
     47 H9         11.9796    3.4990    3.2494 H         1 <0>         0.1239
     48 H10         8.4684    4.3007    3.9867 H         1 <0>         0.0621
     49 H11         7.8594    2.6998    3.4455 H         1 <0>         0.1239
     50 H12         9.0569    1.5962    5.3178 H         1 <0>         0.1351
     51 H13         7.9470    2.8635    5.9412 H         1 <0>         0.1359
     52 H14         9.4106    4.4897    1.7732 H         1 <0>         0.0663
     53 H15        10.7489    3.3982    1.2791 H         1 <0>         0.1073
     54 H16         7.2082    3.9988    1.1607 H         1 <0>         0.1358
     55 H17         5.5933    2.5489    0.0003 H         1 <0>         0.1466
     56 H18         8.5625   -0.5152   -0.2838 H         1 <0>         0.1447
     57 H19         6.3979   -0.5903   -1.6569 H         1 <0>         0.4387
     58 H20         4.1917   -1.2745   -2.0166 H         1 <0>         0.4355
     59 H21         1.8775   -0.6959   -2.9771 H         1 <0>         0.1334
     60 H22        -0.5220   -0.4960   -2.4689 H         1 <0>         0.1303
     61 H23         0.3932   -0.0371    1.6801 H         1 <0>         0.1327
     62 H24         2.7931   -0.2369    1.1740 H         1 <0>         0.1442
     63 H25        -4.1646   -0.2205    0.1982 H         1 <0>         0.1466
     64 H26        -2.0315   -4.4515   -0.8058 H         1 <0>         0.2000
     65 H27        -6.4030   -3.2246   -0.1053 H         1 <0>         0.4376
     66 H28        -7.5762   -1.2091    0.3856 H         1 <0>         0.0864
     67 H29        -6.3028   -0.3146   -0.5117 H         1 <0>         0.0603
     68 H30        -6.1096   -0.6302    1.2461 H         1 <0>         0.0599
     69 H31         9.7882    4.4332    6.0188 H         1 <0>         0.4364
@<TRIPOS>BOND
     1    1    2 1
     2    1   39 1
     3    1   40 1
     4    1   41 1
     5    2    3 1
     6    2   42 1
     7    2   43 1
     8    3    8 1
     9    3    4 1
    10    3   69 1
    11    4    5 1
    12    4   44 1
    13    4   45 1
    14    5    6 1
    15    5   46 1
    16    5   47 1
    17    6    7 1
    18    6    9 1
    19    7    8 1
    20    7   48 1
    21    7   49 1
    22    8   50 1
    23    8   51 1
    24    9   10 1
    25    9   52 1
    26    9   53 1
    27   10   15 ar
    28   10   11 ar
    29   11   12 ar
    30   11   54 1
    31   12   13 ar
    32   12   55 1
    33   13   14 ar
    34   13   20 1
    35   14   15 ar
    36   14   56 1
    37   15   16 1
    38   16   17 1
    39   16   18 1
    40   16   19 1
    41   20   21 am
    42   20   57 1
    43   21   22 2
    44   21   23 am
    45   23   24 1
    46   23   58 1
    47   24   29 ar
    48   24   25 ar
    49   25   26 ar
    50   25   59 1
    51   26   27 ar
    52   26   60 1
    53   27   28 ar
    54   27   30 1
    55   28   29 ar
    56   28   61 1
    57   29   62 1
    58   30   31 1
    59   31   36 ar
    60   31   32 ar
    61   32   33 ar
    62   32   63 1
    63   33   34 ar
    64   33   37 1
    65   34   35 ar
    66   35   36 ar
    67   35   64 1
    68   37   38 1
    69   37   65 1
    70   38   66 1
    71   38   67 1
    72   38   68 1
@<TRIPOS>MOLECULE
ZINC23247639
   69    72     0     0     0
SMALL
USER_CHARGES
1-[4-[(4-ethylpiperazin-1-yl)methyl]-3-(trifluoromethyl)phenyl]-3-[4-(6-methylaminopyrimidin-4-yl)oxyphenyl]urea
@<TRIPOS>ATOM
      1 C1          8.9417    3.3719    8.2172 C.3       1 <0>        -0.1569
      2 C2         10.1498    2.9102    7.3997 C.3       1 <0>         0.0486
      3 N1          9.9972    3.3533    6.0075 N.3       1 <0>        -0.5379
      4 C3         11.2367    3.1387    5.2477 C.3       1 <0>         0.0250
      5 C4         11.0629    3.6845    3.8284 C.3       1 <0>         0.0004
      6 N2          9.9288    3.0094    3.1822 N.4       1 <0>        -0.4202
      7 C5          8.6893    3.2240    3.9420 C.3       1 <0>        -0.0009
      8 C6          8.8631    2.6781    5.3612 C.3       1 <0>         0.0222
      9 C7          9.7762    3.4524    1.7899 C.3       1 <0>         0.0266
     10 C8          8.7879    2.5601    1.0842 C.ar      1 <0>        -0.1272
     11 C9          7.5022    3.0092    0.8434 C.ar      1 <0>        -0.0630
     12 C10         6.5958    2.1959    0.1923 C.ar      1 <0>        -0.0846
     13 C11         6.9731    0.9214   -0.2106 C.ar      1 <0>         0.2154
     14 C12         8.2646    0.4735    0.0326 C.ar      1 <0>        -0.0955
     15 C13         9.1683    1.2940    0.6793 C.ar      1 <0>        -0.1507
     16 C14        10.5702    0.8086    0.9441 C.3       1 <0>         0.5109
     17 F1         10.7250   -0.4786    0.4184 F         1 <0>        -0.1491
     18 F2         11.4860    1.6739    0.3362 F         1 <0>        -0.1584
     19 F3         10.8008    0.7797    2.3237 F         1 <0>        -0.1724
     20 N3          6.0552    0.0926   -0.8655 N.am      1 <0>        -0.6988
     21 C15         4.7513    0.1311   -0.5266 C.2       1 <0>         0.7114
     22 O1          4.3858    0.8194    0.4067 O.2       1 <0>        -0.5584
     23 N4          3.8526   -0.5934   -1.2222 N.am      1 <0>        -0.6858
     24 C16         2.4863   -0.4790   -0.9335 C.ar      1 <0>         0.1577
     25 C17         1.5516   -0.5518   -1.9576 C.ar      1 <0>        -0.1240
     26 C18         0.2052   -0.4394   -1.6724 C.ar      1 <0>        -0.0926
     27 C19        -0.2137   -0.2543   -0.3628 C.ar      1 <0>         0.0883
     28 C20         0.7198   -0.1815    0.6609 C.ar      1 <0>        -0.0957
     29 C21         2.0665   -0.2932    0.3769 C.ar      1 <0>        -0.1046
     30 O2         -1.5393   -0.1385   -0.0833 O.3       1 <0>        -0.2426
     31 C22        -2.3129   -1.2454   -0.1983 C.ar      1 <0>         0.3832
     32 C23        -3.6894   -1.1637   -0.0277 C.ar      1 <0>        -0.3126
     33 C24        -4.4409   -2.3284   -0.1601 C.ar      1 <0>         0.4635
     34 N5         -3.8165   -3.4721   -0.4341 N.ar      1 <0>        -0.5931
     35 C25        -2.5082   -3.5081   -0.5840 C.ar      1 <0>         0.3762
     36 N6         -1.7644   -2.4263   -0.4707 N.ar      1 <0>        -0.6049
     37 N7         -5.8178   -2.2988   -0.0034 N.pl3     1 <0>        -0.7212
     38 C26        -6.4937   -1.0344    0.2979 C.3       1 <0>         0.0887
     39 H1          9.0560    3.0401    9.2597 H         1 <0>         0.0714
     40 H2          8.0243    2.9380    7.7928 H         1 <0>         0.0562
     41 H3          8.8763    4.4695    8.1868 H         1 <0>         0.0696
     42 H4         11.0672    3.3441    7.8241 H         1 <0>         0.0895
     43 H5         10.2153    1.8126    7.4301 H         1 <0>         0.0455
     44 H6         12.0665    3.6630    5.7442 H         1 <0>         0.1253
     45 H7         11.4577    2.0621    5.2031 H         1 <0>         0.0582
     46 H8         10.8699    4.7665    3.8728 H         1 <0>         0.1369
     47 H9         11.9796    3.4990    3.2494 H         1 <0>         0.1329
     48 H10         8.4684    4.3007    3.9867 H         1 <0>         0.1355
     49 H11         7.8594    2.6998    3.4455 H         1 <0>         0.1312
     50 H12         9.0569    1.5962    5.3178 H         1 <0>         0.0572
     51 H13         7.9470    2.8635    5.9412 H         1 <0>         0.1266
     52 H14         9.4106    4.4897    1.7732 H         1 <0>         0.1472
     53 H15        10.7489    3.3982    1.2791 H         1 <0>         0.1420
     54 H16         7.2082    3.9988    1.1607 H         1 <0>         0.1512
     55 H17         5.5933    2.5489    0.0003 H         1 <0>         0.1583
     56 H18         8.5625   -0.5152   -0.2838 H         1 <0>         0.1556
     57 H19         6.3979   -0.5903   -1.6569 H         1 <0>         0.4440
     58 H20         4.1917   -1.2745   -2.0166 H         1 <0>         0.4371
     59 H21         1.8775   -0.6959   -2.9771 H         1 <0>         0.1338
     60 H22        -0.5220   -0.4960   -2.4689 H         1 <0>         0.1313
     61 H23         0.3932   -0.0371    1.6801 H         1 <0>         0.1341
     62 H24         2.7931   -0.2369    1.1740 H         1 <0>         0.1440
     63 H25        -4.1646   -0.2205    0.1982 H         1 <0>         0.1470
     64 H26        -2.0315   -4.4515   -0.8058 H         1 <0>         0.2001
     65 H27        -6.4030   -3.2246   -0.1053 H         1 <0>         0.4380
     66 H28        -7.5762   -1.2091    0.3856 H         1 <0>         0.0868
     67 H29        -6.3028   -0.3146   -0.5117 H         1 <0>         0.0604
     68 H30        -6.1096   -0.6302    1.2461 H         1 <0>         0.0603
     69 H31        10.1379    1.9295    3.1711 H         1 <0>         0.4253
@<TRIPOS>BOND
     1    1    2 1
     2    1   39 1
     3    1   40 1
     4    1   41 1
     5    2    3 1
     6    2   42 1
     7    2   43 1
     8    3    8 1
     9    3    4 1
    10    4    5 1
    11    4   44 1
    12    4   45 1
    13    5    6 1
    14    5   46 1
    15    5   47 1
    16    6    7 1
    17    6    9 1
    18    6   69 1
    19    7    8 1
    20    7   48 1
    21    7   49 1
    22    8   50 1
    23    8   51 1
    24    9   10 1
    25    9   52 1
    26    9   53 1
    27   10   15 ar
    28   10   11 ar
    29   11   12 ar
    30   11   54 1
    31   12   13 ar
    32   12   55 1
    33   13   14 ar
    34   13   20 1
    35   14   15 ar
    36   14   56 1
    37   15   16 1
    38   16   17 1
    39   16   18 1
    40   16   19 1
    41   20   21 am
    42   20   57 1
    43   21   22 2
    44   21   23 am
    45   23   24 1
    46   23   58 1
    47   24   29 ar
    48   24   25 ar
    49   25   26 ar
    50   25   59 1
    51   26   27 ar
    52   26   60 1
    53   27   28 ar
    54   27   30 1
    55   28   29 ar
    56   28   61 1
    57   29   62 1
    58   30   31 1
    59   31   36 ar
    60   31   32 ar
    61   32   33 ar
    62   32   63 1
    63   33   34 ar
    64   33   37 1
    65   34   35 ar
    66   35   36 ar
    67   35   64 1
    68   37   38 1
    69   37   65 1
    70   38   66 1
    71   38   67 1
    72   38   68 1
@<TRIPOS>MOLECULE
ZINC23247639
   68    71     0     0     0
SMALL
USER_CHARGES
1-[4-[(4-ethylpiperazin-1-yl)methyl]-3-(trifluoromethyl)phenyl]-3-[4-(6-methylaminopyrimidin-4-yl)oxyphenyl]urea
@<TRIPOS>ATOM
      1 C1          8.9417    3.3719    8.2172 C.3       1 <0>        -0.1510
      2 C2         10.1498    2.9102    7.3997 C.3       1 <0>         0.0499
      3 N1          9.9972    3.3533    6.0075 N.3       1 <0>        -0.5402
      4 C3         11.2367    3.1387    5.2477 C.3       1 <0>         0.0569
      5 C4         11.0629    3.6845    3.8284 C.3       1 <0>         0.0590
      6 N2          9.9288    3.0094    3.1822 N.3       1 <0>        -0.5268
      7 C5          8.6893    3.2240    3.9420 C.3       1 <0>         0.0561
      8 C6          8.8631    2.6781    5.3612 C.3       1 <0>         0.0550
      9 C7          9.7762    3.4524    1.7899 C.3       1 <0>         0.0729
     10 C8          8.7879    2.5601    1.0842 C.ar      1 <0>        -0.0447
     11 C9          7.5022    3.0092    0.8434 C.ar      1 <0>        -0.0942
     12 C10         6.5958    2.1959    0.1923 C.ar      1 <0>        -0.0884
     13 C11         6.9731    0.9214   -0.2106 C.ar      1 <0>         0.1720
     14 C12         8.2646    0.4735    0.0326 C.ar      1 <0>        -0.1038
     15 C13         9.1683    1.2940    0.6793 C.ar      1 <0>        -0.1404
     16 C14        10.5702    0.8086    0.9441 C.3       1 <0>         0.5095
     17 F1         10.7250   -0.4786    0.4184 F         1 <0>        -0.1841
     18 F2         11.4860    1.6739    0.3362 F         1 <0>        -0.1795
     19 F3         10.8008    0.7797    2.3237 F         1 <0>        -0.1519
     20 N3          6.0552    0.0926   -0.8655 N.am      1 <0>        -0.6948
     21 C15         4.7513    0.1311   -0.5266 C.2       1 <0>         0.7096
     22 O1          4.3858    0.8194    0.4067 O.2       1 <0>        -0.5587
     23 N4          3.8526   -0.5934   -1.2222 N.am      1 <0>        -0.6930
     24 C16         2.4863   -0.4790   -0.9335 C.ar      1 <0>         0.1697
     25 C17         1.5516   -0.5518   -1.9576 C.ar      1 <0>        -0.1297
     26 C18         0.2052   -0.4394   -1.6724 C.ar      1 <0>        -0.0930
     27 C19        -0.2137   -0.2543   -0.3628 C.ar      1 <0>         0.0783
     28 C20         0.7198   -0.1815    0.6609 C.ar      1 <0>        -0.0936
     29 C21         2.0665   -0.2932    0.3769 C.ar      1 <0>        -0.1059
     30 O2         -1.5393   -0.1385   -0.0833 O.3       1 <0>        -0.2412
     31 C22        -2.3129   -1.2454   -0.1983 C.ar      1 <0>         0.3851
     32 C23        -3.6894   -1.1637   -0.0277 C.ar      1 <0>        -0.3141
     33 C24        -4.4409   -2.3284   -0.1601 C.ar      1 <0>         0.4620
     34 N5         -3.8165   -3.4721   -0.4341 N.ar      1 <0>        -0.5954
     35 C25        -2.5082   -3.5081   -0.5840 C.ar      1 <0>         0.3753
     36 N6         -1.7644   -2.4263   -0.4707 N.ar      1 <0>        -0.6017
     37 N7         -5.8178   -2.2988   -0.0034 N.pl3     1 <0>        -0.7231
     38 C26        -6.4937   -1.0344    0.2979 C.3       1 <0>         0.0898
     39 H1          9.0560    3.0401    9.2597 H         1 <0>         0.0595
     40 H2          8.0243    2.9380    7.7928 H         1 <0>         0.0547
     41 H3          8.8763    4.4695    8.1868 H         1 <0>         0.0631
     42 H4         11.0672    3.3441    7.8241 H         1 <0>         0.0746
     43 H5         10.2153    1.8126    7.4301 H         1 <0>         0.0335
     44 H6         12.0665    3.6630    5.7442 H         1 <0>         0.0800
     45 H7         11.4577    2.0621    5.2031 H         1 <0>         0.0441
     46 H8         10.8699    4.7665    3.8728 H         1 <0>         0.0445
     47 H9         11.9796    3.4990    3.2494 H         1 <0>         0.0809
     48 H10         8.4684    4.3007    3.9867 H         1 <0>         0.0435
     49 H11         7.8594    2.6998    3.4455 H         1 <0>         0.0808
     50 H12         9.0569    1.5962    5.3178 H         1 <0>         0.0425
     51 H13         7.9470    2.8635    5.9412 H         1 <0>         0.0819
     52 H14         9.4106    4.4897    1.7732 H         1 <0>         0.0550
     53 H15        10.7489    3.3982    1.2791 H         1 <0>         0.0962
     54 H16         7.2082    3.9988    1.1607 H         1 <0>         0.1355
     55 H17         5.5933    2.5489    0.0003 H         1 <0>         0.1427
     56 H18         8.5625   -0.5152   -0.2838 H         1 <0>         0.1409
     57 H19         6.3979   -0.5903   -1.6569 H         1 <0>         0.4343
     58 H20         4.1917   -1.2745   -2.0166 H         1 <0>         0.4332
     59 H21         1.8775   -0.6959   -2.9771 H         1 <0>         0.1323
     60 H22        -0.5220   -0.4960   -2.4689 H         1 <0>         0.1282
     61 H23         0.3932   -0.0371    1.6801 H         1 <0>         0.1328
     62 H24         2.7931   -0.2369    1.1740 H         1 <0>         0.1466
     63 H25        -4.1646   -0.2205    0.1982 H         1 <0>         0.1463
     64 H26        -2.0315   -4.4515   -0.8058 H         1 <0>         0.1996
     65 H27        -6.4030   -3.2246   -0.1053 H         1 <0>         0.4362
     66 H28        -7.5762   -1.2091    0.3856 H         1 <0>         0.0851
     67 H29        -6.3028   -0.3146   -0.5117 H         1 <0>         0.0598
     68 H30        -6.1096   -0.6302    1.2461 H         1 <0>         0.0599
@<TRIPOS>BOND
     1    1    2 1
     2    1   39 1
     3    1   40 1
     4    1   41 1
     5    2    3 1
     6    2   42 1
     7    2   43 1
     8    3    8 1
     9    3    4 1
    10    4    5 1
    11    4   44 1
    12    4   45 1
    13    5    6 1
    14    5   46 1
    15    5   47 1
    16    6    7 1
    17    6    9 1
    18    7    8 1
    19    7   48 1
    20    7   49 1
    21    8   50 1
    22    8   51 1
    23    9   10 1
    24    9   52 1
    25    9   53 1
    26   10   15 ar
    27   10   11 ar
    28   11   12 ar
    29   11   54 1
    30   12   13 ar
    31   12   55 1
    32   13   14 ar
    33   13   20 1
    34   14   15 ar
    35   14   56 1
    36   15   16 1
    37   16   17 1
    38   16   18 1
    39   16   19 1
    40   20   21 am
    41   20   57 1
    42   21   22 2
    43   21   23 am
    44   23   24 1
    45   23   58 1
    46   24   29 ar
    47   24   25 ar
    48   25   26 ar
    49   25   59 1
    50   26   27 ar
    51   26   60 1
    52   27   28 ar
    53   27   30 1
    54   28   29 ar
    55   28   61 1
    56   29   62 1
    57   30   31 1
    58   31   36 ar
    59   31   32 ar
    60   32   33 ar
    61   32   63 1
    62   33   34 ar
    63   33   37 1
    64   34   35 ar
    65   35   36 ar
    66   35   64 1
    67   37   38 1
    68   37   65 1
    69   38   66 1
    70   38   67 1
    71   38   68 1
@<TRIPOS>MOLECULE
ZINC45320555
   64    70     0     0     0
SMALL
USER_CHARGES

@<TRIPOS>ATOM
      1 C1         -0.0187    1.5258    0.0104 C.3       1 <0>        -0.1518
      2 C2          0.0021   -0.0041    0.0020 C.3       1 <0>         0.0803
      3 O1          0.6709   -0.4649   -1.1737 O.3       1 <0>        -0.3633
      4 C3          0.7758   -1.7975   -1.3346 C.2       1 <0>         0.6736
      5 O2          0.3120   -2.5487   -0.4996 O.2       1 <0>        -0.5679
      6 N1          1.3951   -2.2983   -2.4219 N.am      1 <0>        -0.6000
      7 C4          2.0266   -1.5574   -3.5405 C.3       1 <0>         0.1373
      8 H1          1.7082   -0.5156   -3.5764 H         1 <0>         0.1072
      9 C5          1.6029   -2.3414   -4.8039 C.3       1 <0>        -0.1334
     10 C6          1.3247   -3.7740   -4.3024 C.3       1 <0>        -0.1348
     11 C7          1.6122   -3.7209   -2.7800 C.3       1 <0>         0.1593
     12 H2          0.9658   -4.3916   -2.2139 H         1 <0>         0.1097
     13 C8          3.1046   -4.0220   -2.5691 C.3       1 <0>        -0.1305
     14 C9          3.9242   -3.1725   -3.5448 C.3       1 <0>        -0.0482
     15 C10         3.5488   -1.6915   -3.3750 C.3       1 <0>        -0.1276
     16 C11         5.3919   -3.3456   -3.2497 C.2       1 <0>         0.2029
     17 C12         6.2305   -3.8304   -4.1985 C.2       1 <0>        -0.2240
     18 C13         7.5920   -3.9824   -3.9015 C.2       1 <0>         0.1875
     19 N2          8.0497   -3.6581   -2.7140 N.2       1 <0>        -0.4577
     20 C14         7.2319   -3.1793   -1.7712 C.2       1 <0>         0.2830
     21 N3          5.8953   -3.0109   -2.0251 N.pl3     1 <0>        -0.2977
     22 N4          5.2944   -2.4937   -0.8722 N.2       1 <0>        -0.2850
     23 C15         6.2119   -2.3383    0.0630 C.2       1 <0>         0.1693
     24 C16         7.4530   -2.7654   -0.4514 C.2       1 <0>        -0.1872
     25 C17         8.7465   -2.7616    0.2619 C.ar      1 <0>         0.0854
     26 C18         9.5662   -1.6407    0.2201 C.ar      1 <0>        -0.1376
     27 C19        10.7799   -1.6349    0.8889 C.ar      1 <0>        -0.0621
     28 C20        11.1951   -2.7361    1.6053 C.ar      1 <0>        -0.1419
     29 C21        10.3949   -3.8748    1.6652 C.ar      1 <0>         0.1301
     30 C22         9.1577   -3.8952    0.9970 C.ar      1 <0>        -0.1618
     31 C23         8.5773   -5.1599    1.2416 C.2       1 <0>         0.0765
     32 N5          9.3836   -5.8499    1.9963 N.2       1 <0>        -0.2471
     33 N6         10.5288   -5.0948    2.2778 N.pl3     1 <0>        -0.5060
     34 H3         11.2806   -5.3807    2.8200 H         1 <0>         0.4423
     35 C24         5.9753   -1.8143    1.4295 C.ar      1 <0>         0.0243
     36 C25         6.6994   -2.3026    2.5214 C.ar      1 <0>        -0.1411
     37 C26         6.4473   -1.7870    3.7760 C.ar      1 <0>         0.1025
     38 N7          5.5381   -0.8473    3.9519 N.ar      1 <0>        -0.4748
     39 C27         4.8333   -0.3594    2.9490 C.ar      1 <0>         0.1003
     40 C28         5.0259   -0.8141    1.6607 C.ar      1 <0>        -0.1393
     41 H4          1.0039    1.9031    0.0027 H         1 <0>         0.0665
     42 H5         -0.5459    1.8868   -0.8726 H         1 <0>         0.0659
     43 H6         -0.5289    1.8773    0.9072 H         1 <0>         0.0829
     44 H7          0.5293   -0.3651    0.8851 H         1 <0>         0.0681
     45 H8         -1.0205   -0.3814    0.0098 H         1 <0>         0.0672
     46 H9          0.7003   -1.9080   -5.2346 H         1 <0>         0.0778
     47 H10         2.4099   -2.3456   -5.5365 H         1 <0>         0.0851
     48 H11         0.2852   -4.0454   -4.4864 H         1 <0>         0.0785
     49 H12         1.9948   -4.4831   -4.7884 H         1 <0>         0.0864
     50 H13         3.3857   -3.7754   -1.5452 H         1 <0>         0.0889
     51 H14         3.2940   -5.0788   -2.7571 H         1 <0>         0.0811
     52 H15         3.7198   -3.4944   -4.5660 H         1 <0>         0.1142
     53 H16         4.0527   -1.1024   -4.1413 H         1 <0>         0.0791
     54 H17         3.8414   -1.3355   -2.3872 H         1 <0>         0.0887
     55 H18         5.8528   -4.0974   -5.1744 H         1 <0>         0.1696
     56 H19         8.2667   -4.3678   -4.6515 H         1 <0>         0.1835
     57 H20         9.2560   -0.7691   -0.3371 H         1 <0>         0.1239
     58 H21        11.4077   -0.7571    0.8479 H         1 <0>         0.1328
     59 H22        12.1436   -2.7166    2.1214 H         1 <0>         0.1274
     60 H23         7.6231   -5.4980    0.8656 H         1 <0>         0.1827
     61 H24         7.4447   -3.0722    2.3848 H         1 <0>         0.1418
     62 H25         7.0015   -2.1578    4.6256 H         1 <0>         0.1593
     63 H26         4.0989    0.4095    3.1383 H         1 <0>         0.1603
     64 H27         4.4487   -0.4070    0.8438 H         1 <0>         0.1374
@<TRIPOS>BOND
     1    1    2 1
     2    1   41 1
     3    1   42 1
     4    1   43 1
     5    2    3 1
     6    2   44 1
     7    2   45 1
     8    3    4 1
     9    4    5 2
    10    4    6 am
    11    6   11 1
    12    6    7 1
    13    7    8 1
    14    7   15 1
    15    7    9 1
    16    9   10 1
    17    9   46 1
    18    9   47 1
    19   10   11 1
    20   10   48 1
    21   10   49 1
    22   11   12 1
    23   11   13 1
    24   13   14 1
    25   13   50 1
    26   13   51 1
    27   14   15 1
    28   14   16 1
    29   14   52 1
    30   15   53 1
    31   15   54 1
    32   16   21 1
    33   16   17 2
    34   17   18 1
    35   17   55 1
    36   18   19 2
    37   18   56 1
    38   19   20 1
    39   20   24 2
    40   20   21 1
    41   21   22 1
    42   22   23 2
    43   23   24 1
    44   23   35 1
    45   24   25 1
    46   25   30 ar
    47   25   26 ar
    48   26   27 ar
    49   26   57 1
    50   27   28 ar
    51   27   58 1
    52   28   29 ar
    53   28   59 1
    54   29   33 1
    55   29   30 ar
    56   30   31 1
    57   31   32 2
    58   31   60 1
    59   32   33 1
    60   33   34 1
    61   35   40 ar
    62   35   36 ar
    63   36   37 ar
    64   36   61 1
    65   37   38 ar
    66   37   62 1
    67   38   39 ar
    68   39   40 ar
    69   39   63 1
    70   40   64 1
@<TRIPOS>MOLECULE
ZINC01044916
   44    46     0     0     0
SMALL
USER_CHARGES
[3-[(4-fluorophenyl)methyl]-4-methyl-2-oxo-chromen-7-yl] dimethylaminoformate
@<TRIPOS>ATOM
      1 C1          1.0137   -6.8224    0.1766 C.3       1 <0>        -0.1354
      2 C2         -0.3684   -6.2253    0.1128 C.2       1 <0>         0.0313
      3 C3         -0.5602   -4.7735    0.0863 C.ar      1 <0>        -0.1436
      4 C4          0.5341   -3.9016    0.1186 C.ar      1 <0>        -0.0425
      5 C5          0.3276   -2.5529    0.0874 C.ar      1 <0>        -0.1354
      6 C6         -0.9661   -2.0380    0.0344 C.ar      1 <0>         0.1583
      7 C7         -2.0604   -2.8861    0.0015 C.ar      1 <0>        -0.1301
      8 C8         -1.8687   -4.2596    0.0270 C.ar      1 <0>         0.1617
      9 O1         -2.9217   -5.1042   -0.0048 O.3       1 <0>        -0.2666
     10 C9         -2.7530   -6.4355    0.0196 C.2       1 <0>         0.5172
     11 O2         -3.7327   -7.1584   -0.0100 O.2       1 <0>        -0.4540
     12 C10        -1.4703   -7.0188    0.0788 C.2       1 <0>        -0.2123
     13 C11        -1.3226   -8.5183    0.1046 C.3       1 <0>        -0.0234
     14 C12        -1.3308   -8.9993    1.5327 C.ar      1 <0>        -0.0932
     15 C13        -0.1431   -9.1071    2.2320 C.ar      1 <0>        -0.0895
     16 C14        -0.1499   -9.5436    3.5433 C.ar      1 <0>        -0.1537
     17 C15        -1.3456   -9.8829    4.1532 C.ar      1 <0>         0.0976
     18 C16        -2.5340   -9.7796    3.4502 C.ar      1 <0>        -0.1513
     19 C17        -2.5253   -9.3379    2.1407 C.ar      1 <0>        -0.0771
     20 F1         -1.3530  -10.3142    5.4336 F         1 <0>        -0.1394
     21 O3         -1.1552   -0.6934    0.0094 O.3       1 <0>        -0.2995
     22 C18        -1.5520   -0.1101    1.1569 C.2       1 <0>         0.6444
     23 O4         -1.8103   -0.7933    2.1280 O.2       1 <0>        -0.5477
     24 N1         -1.6626    1.2312    1.2279 N.am      1 <0>        -0.5966
     25 C19        -2.0942    1.8655    2.4759 C.3       1 <0>         0.0978
     26 C20        -1.3454    2.0553    0.0589 C.3       1 <0>         0.0777
     27 H1          1.3053   -6.9531    1.2187 H         1 <0>         0.0947
     28 H2          1.0150   -7.7901   -0.3252 H         1 <0>         0.0899
     29 H3          1.7206   -6.1559   -0.3176 H         1 <0>         0.0838
     30 H4          1.5389   -4.2949    0.1641 H         1 <0>         0.1514
     31 H5          1.1723   -1.8802    0.1079 H         1 <0>         0.1455
     32 H6         -3.0599   -2.4793   -0.0437 H         1 <0>         0.1504
     33 H7         -2.1512   -8.9744   -0.4372 H         1 <0>         0.0971
     34 H8         -0.3813   -8.7989   -0.3679 H         1 <0>         0.0956
     35 H9          0.7899   -8.8463    1.7548 H         1 <0>         0.1334
     36 H10         0.7777   -9.6238    4.0907 H         1 <0>         0.1364
     37 H11        -3.4673  -10.0437    3.9250 H         1 <0>         0.1368
     38 H12        -3.4521   -9.2568    1.5922 H         1 <0>         0.1389
     39 H13        -1.2222    2.0874    3.0912 H         1 <0>         0.0634
     40 H14        -2.6237    2.7909    2.2490 H         1 <0>         0.0821
     41 H15        -2.7578    1.1903    3.0161 H         1 <0>         0.0830
     42 H16        -2.2443    2.1955   -0.5415 H         1 <0>         0.0632
     43 H17        -0.9736    3.0255    0.3884 H         1 <0>         0.0799
     44 H18        -0.5824    1.5580   -0.5400 H         1 <0>         0.0798
@<TRIPOS>BOND
     1    1    2 1
     2    1   27 1
     3    1   28 1
     4    1   29 1
     5    2   12 2
     6    2    3 1
     7    3    8 ar
     8    3    4 ar
     9    4    5 ar
    10    4   30 1
    11    5    6 ar
    12    5   31 1
    13    6    7 ar
    14    6   21 1
    15    7    8 ar
    16    7   32 1
    17    8    9 1
    18    9   10 1
    19   10   11 2
    20   10   12 1
    21   12   13 1
    22   13   14 1
    23   13   33 1
    24   13   34 1
    25   14   19 ar
    26   14   15 ar
    27   15   16 ar
    28   15   35 1
    29   16   17 ar
    30   16   36 1
    31   17   18 ar
    32   17   20 1
    33   18   19 ar
    34   18   37 1
    35   19   38 1
    36   21   22 1
    37   22   23 2
    38   22   24 am
    39   24   25 1
    40   24   26 1
    41   25   39 1
    42   25   40 1
    43   25   41 1
    44   26   42 1
    45   26   43 1
    46   26   44 1
@<TRIPOS>MOLECULE
ZINC19632618
   69    73     0     0     0
SMALL
USER_CHARGES

@<TRIPOS>ATOM
      1 C1         -0.1643    1.5374    0.2772 C.3       1 <0>        -0.1166
      2 C2          0.0708    0.1281   -0.2021 C.ar      1 <0>        -0.1228
      3 C3         -0.6192   -0.3521   -1.2987 C.ar      1 <0>        -0.0806
      4 C4         -0.4070   -1.6434   -1.7410 C.ar      1 <0>        -0.1294
      5 C5          0.5017   -2.4641   -1.0837 C.ar      1 <0>         0.1504
      6 C6          1.1965   -1.9850    0.0175 C.ar      1 <0>        -0.1394
      7 C7          0.9852   -0.6852    0.4558 C.ar      1 <0>         0.1826
      8 N1          1.6874   -0.1967    1.5617 N.pl3     1 <0>        -0.6314
      9 C8          2.1285   -1.0695    2.5429 C.ar      1 <0>         0.5659
     10 N2          1.7764   -2.3456    2.4776 N.ar      1 <0>        -0.5577
     11 C9          2.1776   -3.2107    3.3953 C.ar      1 <0>         0.1910
     12 C10         2.9764   -2.7714    4.4364 C.ar      1 <0>        -0.2706
     13 C11         3.3313   -1.4207    4.4789 C.ar      1 <0>         0.2697
     14 N3          2.8950   -0.6087    3.5185 N.ar      1 <0>        -0.5576
     15 C12         4.1856   -0.9008    5.5740 C.ar      1 <0>        -0.1200
     16 C13         4.4510    0.4679    5.6793 C.ar      1 <0>        -0.0267
     17 C14         5.2541    0.9026    6.7193 C.ar      1 <0>        -0.1772
     18 C15         5.7636   -0.0222    7.6129 C.ar      1 <0>         0.1192
     19 N4          5.4957   -1.3077    7.4879 N.ar      1 <0>        -0.4844
     20 C16         4.7320   -1.7677    6.5181 C.ar      1 <0>         0.1336
     21 N5          0.7153   -3.7716   -1.5315 N.am      1 <0>        -0.6649
     22 C17         0.7404   -4.0356   -2.8529 C.2       1 <0>         0.5545
     23 O1          0.4912   -3.1555   -3.6535 O.2       1 <0>        -0.5086
     24 C18         1.0709   -5.3955   -3.3287 C.ar      1 <0>        -0.1216
     25 C19         1.3519   -6.4100   -2.4119 C.ar      1 <0>        -0.0841
     26 C20         1.6592   -7.6771   -2.8626 C.ar      1 <0>        -0.1244
     27 C21         1.6892   -7.9435   -4.2200 C.ar      1 <0>        -0.0692
     28 C22         1.4117   -6.9425   -5.1341 C.ar      1 <0>        -0.0994
     29 C23         1.0978   -5.6724   -4.6966 C.ar      1 <0>        -0.0536
     30 C24         2.0262   -9.3299   -4.7050 C.3       1 <0>         0.0939
     31 N6          0.7933  -10.1196   -4.8258 N.3       1 <0>        -0.5345
     32 C25         0.1866  -10.3538   -3.5078 C.3       1 <0>         0.0185
     33 C26        -1.1228  -11.1262   -3.6823 C.3       1 <0>        -0.0025
     34 N7         -0.8513  -12.4061   -4.3498 N.4       1 <0>        -0.3884
     35 C27        -0.2685  -12.1554   -5.6746 C.3       1 <0>        -0.0024
     36 C28         1.0481  -11.3916   -5.5166 C.3       1 <0>         0.0250
     37 C29        -2.1059  -13.1551   -4.5009 C.3       1 <0>        -0.0460
     38 H1          0.5251    2.2130   -0.2290 H         1 <0>         0.0728
     39 H2         -1.1901    1.8307    0.0540 H         1 <0>         0.0743
     40 H3          0.0021    1.5877    1.3533 H         1 <0>         0.0627
     41 H4         -1.3262    0.2836   -1.8111 H         1 <0>         0.1320
     42 H5         -0.9481   -2.0158   -2.5982 H         1 <0>         0.1349
     43 H6          1.9030   -2.6209    0.5302 H         1 <0>         0.1479
     44 H7          1.8658    0.7534    1.6418 H         1 <0>         0.4260
     45 H8          1.8844   -4.2483    3.3325 H         1 <0>         0.1734
     46 H9          3.3172   -3.4566    5.1985 H         1 <0>         0.1507
     47 H10         4.0401    1.1680    4.9670 H         1 <0>         0.1466
     48 H11         5.4807    1.9525    6.8318 H         1 <0>         0.1437
     49 H12         6.3909    0.3135    8.4254 H         1 <0>         0.1633
     50 H13         4.5316   -2.8268    6.4514 H         1 <0>         0.1617
     51 H14         0.8453   -4.4884   -0.8911 H         1 <0>         0.4084
     52 H15         1.3291   -6.2032   -1.3521 H         1 <0>         0.1294
     53 H16         1.8771   -8.4627   -2.1544 H         1 <0>         0.1265
     54 H17         1.4372   -7.1570   -6.1922 H         1 <0>         0.1340
     55 H18         0.8770   -4.8931   -5.4110 H         1 <0>         0.1424
     56 H19         2.5135   -9.2661   -5.6779 H         1 <0>         0.1008
     57 H20         2.6973   -9.8107   -3.9933 H         1 <0>         0.0595
     58 H21         0.8718  -10.9344   -2.8900 H         1 <0>         0.0618
     59 H22        -0.0167   -9.3975   -3.0259 H         1 <0>         0.1265
     60 H23        -1.5673  -11.3133   -2.7048 H         1 <0>         0.1359
     61 H24        -1.8127  -10.5393   -4.2887 H         1 <0>         0.1379
     62 H25        -0.0795  -13.1056   -6.1741 H         1 <0>         0.1367
     63 H26        -0.9627  -11.5633   -6.2708 H         1 <0>         0.1381
     64 H27         1.4733  -11.1924   -6.5003 H         1 <0>         0.1253
     65 H28         1.7474  -11.9892   -4.9320 H         1 <0>         0.0621
     66 H29        -2.8061  -12.5737   -5.1008 H         1 <0>         0.1233
     67 H30        -1.9046  -14.1049   -4.9963 H         1 <0>         0.1246
     68 H31        -2.5379  -13.3423   -3.5179 H         1 <0>         0.1243
     69 H32        -0.2036  -12.9443   -3.7940 H         1 <0>         0.4222
@<TRIPOS>BOND
     1    1    2 1
     2    1   38 1
     3    1   39 1
     4    1   40 1
     5    2    7 ar
     6    2    3 ar
     7    3    4 ar
     8    3   41 1
     9    4    5 ar
    10    4   42 1
    11    5    6 ar
    12    5   21 1
    13    6    7 ar
    14    6   43 1
    15    7    8 1
    16    8    9 1
    17    8   44 1
    18    9   14 ar
    19    9   10 ar
    20   10   11 ar
    21   11   12 ar
    22   11   45 1
    23   12   13 ar
    24   12   46 1
    25   13   14 ar
    26   13   15 1
    27   15   20 ar
    28   15   16 ar
    29   16   17 ar
    30   16   47 1
    31   17   18 ar
    32   17   48 1
    33   18   19 ar
    34   18   49 1
    35   19   20 ar
    36   20   50 1
    37   21   22 am
    38   21   51 1
    39   22   23 2
    40   22   24 1
    41   24   29 ar
    42   24   25 ar
    43   25   26 ar
    44   25   52 1
    45   26   27 ar
    46   26   53 1
    47   27   28 ar
    48   27   30 1
    49   28   29 ar
    50   28   54 1
    51   29   55 1
    52   30   31 1
    53   30   56 1
    54   30   57 1
    55   31   36 1
    56   31   32 1
    57   32   33 1
    58   32   58 1
    59   32   59 1
    60   33   34 1
    61   33   60 1
    62   33   61 1
    63   34   35 1
    64   34   37 1
    65   34   69 1
    66   35   36 1
    67   35   62 1
    68   35   63 1
    69   36   64 1
    70   36   65 1
    71   37   66 1
    72   37   67 1
    73   37   68 1
@<TRIPOS>MOLECULE
ZINC19632618
   69    73     0     0     0
SMALL
USER_CHARGES

@<TRIPOS>ATOM
      1 C1         -0.1643    1.5374    0.2772 C.3       1 <0>        -0.1179
      2 C2          0.0708    0.1281   -0.2021 C.ar      1 <0>        -0.1195
      3 C3         -0.6192   -0.3521   -1.2987 C.ar      1 <0>        -0.0803
      4 C4         -0.4070   -1.6434   -1.7410 C.ar      1 <0>        -0.1287
      5 C5          0.5017   -2.4641   -1.0837 C.ar      1 <0>         0.1452
      6 C6          1.1965   -1.9850    0.0175 C.ar      1 <0>        -0.1374
      7 C7          0.9852   -0.6852    0.4558 C.ar      1 <0>         0.1839
      8 N1          1.6874   -0.1967    1.5617 N.pl3     1 <0>        -0.6318
      9 C8          2.1285   -1.0695    2.5429 C.ar      1 <0>         0.5654
     10 N2          1.7764   -2.3456    2.4776 N.ar      1 <0>        -0.5590
     11 C9          2.1776   -3.2107    3.3953 C.ar      1 <0>         0.1907
     12 C10         2.9764   -2.7714    4.4364 C.ar      1 <0>        -0.2695
     13 C11         3.3313   -1.4207    4.4789 C.ar      1 <0>         0.2707
     14 N3          2.8950   -0.6087    3.5185 N.ar      1 <0>        -0.5571
     15 C12         4.1856   -0.9008    5.5740 C.ar      1 <0>        -0.1213
     16 C13         4.4510    0.4679    5.6793 C.ar      1 <0>        -0.0264
     17 C14         5.2541    0.9026    6.7193 C.ar      1 <0>        -0.1772
     18 C15         5.7636   -0.0222    7.6129 C.ar      1 <0>         0.1201
     19 N4          5.4957   -1.3077    7.4879 N.ar      1 <0>        -0.4842
     20 C16         4.7320   -1.7677    6.5181 C.ar      1 <0>         0.1342
     21 N5          0.7153   -3.7716   -1.5315 N.am      1 <0>        -0.6603
     22 C17         0.7404   -4.0356   -2.8529 C.2       1 <0>         0.5491
     23 O1          0.4912   -3.1555   -3.6535 O.2       1 <0>        -0.5015
     24 C18         1.0709   -5.3955   -3.3287 C.ar      1 <0>        -0.0938
     25 C19         1.3519   -6.4100   -2.4119 C.ar      1 <0>        -0.0834
     26 C20         1.6592   -7.6771   -2.8626 C.ar      1 <0>        -0.1009
     27 C21         1.6892   -7.9435   -4.2200 C.ar      1 <0>        -0.1382
     28 C22         1.4117   -6.9425   -5.1341 C.ar      1 <0>        -0.0966
     29 C23         1.0978   -5.6724   -4.6966 C.ar      1 <0>        -0.0538
     30 C24         2.0262   -9.3299   -4.7050 C.3       1 <0>         0.0425
     31 N6          0.7933  -10.1196   -4.8258 N.4       1 <0>        -0.3856
     32 C25         0.1989  -10.3052   -3.4955 C.3       1 <0>        -0.0078
     33 C26        -1.0954  -11.1117   -3.6230 C.3       1 <0>         0.0256
     34 N7         -0.7986  -12.4159   -4.2323 N.3       1 <0>        -0.5431
     35 C27        -0.1799  -12.2456   -5.5546 C.3       1 <0>         0.0239
     36 C28         1.1068  -11.4297   -5.4112 C.3       1 <0>        -0.0024
     37 C29        -2.0090  -13.2436   -4.3201 C.3       1 <0>         0.0192
     38 H1          0.5251    2.2130   -0.2290 H         1 <0>         0.0738
     39 H2         -1.1901    1.8307    0.0540 H         1 <0>         0.0752
     40 H3          0.0021    1.5877    1.3533 H         1 <0>         0.0636
     41 H4         -1.3262    0.2836   -1.8111 H         1 <0>         0.1330
     42 H5         -0.9481   -2.0158   -2.5982 H         1 <0>         0.1345
     43 H6          1.9030   -2.6209    0.5302 H         1 <0>         0.1487
     44 H7          1.8658    0.7534    1.6418 H         1 <0>         0.4265
     45 H8          1.8844   -4.2483    3.3325 H         1 <0>         0.1737
     46 H9          3.3172   -3.4566    5.1985 H         1 <0>         0.1513
     47 H10         4.0401    1.1680    4.9670 H         1 <0>         0.1465
     48 H11         5.4807    1.9525    6.8318 H         1 <0>         0.1439
     49 H12         6.3909    0.3135    8.4254 H         1 <0>         0.1636
     50 H13         4.5316   -2.8268    6.4514 H         1 <0>         0.1618
     51 H14         0.8453   -4.4884   -0.8911 H         1 <0>         0.4091
     52 H15         1.3291   -6.2032   -1.3521 H         1 <0>         0.1399
     53 H16         1.8771   -8.4627   -2.1544 H         1 <0>         0.1405
     54 H17         1.4372   -7.1570   -6.1922 H         1 <0>         0.1409
     55 H18         0.8770   -4.8931   -5.4110 H         1 <0>         0.1513
     56 H19         2.5135   -9.2661   -5.6779 H         1 <0>         0.1411
     57 H20         2.6973   -9.8107   -3.9933 H         1 <0>         0.1402
     58 H21         0.8998  -10.8418   -2.8560 H         1 <0>         0.1385
     59 H22        -0.0212   -9.3320   -3.0568 H         1 <0>         0.1352
     60 H23        -1.5289  -11.2624   -2.6343 H         1 <0>         0.1235
     61 H24        -1.8016  -10.5690   -4.2513 H         1 <0>         0.0601
     62 H25         0.0544  -13.2235   -5.9751 H         1 <0>         0.1247
     63 H26        -0.8711  -11.7216   -6.2147 H         1 <0>         0.0606
     64 H27         1.5598  -11.2902   -6.3927 H         1 <0>         0.1372
     65 H28         1.8030  -11.9606   -4.7619 H         1 <0>         0.1392
     66 H29        -2.7542  -12.7340   -4.9308 H         1 <0>         0.0396
     67 H30        -1.7610  -14.2028   -4.7745 H         1 <0>         0.0842
     68 H31        -2.4099  -13.4082   -3.3199 H         1 <0>         0.0844
     69 H32         0.1396   -9.6332   -5.4209 H         1 <0>         0.4206
@<TRIPOS>BOND
     1    1    2 1
     2    1   38 1
     3    1   39 1
     4    1   40 1
     5    2    7 ar
     6    2    3 ar
     7    3    4 ar
     8    3   41 1
     9    4    5 ar
    10    4   42 1
    11    5    6 ar
    12    5   21 1
    13    6    7 ar
    14    6   43 1
    15    7    8 1
    16    8    9 1
    17    8   44 1
    18    9   14 ar
    19    9   10 ar
    20   10   11 ar
    21   11   12 ar
    22   11   45 1
    23   12   13 ar
    24   12   46 1
    25   13   14 ar
    26   13   15 1
    27   15   20 ar
    28   15   16 ar
    29   16   17 ar
    30   16   47 1
    31   17   18 ar
    32   17   48 1
    33   18   19 ar
    34   18   49 1
    35   19   20 ar
    36   20   50 1
    37   21   22 am
    38   21   51 1
    39   22   23 2
    40   22   24 1
    41   24   29 ar
    42   24   25 ar
    43   25   26 ar
    44   25   52 1
    45   26   27 ar
    46   26   53 1
    47   27   28 ar
    48   27   30 1
    49   28   29 ar
    50   28   54 1
    51   29   55 1
    52   30   31 1
    53   30   56 1
    54   30   57 1
    55   31   36 1
    56   31   32 1
    57   31   69 1
    58   32   33 1
    59   32   58 1
    60   32   59 1
    61   33   34 1
    62   33   60 1
    63   33   61 1
    64   34   35 1
    65   34   37 1
    66   35   36 1
    67   35   62 1
    68   35   63 1
    69   36   64 1
    70   36   65 1
    71   37   66 1
    72   37   67 1
    73   37   68 1
@<TRIPOS>MOLECULE
ZINC19632618
   68    72     0     0     0
SMALL
USER_CHARGES

@<TRIPOS>ATOM
      1 C1         -0.1643    1.5374    0.2772 C.3       1 <0>        -0.1139
      2 C2          0.0708    0.1281   -0.2021 C.ar      1 <0>        -0.1276
      3 C3         -0.6192   -0.3521   -1.2987 C.ar      1 <0>        -0.0809
      4 C4         -0.4070   -1.6434   -1.7410 C.ar      1 <0>        -0.1296
      5 C5          0.5017   -2.4641   -1.0837 C.ar      1 <0>         0.1575
      6 C6          1.1965   -1.9850    0.0175 C.ar      1 <0>        -0.1408
      7 C7          0.9852   -0.6852    0.4558 C.ar      1 <0>         0.1805
      8 N1          1.6874   -0.1967    1.5617 N.pl3     1 <0>        -0.6310
      9 C8          2.1285   -1.0695    2.5429 C.ar      1 <0>         0.5658
     10 N2          1.7764   -2.3456    2.4776 N.ar      1 <0>        -0.5548
     11 C9          2.1776   -3.2107    3.3953 C.ar      1 <0>         0.1930
     12 C10         2.9764   -2.7714    4.4364 C.ar      1 <0>        -0.2707
     13 C11         3.3313   -1.4207    4.4789 C.ar      1 <0>         0.2660
     14 N3          2.8950   -0.6087    3.5185 N.ar      1 <0>        -0.5591
     15 C12         4.1856   -0.9008    5.5740 C.ar      1 <0>        -0.1161
     16 C13         4.4510    0.4679    5.6793 C.ar      1 <0>        -0.0277
     17 C14         5.2541    0.9026    6.7193 C.ar      1 <0>        -0.1780
     18 C15         5.7636   -0.0222    7.6129 C.ar      1 <0>         0.1167
     19 N4          5.4957   -1.3077    7.4879 N.ar      1 <0>        -0.4846
     20 C16         4.7320   -1.7677    6.5181 C.ar      1 <0>         0.1331
     21 N5          0.7153   -3.7716   -1.5315 N.am      1 <0>        -0.6684
     22 C17         0.7404   -4.0356   -2.8529 C.2       1 <0>         0.5607
     23 O1          0.4912   -3.1555   -3.6535 O.2       1 <0>        -0.5149
     24 C18         1.0709   -5.3955   -3.3287 C.ar      1 <0>        -0.1367
     25 C19         1.3519   -6.4100   -2.4119 C.ar      1 <0>        -0.0845
     26 C20         1.6592   -7.6771   -2.8626 C.ar      1 <0>        -0.1214
     27 C21         1.6892   -7.9435   -4.2200 C.ar      1 <0>        -0.0481
     28 C22         1.4117   -6.9425   -5.1341 C.ar      1 <0>        -0.1045
     29 C23         1.0978   -5.6724   -4.6966 C.ar      1 <0>        -0.0549
     30 C24         2.0262   -9.3299   -4.7050 C.3       1 <0>         0.0887
     31 N6          0.7933  -10.1196   -4.8258 N.3       1 <0>        -0.5346
     32 C25         0.1854  -10.3517   -3.5082 C.3       1 <0>         0.0528
     33 C26        -1.1341  -11.1069   -3.6840 C.3       1 <0>         0.0560
     34 N7         -0.8794  -12.3787   -4.3748 N.3       1 <0>        -0.5467
     35 C27        -0.2715  -12.1466   -5.6924 C.3       1 <0>         0.0557
     36 C28         1.0481  -11.3914   -5.5165 C.3       1 <0>         0.0569
     37 C29        -2.1122  -13.1683   -4.4955 C.3       1 <0>         0.0243
     38 H1          0.5251    2.2130   -0.2290 H         1 <0>         0.0707
     39 H2         -1.1901    1.8307    0.0540 H         1 <0>         0.0727
     40 H3          0.0021    1.5877    1.3533 H         1 <0>         0.0612
     41 H4         -1.3262    0.2836   -1.8111 H         1 <0>         0.1306
     42 H5         -0.9481   -2.0158   -2.5982 H         1 <0>         0.1361
     43 H6          1.9030   -2.6209    0.5302 H         1 <0>         0.1478
     44 H7          1.8658    0.7534    1.6418 H         1 <0>         0.4247
     45 H8          1.8844   -4.2483    3.3325 H         1 <0>         0.1749
     46 H9          3.3172   -3.4566    5.1985 H         1 <0>         0.1504
     47 H10         4.0401    1.1680    4.9670 H         1 <0>         0.1465
     48 H11         5.4807    1.9525    6.8318 H         1 <0>         0.1424
     49 H12         6.3909    0.3135    8.4254 H         1 <0>         0.1620
     50 H13         4.5316   -2.8268    6.4514 H         1 <0>         0.1624
     51 H14         0.8453   -4.4884   -0.8911 H         1 <0>         0.4098
     52 H15         1.3291   -6.2032   -1.3521 H         1 <0>         0.1256
     53 H16         1.8771   -8.4627   -2.1544 H         1 <0>         0.1277
     54 H17         1.4372   -7.1570   -6.1922 H         1 <0>         0.1323
     55 H18         0.8770   -4.8931   -5.4110 H         1 <0>         0.1380
     56 H19         2.5135   -9.2661   -5.6779 H         1 <0>         0.0885
     57 H20         2.6973   -9.8107   -3.9933 H         1 <0>         0.0490
     58 H21         0.8640  -10.9435   -2.8938 H         1 <0>         0.0436
     59 H22        -0.0051   -9.3950   -3.0219 H         1 <0>         0.0840
     60 H23        -1.5725  -11.3056   -2.7060 H         1 <0>         0.0799
     61 H24        -1.8225  -10.5033   -4.2756 H         1 <0>         0.0432
     62 H25        -0.0810  -13.1033   -6.1787 H         1 <0>         0.0811
     63 H26        -0.9501  -11.5548   -6.3068 H         1 <0>         0.0437
     64 H27         1.4864  -11.1926   -6.4945 H         1 <0>         0.0821
     65 H28         1.7364  -11.9950   -4.9250 H         1 <0>         0.0450
     66 H29        -2.8511  -12.6037   -5.0641 H         1 <0>         0.0271
     67 H30        -1.8953  -14.1043   -5.0104 H         1 <0>         0.0693
     68 H31        -2.5051  -13.3830   -3.5017 H         1 <0>         0.0693
@<TRIPOS>BOND
     1    1    2 1
     2    1   38 1
     3    1   39 1
     4    1   40 1
     5    2    7 ar
     6    2    3 ar
     7    3    4 ar
     8    3   41 1
     9    4    5 ar
    10    4   42 1
    11    5    6 ar
    12    5   21 1
    13    6    7 ar
    14    6   43 1
    15    7    8 1
    16    8    9 1
    17    8   44 1
    18    9   14 ar
    19    9   10 ar
    20   10   11 ar
    21   11   12 ar
    22   11   45 1
    23   12   13 ar
    24   12   46 1
    25   13   14 ar
    26   13   15 1
    27   15   20 ar
    28   15   16 ar
    29   16   17 ar
    30   16   47 1
    31   17   18 ar
    32   17   48 1
    33   18   19 ar
    34   18   49 1
    35   19   20 ar
    36   20   50 1
    37   21   22 am
    38   21   51 1
    39   22   23 2
    40   22   24 1
    41   24   29 ar
    42   24   25 ar
    43   25   26 ar
    44   25   52 1
    45   26   27 ar
    46   26   53 1
    47   27   28 ar
    48   27   30 1
    49   28   29 ar
    50   28   54 1
    51   29   55 1
    52   30   31 1
    53   30   56 1
    54   30   57 1
    55   31   36 1
    56   31   32 1
    57   32   33 1
    58   32   58 1
    59   32   59 1
    60   33   34 1
    61   33   60 1
    62   33   61 1
    63   34   35 1
    64   34   37 1
    65   35   36 1
    66   35   62 1
    67   35   63 1
    68   36   64 1
    69   36   65 1
    70   37   66 1
    71   37   67 1
    72   37   68 1
