@<TRIPOS>MOLECULE
ZINC53683112
   32    34     0     0     0
SMALL
USER_CHARGES

@<TRIPOS>ATOM
      1 C1         -0.0167    1.3790    0.0096 C.ar      1 <0>        -0.1153
      2 C2          1.1687    2.0919    0.0021 C.ar      1 <0>        -0.1176
      3 C3          2.3774    1.4258   -0.0129 C.ar      1 <0>        -0.1086
      4 C4          2.4022    0.0327   -0.0206 C.ar      1 <0>        -0.0528
      5 C5          1.2051   -0.6804   -0.0130 C.ar      1 <0>        -0.1084
      6 C6          0.0021   -0.0041    0.0020 C.ar      1 <0>        -0.1175
      7 C7          3.6987   -0.6889   -0.0373 C.ar      1 <0>        -0.0311
      8 C8          4.8958    0.0241   -0.0395 C.ar      1 <0>        -0.1116
      9 C9          6.0988   -0.6522   -0.0546 C.ar      1 <0>        -0.0935
     10 C10         6.1176   -2.0352   -0.0680 C.ar      1 <0>        -0.1187
     11 C11         4.9322   -2.7481   -0.0663 C.ar      1 <0>        -0.0943
     12 C12         3.7235   -2.0821   -0.0450 C.ar      1 <0>        -0.1112
     13 C13         7.4343   -2.7680   -0.0849 C.3       1 <0>         0.1467
     14 N1          7.8714   -3.0187    1.2907 N.pl3     1 <0>        -0.4554
     15 C14         8.6450   -2.1925    2.0605 C.2       1 <0>        -0.0548
     16 C15         8.8053   -2.8045    3.2493 C.2       1 <0>        -0.0295
     17 N2          8.1474   -3.9726    3.2066 N.2       1 <0>        -0.4950
     18 C16         7.5814   -4.1053    2.0383 C.2       1 <0>         0.1831
     19 H1         -0.9603    1.9042    0.0260 H         1 <0>         0.1246
     20 H2          1.1483    3.1717    0.0077 H         1 <0>         0.1259
     21 H3          3.3023    1.9834   -0.0191 H         1 <0>         0.1254
     22 H4          1.2186   -1.7603   -0.0193 H         1 <0>         0.1257
     23 H5         -0.9264   -0.5558    0.0082 H         1 <0>         0.1260
     24 H6          4.8823    1.1040   -0.0299 H         1 <0>         0.1289
     25 H7          7.0273   -0.1005   -0.0564 H         1 <0>         0.1253
     26 H8          4.9525   -3.8278   -0.0771 H         1 <0>         0.1266
     27 H9          2.7986   -2.6396   -0.0392 H         1 <0>         0.1294
     28 H10         7.3150   -3.7174   -0.6069 H         1 <0>         0.1038
     29 H11         8.1807   -2.1622   -0.5986 H         1 <0>         0.1014
     30 H12         9.0495   -1.2341    1.7701 H         1 <0>         0.1720
     31 H13         9.3653   -2.4219    4.0897 H         1 <0>         0.1688
     32 H14         6.9825   -4.9461    1.7209 H         1 <0>         0.2018
@<TRIPOS>BOND
     1    1    6 ar
     2    1    2 ar
     3    1   19 1
     4    2    3 ar
     5    2   20 1
     6    3    4 ar
     7    3   21 1
     8    4    5 ar
     9    4    7 1
    10    5    6 ar
    11    5   22 1
    12    6   23 1
    13    7   12 ar
    14    7    8 ar
    15    8    9 ar
    16    8   24 1
    17    9   10 ar
    18    9   25 1
    19   10   11 ar
    20   10   13 1
    21   11   12 ar
    22   11   26 1
    23   12   27 1
    24   13   14 1
    25   13   28 1
    26   13   29 1
    27   14   18 1
    28   14   15 1
    29   15   16 2
    30   15   30 1
    31   16   17 1
    32   16   31 1
    33   17   18 2
    34   18   32 1
@<TRIPOS>MOLECULE
ZINC53683112
   33    35     0     0     0
SMALL
USER_CHARGES

@<TRIPOS>ATOM
      1 C1         -0.0167    1.3790    0.0096 C.ar      1 <0>        -0.1037
      2 C2          1.1687    2.0919    0.0021 C.ar      1 <0>        -0.1171
      3 C3          2.3774    1.4258   -0.0129 C.ar      1 <0>        -0.1025
      4 C4          2.4022    0.0327   -0.0206 C.ar      1 <0>        -0.0726
      5 C5          1.2051   -0.6804   -0.0130 C.ar      1 <0>        -0.1028
      6 C6          0.0021   -0.0041    0.0020 C.ar      1 <0>        -0.1174
      7 C7          3.6987   -0.6889   -0.0373 C.ar      1 <0>        -0.0020
      8 C8          4.8958    0.0241   -0.0395 C.ar      1 <0>        -0.1139
      9 C9          6.0988   -0.6522   -0.0546 C.ar      1 <0>        -0.0841
     10 C10         6.1176   -2.0352   -0.0680 C.ar      1 <0>        -0.1558
     11 C11         4.9322   -2.7481   -0.0663 C.ar      1 <0>        -0.0891
     12 C12         3.7235   -2.0821   -0.0450 C.ar      1 <0>        -0.1147
     13 C13         7.4343   -2.7680   -0.0849 C.3       1 <0>         0.1413
     14 N1          7.8714   -3.0187    1.2907 N.pl3     1 <0>        -0.4029
     15 C14         8.6446   -2.1923    2.0606 C.2       1 <0>         0.0269
     16 C15         8.8050   -2.8044    3.2494 C.2       1 <0>         0.0024
     17 N2          8.1477   -3.9727    3.2065 N.pl3     1 <0>        -0.4767
     18 C16         7.5818   -4.1055    2.0381 C.cat     1 <0>         0.2873
     19 H1         -0.9603    1.9042    0.0260 H         1 <0>         0.1292
     20 H2          1.1483    3.1717    0.0077 H         1 <0>         0.1298
     21 H3          3.3023    1.9834   -0.0191 H         1 <0>         0.1261
     22 H4          1.2186   -1.7603   -0.0193 H         1 <0>         0.1258
     23 H5         -0.9264   -0.5558    0.0082 H         1 <0>         0.1297
     24 H6          4.8823    1.1040   -0.0299 H         1 <0>         0.1357
     25 H7          7.0273   -0.1005   -0.0564 H         1 <0>         0.1299
     26 H8          4.9525   -3.8278   -0.0771 H         1 <0>         0.1290
     27 H9          2.7986   -2.6396   -0.0392 H         1 <0>         0.1354
     28 H10         7.3150   -3.7174   -0.6069 H         1 <0>         0.1288
     29 H11         8.1807   -2.1622   -0.5986 H         1 <0>         0.1314
     30 H12         9.0487   -1.2337    1.7704 H         1 <0>         0.2211
     31 H13         9.3649   -2.4216    4.0899 H         1 <0>         0.2231
     32 H14         6.9832   -4.9465    1.7205 H         1 <0>         0.2576
     33 H15         8.0976   -4.6158    3.9310 H         1 <0>         0.4646
@<TRIPOS>BOND
     1    1    6 ar
     2    1    2 ar
     3    1   19 1
     4    2    3 ar
     5    2   20 1
     6    3    4 ar
     7    3   21 1
     8    4    5 ar
     9    4    7 1
    10    5    6 ar
    11    5   22 1
    12    6   23 1
    13    7   12 ar
    14    7    8 ar
    15    8    9 ar
    16    8   24 1
    17    9   10 ar
    18    9   25 1
    19   10   11 ar
    20   10   13 1
    21   11   12 ar
    22   11   26 1
    23   12   27 1
    24   13   14 1
    25   13   28 1
    26   13   29 1
    27   14   18 1
    28   14   15 1
    29   15   16 2
    30   15   30 1
    31   16   17 1
    32   16   31 1
    33   17   18 2
    34   17   33 1
    35   18   32 1
@<TRIPOS>MOLECULE
ZINC00301614
   31    33     0     0     0
SMALL
USER_CHARGES

@<TRIPOS>ATOM
      1 C1         -0.3272    0.9767   -0.1836 C.3       1 <0>        -0.1252
      2 C2         -0.1163   -0.4928    0.0753 C.ar      1 <0>        -0.0639
      3 C3         -0.1900   -1.3962   -0.9687 C.ar      1 <0>        -0.1216
      4 C4          0.0035   -2.7440   -0.7313 C.ar      1 <0>        -0.1039
      5 C5          0.2712   -3.1887    0.5502 C.ar      1 <0>        -0.1253
      6 C6          0.3459   -2.2855    1.5937 C.ar      1 <0>        -0.0937
      7 C7          0.1565   -0.9368    1.3554 C.ar      1 <0>        -0.1218
      8 C8          0.2431    0.0486    2.4923 C.3       1 <0>         0.1529
      9 N1         -1.0939    0.2718    3.0480 N.pl3     1 <0>        -0.4863
     10 C9         -1.8979    1.3428    2.8088 C.2       1 <0>         0.2577
     11 N2         -3.0157    1.2179    3.4630 N.2       1 <0>        -0.4938
     12 C10        -3.0051    0.0570    4.1673 C.ar      1 <0>         0.0427
     13 C11        -1.7739   -0.5685    3.9067 C.ar      1 <0>         0.0530
     14 C12        -1.4820   -1.7908    4.4958 C.ar      1 <0>        -0.1105
     15 C13        -2.4048   -2.3841    5.3312 C.ar      1 <0>        -0.1010
     16 C14        -3.6214   -1.7677    5.5856 C.ar      1 <0>        -0.1291
     17 C15        -3.9232   -0.5611    5.0198 C.ar      1 <0>        -0.0633
     18 H1          0.6379    1.4627   -0.3264 H         1 <0>         0.0770
     19 H2         -0.9344    1.1043   -1.0798 H         1 <0>         0.0726
     20 H3         -0.8378    1.4261    0.6682 H         1 <0>         0.0644
     21 H4         -0.3992   -1.0488   -1.9697 H         1 <0>         0.1255
     22 H5         -0.0549   -3.4498   -1.5467 H         1 <0>         0.1254
     23 H6          0.4217   -4.2419    0.7358 H         1 <0>         0.1255
     24 H7          0.5547   -2.6329    2.5947 H         1 <0>         0.1218
     25 H8          0.8975   -0.3486    3.2683 H         1 <0>         0.0963
     26 H9          0.6462    0.9924    2.1251 H         1 <0>         0.1066
     27 H10        -1.6452    2.1756    2.1693 H         1 <0>         0.2114
     28 H11        -0.5366   -2.2752    4.3005 H         1 <0>         0.1189
     29 H12        -2.1791   -3.3352    5.7904 H         1 <0>         0.1295
     30 H13        -4.3350   -2.2438    6.2417 H         1 <0>         0.1294
     31 H14        -4.8738   -0.0907    5.2237 H         1 <0>         0.1287
@<TRIPOS>BOND
     1    1    2 1
     2    1   18 1
     3    1   19 1
     4    1   20 1
     5    2    7 ar
     6    2    3 ar
     7    3    4 ar
     8    3   21 1
     9    4    5 ar
    10    4   22 1
    11    5    6 ar
    12    5   23 1
    13    6    7 ar
    14    6   24 1
    15    7    8 1
    16    8    9 1
    17    8   25 1
    18    8   26 1
    19    9   13 1
    20    9   10 1
    21   10   11 2
    22   10   27 1
    23   11   12 1
    24   12   17 ar
    25   12   13 ar
    26   13   14 ar
    27   14   15 ar
    28   14   28 1
    29   15   16 ar
    30   15   29 1
    31   16   17 ar
    32   16   30 1
    33   17   31 1
@<TRIPOS>MOLECULE
ZINC00169811
   22    23     0     0     0
SMALL
USER_CHARGES

@<TRIPOS>ATOM
      1 C1         -0.0167    1.3781    0.0096 C.ar      1 <0>        -0.1087
      2 C2          1.1709    2.0855    0.0021 C.ar      1 <0>        -0.1202
      3 C3          2.3773    1.4107   -0.0130 C.ar      1 <0>        -0.0987
      4 C4          2.3960    0.0285   -0.0201 C.ar      1 <0>        -0.1196
      5 C5          1.2084   -0.6789   -0.0117 C.ar      1 <0>        -0.0994
      6 C6          0.0021   -0.0041    0.0020 C.ar      1 <0>        -0.1197
      7 C7          3.7112   -0.7071   -0.0376 C.3       1 <0>         0.1466
      8 N1          4.1518   -0.9524    1.3379 N.pl3     1 <0>        -0.4554
      9 C8          4.9294   -0.1243    2.1015 C.2       1 <0>        -0.0551
     10 C9          5.0919   -0.7312    3.2927 C.2       1 <0>        -0.0296
     11 N2          4.4316   -1.8981    3.2573 N.2       1 <0>        -0.4951
     12 C10         3.8618   -2.0350    2.0912 C.2       1 <0>         0.1828
     13 H1         -0.9591    1.9053    0.0259 H         1 <0>         0.1255
     14 H2          1.1563    3.1654    0.0076 H         1 <0>         0.1260
     15 H3          3.3051    1.9634   -0.0196 H         1 <0>         0.1225
     16 H4          1.2231   -1.7588   -0.0176 H         1 <0>         0.1239
     17 H5         -0.9258   -0.5567    0.0082 H         1 <0>         0.1265
     18 H6          3.5884   -1.6586   -0.5549 H         1 <0>         0.1035
     19 H7          4.4573   -0.1052   -0.5563 H         1 <0>         0.1011
     20 H8          5.3350    0.8319    1.8056 H         1 <0>         0.1721
     21 H9          5.6553   -0.3459    4.1297 H         1 <0>         0.1691
     22 H10         3.2602   -2.8760    1.7794 H         1 <0>         0.2020
@<TRIPOS>BOND
     1    1    6 ar
     2    1    2 ar
     3    1   13 1
     4    2    3 ar
     5    2   14 1
     6    3    4 ar
     7    3   15 1
     8    4    5 ar
     9    4    7 1
    10    5    6 ar
    11    5   16 1
    12    6   17 1
    13    7    8 1
    14    7   18 1
    15    7   19 1
    16    8   12 1
    17    8    9 1
    18    9   10 2
    19    9   20 1
    20   10   11 1
    21   10   21 1
    22   11   12 2
    23   12   22 1
@<TRIPOS>MOLECULE
ZINC00169811
   23    24     0     0     0
SMALL
USER_CHARGES

@<TRIPOS>ATOM
      1 C1         -0.0167    1.3781    0.0096 C.ar      1 <0>        -0.0899
      2 C2          1.1709    2.0855    0.0021 C.ar      1 <0>        -0.1158
      3 C3          2.3773    1.4107   -0.0130 C.ar      1 <0>        -0.0920
      4 C4          2.3960    0.0285   -0.0201 C.ar      1 <0>        -0.1504
      5 C5          1.2084   -0.6789   -0.0117 C.ar      1 <0>        -0.0970
      6 C6          0.0021   -0.0041    0.0020 C.ar      1 <0>        -0.1165
      7 C7          3.7112   -0.7071   -0.0376 C.3       1 <0>         0.1408
      8 N1          4.1518   -0.9524    1.3379 N.pl3     1 <0>        -0.4034
      9 C8          4.9291   -0.1241    2.1017 C.2       1 <0>         0.0268
     10 C9          5.0917   -0.7311    3.2928 C.2       1 <0>         0.0027
     11 N2          4.4318   -1.8983    3.2572 N.pl3     1 <0>        -0.4766
     12 C10         3.8622   -2.0352    2.0911 C.cat     1 <0>         0.2878
     13 H1         -0.9591    1.9053    0.0259 H         1 <0>         0.1337
     14 H2          1.1563    3.1654    0.0076 H         1 <0>         0.1339
     15 H3          3.3051    1.9634   -0.0196 H         1 <0>         0.1279
     16 H4          1.2231   -1.7588   -0.0176 H         1 <0>         0.1270
     17 H5         -0.9258   -0.5567    0.0082 H         1 <0>         0.1336
     18 H6          3.5884   -1.6586   -0.5549 H         1 <0>         0.1289
     19 H7          4.4573   -0.1052   -0.5563 H         1 <0>         0.1315
     20 H8          5.3343    0.8323    1.8059 H         1 <0>         0.2212
     21 H9          5.6548   -0.3457    4.1299 H         1 <0>         0.2234
     22 H10         3.2610   -2.8764    1.7791 H         1 <0>         0.2578
     23 H11         4.3826   -2.5379    3.9847 H         1 <0>         0.4647
@<TRIPOS>BOND
     1    1    6 ar
     2    1    2 ar
     3    1   13 1
     4    2    3 ar
     5    2   14 1
     6    3    4 ar
     7    3   15 1
     8    4    5 ar
     9    4    7 1
    10    5    6 ar
    11    5   16 1
    12    6   17 1
    13    7    8 1
    14    7   18 1
    15    7   19 1
    16    8   12 1
    17    8    9 1
    18    9   10 2
    19    9   20 1
    20   10   11 1
    21   10   21 1
    22   11   12 2
    23   11   23 1
    24   12   22 1
@<TRIPOS>MOLECULE
ZINC00432161
   31    33     0     0     0
SMALL
USER_CHARGES

@<TRIPOS>ATOM
      1 C1         -0.0184    1.5028    0.0103 C.3       1 <0>        -0.1195
      2 C2          0.0021   -0.0041    0.0020 C.ar      1 <0>        -0.0732
      3 C3          0.0057   -0.6887   -1.1989 C.ar      1 <0>        -0.1216
      4 C4          0.0245   -2.0709   -1.2065 C.ar      1 <0>        -0.0946
      5 C5          0.0400   -2.7685   -0.0132 C.ar      1 <0>        -0.1269
      6 C6          0.0373   -2.0839    1.1877 C.ar      1 <0>        -0.0925
      7 C7          0.0229   -0.7016    1.1953 C.ar      1 <0>        -0.1211
      8 C8          0.0595   -4.2753   -0.0215 C.3       1 <0>         0.1545
      9 N1          1.4468   -4.7457   -0.0317 N.pl3     1 <0>        -0.4880
     10 C9          2.1756   -5.0835   -1.1297 C.2       1 <0>         0.2618
     11 N2          3.3704   -5.4577   -0.7758 N.2       1 <0>        -0.4957
     12 C10         3.4900   -5.3855    0.5749 C.ar      1 <0>         0.0429
     13 C11         2.2590   -4.9227    1.0706 C.ar      1 <0>         0.0513
     14 C12         2.0874   -4.7448    2.4363 C.ar      1 <0>        -0.1113
     15 C13         3.1285   -5.0212    3.2972 C.ar      1 <0>        -0.1011
     16 C14         4.3445   -5.4749    2.8071 C.ar      1 <0>        -0.1293
     17 C15         4.5294   -5.6624    1.4663 C.ar      1 <0>        -0.0634
     18 H1          1.0042    1.8801    0.0026 H         1 <0>         0.0734
     19 H2         -0.5455    1.8639   -0.8728 H         1 <0>         0.0689
     20 H3         -0.5286    1.8543    0.9071 H         1 <0>         0.0687
     21 H4         -0.0064   -0.1436   -2.1312 H         1 <0>         0.1257
     22 H5          0.0266   -2.6057   -2.1448 H         1 <0>         0.1238
     23 H6          0.0491   -2.6289    2.1200 H         1 <0>         0.1214
     24 H7          0.0245   -0.1667    2.1335 H         1 <0>         0.1253
     25 H8         -0.4447   -4.6501    0.8693 H         1 <0>         0.0974
     26 H9         -0.4546   -4.6404   -0.9106 H         1 <0>         0.1053
     27 H10         1.8148   -5.0468   -2.1470 H         1 <0>         0.2114
     28 H11         1.1430   -4.3912    2.8229 H         1 <0>         0.1188
     29 H12         2.9965   -4.8833    4.3602 H         1 <0>         0.1296
     30 H13         5.1515   -5.6871    3.4928 H         1 <0>         0.1294
     31 H14         5.4806   -6.0147    1.0955 H         1 <0>         0.1286
@<TRIPOS>BOND
     1    1    2 1
     2    1   18 1
     3    1   19 1
     4    1   20 1
     5    2    7 ar
     6    2    3 ar
     7    3    4 ar
     8    3   21 1
     9    4    5 ar
    10    4   22 1
    11    5    6 ar
    12    5    8 1
    13    6    7 ar
    14    6   23 1
    15    7   24 1
    16    8    9 1
    17    8   25 1
    18    8   26 1
    19    9   13 1
    20    9   10 1
    21   10   11 2
    22   10   27 1
    23   11   12 1
    24   12   17 ar
    25   12   13 ar
    26   13   14 ar
    27   14   15 ar
    28   14   28 1
    29   15   16 ar
    30   15   29 1
    31   16   17 ar
    32   16   30 1
    33   17   31 1
@<TRIPOS>MOLECULE
ZINC00388851
   28    30     0     0     0
SMALL
USER_CHARGES

@<TRIPOS>ATOM
      1 C1         -0.0164    1.3618    0.0095 C.ar      1 <0>        -0.1288
      2 C2          1.1675    2.0858    0.0021 C.ar      1 <0>        -0.0997
      3 C3          2.3834    1.4366   -0.0135 C.ar      1 <0>        -0.1124
      4 C4          2.4219    0.0488   -0.0213 C.ar      1 <0>         0.0508
      5 C5          1.2229   -0.6838   -0.0133 C.ar      1 <0>         0.0433
      6 C6          0.0021   -0.0041    0.0020 C.ar      1 <0>        -0.0625
      7 N1          1.5627   -1.9984   -0.0238 N.2       1 <0>        -0.4940
      8 C7          2.8584   -2.1152   -0.0373 C.2       1 <0>         0.2617
      9 N2          3.4388   -0.8848   -0.0364 N.pl3     1 <0>        -0.4897
     10 C8          4.8763   -0.6028   -0.0496 C.3       1 <0>         0.1537
     11 C9          5.3598   -0.3918    1.3620 C.ar      1 <0>        -0.1163
     12 C10         5.3456    0.8751    1.9151 C.ar      1 <0>        -0.0843
     13 C11         5.7889    1.0692    3.2098 C.ar      1 <0>        -0.1099
     14 C12         6.2469   -0.0047    3.9522 C.ar      1 <0>        -0.0245
     15 C13         6.2609   -1.2723    3.3981 C.ar      1 <0>        -0.1104
     16 C14         5.8121   -1.4661    2.1053 C.ar      1 <0>        -0.0861
     17 Cl1         6.8045    0.2385    5.5781 Cl        1 <0>        -0.0623
     18 H1         -0.9620    1.8835    0.0259 H         1 <0>         0.1299
     19 H2          1.1359    3.1654    0.0082 H         1 <0>         0.1301
     20 H3          3.3018    2.0048   -0.0199 H         1 <0>         0.1191
     21 H4         -0.9252   -0.5577    0.0076 H         1 <0>         0.1290
     22 H5          3.3951   -3.0524   -0.0473 H         1 <0>         0.2123
     23 H6          5.4076   -1.4446   -0.4937 H         1 <0>         0.1086
     24 H7          5.0648    0.2962   -0.6364 H         1 <0>         0.1006
     25 H8          4.9883    1.7133    1.3354 H         1 <0>         0.1318
     26 H9          5.7781    2.0590    3.6417 H         1 <0>         0.1376
     27 H10         6.6187   -2.1109    3.9770 H         1 <0>         0.1380
     28 H11         5.8185   -2.4563    1.6743 H         1 <0>         0.1346
@<TRIPOS>BOND
     1    1    6 ar
     2    1    2 ar
     3    1   18 1
     4    2    3 ar
     5    2   19 1
     6    3    4 ar
     7    3   20 1
     8    4    9 1
     9    4    5 ar
    10    5    6 ar
    11    5    7 1
    12    6   21 1
    13    7    8 2
    14    8    9 1
    15    8   22 1
    16    9   10 1
    17   10   11 1
    18   10   23 1
    19   10   24 1
    20   11   16 ar
    21   11   12 ar
    22   12   13 ar
    23   12   25 1
    24   13   14 ar
    25   13   26 1
    26   14   15 ar
    27   14   17 1
    28   15   16 ar
    29   15   27 1
    30   16   28 1
@<TRIPOS>MOLECULE
ZINC00460111
   31    33     0     0     0
SMALL
USER_CHARGES

@<TRIPOS>ATOM
      1 C1         -0.0184    1.5028    0.0103 C.3       1 <0>        -0.1173
      2 C2          0.0021   -0.0041    0.0020 C.ar      1 <0>        -0.0845
      3 C3          0.0057   -0.6888   -1.1991 C.ar      1 <0>        -0.1102
      4 C4          0.0245   -2.0707   -1.2067 C.ar      1 <0>        -0.1152
      5 C5          0.0400   -2.7685   -0.0132 C.ar      1 <0>        -0.1058
      6 C6          0.0373   -2.0840    1.1875 C.ar      1 <0>        -0.1160
      7 C7          0.0229   -0.7015    1.1951 C.ar      1 <0>        -0.0987
      8 C8          0.0538   -2.8445    2.4885 C.3       1 <0>         0.1539
      9 N1          1.4402   -3.0731    2.9030 N.pl3     1 <0>        -0.4880
     10 C9          2.1837   -4.1845    2.6529 C.2       1 <0>         0.2621
     11 N2          3.3726   -4.0518    3.1645 N.2       1 <0>        -0.4956
     12 C10         3.4733   -2.8448    3.7784 C.ar      1 <0>         0.0430
     13 C11         2.2364   -2.1980    3.6146 C.ar      1 <0>         0.0514
     14 C12         2.0458   -0.9283    4.1419 C.ar      1 <0>        -0.1111
     15 C13         3.0741   -0.3094    4.8209 C.ar      1 <0>        -0.1010
     16 C14         4.2960   -0.9470    4.9794 C.ar      1 <0>        -0.1293
     17 C15         4.4994   -2.1997    4.4730 C.ar      1 <0>        -0.0633
     18 H1          1.0042    1.8801    0.0026 H         1 <0>         0.0726
     19 H2         -0.5455    1.8639   -0.8728 H         1 <0>         0.0688
     20 H3         -0.5286    1.8543    0.9071 H         1 <0>         0.0676
     21 H4         -0.0064   -0.1437   -2.1314 H         1 <0>         0.1248
     22 H5          0.0266   -2.6056   -2.1449 H         1 <0>         0.1263
     23 H6          0.0540   -3.8484   -0.0191 H         1 <0>         0.1233
     24 H7          0.0246   -0.1666    2.1333 H         1 <0>         0.1209
     25 H8         -0.4637   -2.2663    3.2539 H         1 <0>         0.0976
     26 H9         -0.4484   -3.8028    2.3555 H         1 <0>         0.1059
     27 H10         1.8374   -5.0511    2.1093 H         1 <0>         0.2116
     28 H11         1.0968   -0.4273    4.0206 H         1 <0>         0.1186
     29 H12         2.9273    0.6785    5.2318 H         1 <0>         0.1295
     30 H13         5.0928   -0.4503    5.5132 H         1 <0>         0.1294
     31 H14         5.4551   -2.6863    4.6011 H         1 <0>         0.1286
@<TRIPOS>BOND
     1    1    2 1
     2    1   18 1
     3    1   19 1
     4    1   20 1
     5    2    7 ar
     6    2    3 ar
     7    3    4 ar
     8    3   21 1
     9    4    5 ar
    10    4   22 1
    11    5    6 ar
    12    5   23 1
    13    6    7 ar
    14    6    8 1
    15    7   24 1
    16    8    9 1
    17    8   25 1
    18    8   26 1
    19    9   13 1
    20    9   10 1
    21   10   11 2
    22   10   27 1
    23   11   12 1
    24   12   17 ar
    25   12   13 ar
    26   13   14 ar
    27   14   15 ar
    28   14   28 1
    29   15   16 ar
    30   15   29 1
    31   16   17 ar
    32   16   30 1
    33   17   31 1
@<TRIPOS>MOLECULE
ZINC12525125
   23    24     0     0     0
SMALL
USER_CHARGES
3-(imidazol-1-ylmethyl)benzonitrile
@<TRIPOS>ATOM
      1 C1          1.1714    1.7832    0.0005 C.ar      1 <0>        -0.1175
      2 C2          1.1545    3.1669    0.0081 C.ar      1 <0>        -0.0682
      3 C3         -0.0483    3.8503    0.0233 C.ar      1 <0>        -0.1191
      4 C4         -1.2401    3.1552    0.0314 C.ar      1 <0>        -0.0514
      5 C5         -1.2304    1.7592    0.0174 C.ar      1 <0>        -0.0244
      6 C6         -0.0126    1.0758    0.0080 C.ar      1 <0>        -0.0598
      7 C7         -2.4636    1.0313    0.0193 C.1       1 <0>         0.2471
      8 N1         -3.4419    0.4539    0.0207 N.1       1 <0>        -0.4045
      9 C8         -0.0567    5.3572    0.0315 C.3       1 <0>         0.1468
     10 N2         -0.0727    5.8530   -1.3470 N.pl3     1 <0>        -0.4581
     11 C9          1.0202    6.1393   -2.1198 C.2       1 <0>        -0.0550
     12 C10         0.5551    6.5606   -3.3114 C.2       1 <0>        -0.0280
     13 N3         -0.7852    6.5413   -3.2641 N.2       1 <0>        -0.4937
     14 C11        -1.1684    6.1185   -2.0904 C.2       1 <0>         0.1834
     15 H1          2.1139    1.2560   -0.0111 H         1 <0>         0.1391
     16 H2          2.0845    3.7159    0.0025 H         1 <0>         0.1325
     17 H3         -2.1784    3.6899    0.0436 H         1 <0>         0.1351
     18 H4          0.0021   -0.0041    0.0020 H         1 <0>         0.1371
     19 H5         -0.9438    5.7127    0.5558 H         1 <0>         0.1069
     20 H6          0.8361    5.7228    0.5388 H         1 <0>         0.1062
     21 H7          2.0563    6.0433   -1.8305 H         1 <0>         0.1737
     22 H8          1.1560    6.8648   -4.1557 H         1 <0>         0.1693
     23 H9         -2.1921    5.9999   -1.7674 H         1 <0>         0.2025
@<TRIPOS>BOND
     1    1    6 ar
     2    1    2 ar
     3    1   15 1
     4    2    3 ar
     5    2   16 1
     6    3    4 ar
     7    3    9 1
     8    4    5 ar
     9    4   17 1
    10    5    6 ar
    11    5    7 1
    12    6   18 1
    13    7    8 3
    14    9   10 1
    15    9   19 1
    16    9   20 1
    17   10   14 1
    18   10   11 1
    19   11   12 2
    20   11   21 1
    21   12   13 1
    22   12   22 1
    23   13   14 2
    24   14   23 1
@<TRIPOS>MOLECULE
ZINC12525125
   24    25     0     0     0
SMALL
USER_CHARGES
3-(imidazol-1-ylmethyl)benzonitrile
@<TRIPOS>ATOM
      1 C1          1.1714    1.7832    0.0005 C.ar      1 <0>        -0.1118
      2 C2          1.1545    3.1669    0.0081 C.ar      1 <0>        -0.0640
      3 C3         -0.0483    3.8503    0.0233 C.ar      1 <0>        -0.1480
      4 C4         -1.2401    3.1552    0.0314 C.ar      1 <0>        -0.0519
      5 C5         -1.2304    1.7592    0.0174 C.ar      1 <0>        -0.0138
      6 C6         -0.0126    1.0758    0.0080 C.ar      1 <0>        -0.0446
      7 C7         -2.4636    1.0313    0.0193 C.1       1 <0>         0.2323
      8 N1         -3.4419    0.4539    0.0207 N.1       1 <0>        -0.3830
      9 C8         -0.0567    5.3572    0.0315 C.3       1 <0>         0.1415
     10 N2         -0.0727    5.8530   -1.3470 N.pl3     1 <0>        -0.4077
     11 C9          1.0202    6.1393   -2.1198 C.2       1 <0>         0.0253
     12 C10         0.5551    6.5606   -3.3114 C.2       1 <0>         0.0046
     13 C11        -1.1684    6.1185   -2.0904 C.cat     1 <0>         0.2876
     14 H1          2.1139    1.2560   -0.0111 H         1 <0>         0.1465
     15 H2          2.0845    3.7159    0.0025 H         1 <0>         0.1375
     16 H3         -2.1784    3.6899    0.0436 H         1 <0>         0.1379
     17 H4          0.0021   -0.0041    0.0020 H         1 <0>         0.1445
     18 H5         -0.9438    5.7127    0.5558 H         1 <0>         0.1318
     19 H6          0.8361    5.7228    0.5388 H         1 <0>         0.1359
     20 H7          2.0563    6.0433   -1.8305 H         1 <0>         0.2216
     21 H8          1.1560    6.8648   -4.1557 H         1 <0>         0.2225
     22 H9         -2.1921    5.9999   -1.7674 H         1 <0>         0.2571
     23 N3         -0.7844    6.5409   -3.2631 N.pl3     1 <0>        -0.4832
     24 H10        -1.4102    6.8155   -4.0294 H         1 <0>         0.4815
@<TRIPOS>BOND
     1    1    6 ar
     2    1    2 ar
     3    1   14 1
     4    2    3 ar
     5    2   15 1
     6    3    4 ar
     7    3    9 1
     8    4    5 ar
     9    4   16 1
    10    5    6 ar
    11    5    7 1
    12    6   17 1
    13    7    8 3
    14    9   10 1
    15    9   18 1
    16    9   19 1
    17   10   13 1
    18   10   11 1
    19   11   12 2
    20   11   20 1
    21   12   21 1
    22   12   23 1
    23   13   22 1
    24   13   23 2
    25   23   24 1
@<TRIPOS>MOLECULE
ZINC00854690
   25    26     0     0     0
SMALL
USER_CHARGES

@<TRIPOS>ATOM
      1 C1          0.9533   -0.4397    0.7109 C.ar      1 <0>        -0.1497
      2 C2          2.1967    0.1712    0.7273 C.ar      1 <0>        -0.0785
      3 C3          2.3684    1.3415   -0.0075 C.ar      1 <0>         0.0944
      4 C4          1.2936    1.8503   -0.7254 C.ar      1 <0>         0.0791
      5 N1          0.1269    1.2375   -0.7133 N.ar      1 <0>        -0.4647
      6 C5         -0.0680    0.1276   -0.0281 C.ar      1 <0>         0.0826
      7 N2          3.6049    1.9954   -0.0221 N.am      1 <0>        -0.6650
      8 C6          4.7453    1.2823    0.0649 C.2       1 <0>         0.5641
      9 O1          4.7044    0.0673    0.0594 O.2       1 <0>        -0.5119
     10 C7          6.0446    1.9771    0.1670 C.ar      1 <0>        -0.1529
     11 C8          6.0940    3.3728    0.1794 C.ar      1 <0>        -0.0544
     12 C9          7.3093    4.0160    0.2748 C.ar      1 <0>        -0.1601
     13 C10         8.4815    3.2801    0.3580 C.ar      1 <0>         0.1326
     14 C11         8.4383    1.8942    0.3457 C.ar      1 <0>        -0.1602
     15 C12         7.2279    1.2407    0.2573 C.ar      1 <0>        -0.0247
     16 F1          9.6700    3.9156    0.4509 F         1 <0>        -0.1300
     17 H1          0.7851   -1.3510    1.2655 H         1 <0>         0.1410
     18 H2          3.0125   -0.2498    1.2962 H         1 <0>         0.1462
     19 H3          1.4151    2.7574   -1.2989 H         1 <0>         0.1581
     20 H4         -1.0391   -0.3448   -0.0445 H         1 <0>         0.1601
     21 H5          3.6416    2.9619   -0.0949 H         1 <0>         0.4135
     22 H6          5.1816    3.9470    0.1139 H         1 <0>         0.1375
     23 H7          7.3486    5.0953    0.2845 H         1 <0>         0.1462
     24 H8          9.3543    1.3258    0.4104 H         1 <0>         0.1472
     25 H9          7.1950    0.1612    0.2527 H         1 <0>         0.1495
@<TRIPOS>BOND
     1    1    6 ar
     2    1    2 ar
     3    1   17 1
     4    2    3 ar
     5    2   18 1
     6    3    4 ar
     7    3    7 1
     8    4    5 ar
     9    4   19 1
    10    5    6 ar
    11    6   20 1
    12    7    8 am
    13    7   21 1
    14    8    9 2
    15    8   10 1
    16   10   15 ar
    17   10   11 ar
    18   11   12 ar
    19   11   22 1
    20   12   13 ar
    21   12   23 1
    22   13   14 ar
    23   13   16 1
    24   14   15 ar
    25   14   24 1
    26   15   25 1
@<TRIPOS>MOLECULE
ZINC00092075
   25    26     0     0     0
SMALL
USER_CHARGES
4-chloro-N-(3-pyridyl)benzamide
@<TRIPOS>ATOM
      1 C1          0.2154   -0.0689    0.5938 C.ar      1 <0>        -0.1517
      2 C2          0.1485    1.3147    0.6204 C.ar      1 <0>        -0.0772
      3 C3          1.1688    2.0382    0.0083 C.ar      1 <0>         0.0904
      4 C4          2.2099    1.3504   -0.6022 C.ar      1 <0>         0.0810
      5 N1          2.2347    0.0327   -0.6045 N.ar      1 <0>        -0.4657
      6 C5          1.2838   -0.6813   -0.0341 C.ar      1 <0>         0.0839
      7 N2          1.1463    3.4367    0.0091 N.am      1 <0>        -0.6643
      8 C6         -0.0284    4.0918   -0.0784 C.2       1 <0>         0.5630
      9 O1         -1.0730    3.4700   -0.0719 O.2       1 <0>        -0.5118
     10 C7         -0.0464    5.5656   -0.1821 C.ar      1 <0>        -0.1363
     11 C8          1.1516    6.2828   -0.1840 C.ar      1 <0>        -0.0719
     12 C9          1.1285    7.6577   -0.2874 C.ar      1 <0>        -0.1165
     13 C10        -0.0803    8.3281   -0.3767 C.ar      1 <0>        -0.0073
     14 C11        -1.2722    7.6225   -0.3695 C.ar      1 <0>        -0.1164
     15 C12        -1.2617    6.2470   -0.2729 C.ar      1 <0>        -0.0418
     16 Cl1        -0.1015   10.0597   -0.4986 Cl        1 <0>        -0.0547
     17 H1         -0.5581   -0.6622    1.0587 H         1 <0>         0.1409
     18 H2         -0.6745    1.8196    1.1042 H         1 <0>         0.1501
     19 H3          3.0092    1.9010   -1.0759 H         1 <0>         0.1580
     20 H4          1.3407   -1.7595   -0.0577 H         1 <0>         0.1600
     21 H5          1.9760    3.9352    0.0726 H         1 <0>         0.4137
     22 H6          2.0945    5.7615   -0.1096 H         1 <0>         0.1368
     23 H7          2.0547    8.2132   -0.2938 H         1 <0>         0.1441
     24 H8         -2.2116    8.1506   -0.4401 H         1 <0>         0.1450
     25 H9         -2.1917    5.6978   -0.2678 H         1 <0>         0.1487
@<TRIPOS>BOND
     1    1    6 ar
     2    1    2 ar
     3    1   17 1
     4    2    3 ar
     5    2   18 1
     6    3    4 ar
     7    3    7 1
     8    4    5 ar
     9    4   19 1
    10    5    6 ar
    11    6   20 1
    12    7    8 am
    13    7   21 1
    14    8    9 2
    15    8   10 1
    16   10   15 ar
    17   10   11 ar
    18   11   12 ar
    19   11   22 1
    20   12   13 ar
    21   12   23 1
    22   13   14 ar
    23   13   16 1
    24   14   15 ar
    25   14   24 1
    26   15   25 1
@<TRIPOS>MOLECULE
ZINC00383457
   25    26     0     0     0
SMALL
USER_CHARGES
4-bromo-N-(3-pyridyl)benzamide
@<TRIPOS>ATOM
      1 C1          0.2152   -0.0689    0.5935 C.ar      1 <0>        -0.1517
      2 C2          0.1483    1.3147    0.6201 C.ar      1 <0>        -0.0771
      3 C3          1.1688    2.0382    0.0083 C.ar      1 <0>         0.0900
      4 C4          2.2099    1.3504   -0.6022 C.ar      1 <0>         0.0813
      5 N1          2.2347    0.0327   -0.6045 N.ar      1 <0>        -0.4656
      6 C5          1.2838   -0.6813   -0.0341 C.ar      1 <0>         0.0841
      7 N2          1.1463    3.4367    0.0091 N.am      1 <0>        -0.6636
      8 C6         -0.0283    4.0918   -0.0784 C.2       1 <0>         0.5619
      9 O1         -1.0730    3.4700   -0.0719 O.2       1 <0>        -0.5107
     10 C7         -0.0464    5.5657   -0.1821 C.ar      1 <0>        -0.1246
     11 C8          1.1515    6.2830   -0.1840 C.ar      1 <0>        -0.0789
     12 C9          1.1282    7.6580   -0.2863 C.ar      1 <0>        -0.0968
     13 C10        -0.0803    8.3282   -0.3761 C.ar      1 <0>        -0.0642
     14 C11        -1.2719    7.6228   -0.3690 C.ar      1 <0>        -0.0967
     15 C12        -1.2616    6.2472   -0.2729 C.ar      1 <0>        -0.0487
     16 Br1        -0.1034   10.2144   -0.5094 Br        1 <0>        -0.0348
     17 H1         -0.5585   -0.6622    1.0581 H         1 <0>         0.1410
     18 H2         -0.6749    1.8196    1.1036 H         1 <0>         0.1502
     19 H3          3.0092    1.9010   -1.0759 H         1 <0>         0.1581
     20 H4          1.3409   -1.7595   -0.0574 H         1 <0>         0.1601
     21 H5          1.9760    3.9351    0.0726 H         1 <0>         0.4138
     22 H6          2.0944    5.7617   -0.1096 H         1 <0>         0.1366
     23 H7          2.0543    8.2137   -0.2924 H         1 <0>         0.1434
     24 H8         -2.2113    8.1511   -0.4393 H         1 <0>         0.1443
     25 H9         -2.1916    5.6981   -0.2682 H         1 <0>         0.1485
@<TRIPOS>BOND
     1    1    6 ar
     2    1    2 ar
     3    1   17 1
     4    2    3 ar
     5    2   18 1
     6    3    4 ar
     7    3    7 1
     8    4    5 ar
     9    4   19 1
    10    5    6 ar
    11    6   20 1
    12    7    8 am
    13    7   21 1
    14    8    9 2
    15    8   10 1
    16   10   15 ar
    17   10   11 ar
    18   11   12 ar
    19   11   22 1
    20   12   13 ar
    21   12   23 1
    22   13   14 ar
    23   13   16 1
    24   14   15 ar
    25   14   24 1
    26   15   25 1
@<TRIPOS>MOLECULE
ZINC15436215
   26    27     0     0     0
SMALL
USER_CHARGES
4-cyano-N-(3-pyridyl)benzamide
@<TRIPOS>ATOM
      1 C1          0.2154   -0.0689    0.5937 C.ar      1 <0>        -0.1519
      2 C2          0.1485    1.3146    0.6205 C.ar      1 <0>        -0.0767
      3 C3          1.1689    2.0382    0.0083 C.ar      1 <0>         0.0894
      4 C4          2.2099    1.3504   -0.6023 C.ar      1 <0>         0.0817
      5 N1          2.2347    0.0327   -0.6047 N.ar      1 <0>        -0.4659
      6 C5          1.2837   -0.6813   -0.0344 C.ar      1 <0>         0.0845
      7 N2          1.1463    3.4366    0.0092 N.am      1 <0>        -0.6630
      8 C6         -0.0283    4.0917   -0.0782 C.2       1 <0>         0.5597
      9 O1         -1.0728    3.4700   -0.0718 O.2       1 <0>        -0.5089
     10 C7         -0.0463    5.5667   -0.1820 C.ar      1 <0>        -0.1104
     11 C8          1.1535    6.2811   -0.1836 C.ar      1 <0>        -0.0855
     12 C9          1.1371    7.6545   -0.2851 C.ar      1 <0>        -0.0760
     13 C10        -0.0802    8.3335   -0.3761 C.ar      1 <0>         0.0057
     14 C11        -1.2804    7.6190   -0.3692 C.ar      1 <0>        -0.0758
     15 C12        -1.2634    6.2453   -0.2725 C.ar      1 <0>        -0.0552
     16 C13        -0.0977    9.7618   -0.4771 C.1       1 <0>         0.2436
     17 N3         -0.1115   10.8949   -0.5572 N.1       1 <0>        -0.3965
     18 H1         -0.5581   -0.6622    1.0586 H         1 <0>         0.1409
     19 H2         -0.6744    1.8196    1.1044 H         1 <0>         0.1505
     20 H3          3.0093    1.9010   -1.0759 H         1 <0>         0.1583
     21 H4          1.3407   -1.7595   -0.0581 H         1 <0>         0.1599
     22 H5          1.9761    3.9350    0.0726 H         1 <0>         0.4143
     23 H6          2.0945    5.7564   -0.1090 H         1 <0>         0.1384
     24 H7          2.0652    8.2067   -0.2904 H         1 <0>         0.1437
     25 H8         -2.2217    8.1438   -0.4392 H         1 <0>         0.1446
     26 H9         -2.1914    5.6928   -0.2672 H         1 <0>         0.1505
@<TRIPOS>BOND
     1    1    6 ar
     2    1    2 ar
     3    1   18 1
     4    2    3 ar
     5    2   19 1
     6    3    4 ar
     7    3    7 1
     8    4    5 ar
     9    4   20 1
    10    5    6 ar
    11    6   21 1
    12    7    8 am
    13    7   22 1
    14    8    9 2
    15    8   10 1
    16   10   15 ar
    17   10   11 ar
    18   11   12 ar
    19   11   23 1
    20   12   13 ar
    21   12   24 1
    22   13   14 ar
    23   13   16 1
    24   14   15 ar
    25   14   25 1
    26   15   26 1
    27   16   17 3
@<TRIPOS>MOLECULE
ZINC00244033
   27    28     0     0     0
SMALL
USER_CHARGES
4-nitro-N-(3-pyridyl)benzamide
@<TRIPOS>ATOM
      1 C1          0.2154   -0.0689    0.5937 C.ar      1 <0>        -0.1515
      2 C2          0.1485    1.3146    0.6205 C.ar      1 <0>        -0.0755
      3 C3          1.1688    2.0382    0.0083 C.ar      1 <0>         0.0852
      4 C4          2.2099    1.3504   -0.6023 C.ar      1 <0>         0.0848
      5 N1          2.2347    0.0328   -0.6047 N.ar      1 <0>        -0.4651
      6 C5          1.2837   -0.6813   -0.0343 C.ar      1 <0>         0.0876
      7 N2          1.1463    3.4367    0.0092 N.am      1 <0>        -0.6595
      8 C6         -0.0283    4.0918   -0.0782 C.2       1 <0>         0.5589
      9 O1         -1.0730    3.4701   -0.0718 O.2       1 <0>        -0.5008
     10 C7         -0.0464    5.5662   -0.1819 C.ar      1 <0>        -0.0868
     11 C8          1.1511    6.2835   -0.1839 C.ar      1 <0>        -0.0852
     12 C9          1.1273    7.6590   -0.2863 C.ar      1 <0>        -0.0588
     13 C10        -0.0803    8.3284   -0.3759 C.ar      1 <0>        -0.0185
     14 C11        -1.2710    7.6238   -0.3692 C.ar      1 <0>        -0.0583
     15 C12        -1.2613    6.2477   -0.2726 C.ar      1 <0>        -0.0548
     16 N3         -0.0984    9.8048   -0.4798 N.pl3     1 <0>         0.0206
     17 O2         -1.1599   10.3968   -0.5592 O.2       1 <0>        -0.1470
     18 O3          0.9483   10.4278   -0.4859 O.3       1 <0>        -0.1480
     19 H1         -0.5581   -0.6622    1.0586 H         1 <0>         0.1423
     20 H2         -0.6744    1.8196    1.1044 H         1 <0>         0.1503
     21 H3          3.0092    1.9010   -1.0759 H         1 <0>         0.1590
     22 H4          1.3407   -1.7595   -0.0580 H         1 <0>         0.1614
     23 H5          1.9760    3.9351    0.0726 H         1 <0>         0.4149
     24 H6          2.0942    5.7625   -0.1092 H         1 <0>         0.1517
     25 H7          2.0533    8.2149   -0.2924 H         1 <0>         0.1642
     26 H8         -2.2102    8.1524   -0.4394 H         1 <0>         0.1651
     27 H9         -2.1914    5.6989   -0.2675 H         1 <0>         0.1638
@<TRIPOS>BOND
     1    1    6 ar
     2    1    2 ar
     3    1   19 1
     4    2    3 ar
     5    2   20 1
     6    3    4 ar
     7    3    7 1
     8    4    5 ar
     9    4   21 1
    10    5    6 ar
    11    6   22 1
    12    7    8 am
    13    7   23 1
    14    8    9 2
    15    8   10 1
    16   10   15 ar
    17   10   11 ar
    18   11   12 ar
    19   11   24 1
    20   12   13 ar
    21   12   25 1
    22   13   14 ar
    23   13   16 1
    24   14   15 ar
    25   14   26 1
    26   15   27 1
    27   16   17 2
    28   16   18 1
@<TRIPOS>MOLECULE
ZINC22662132
   25    26     0     0     0
SMALL
USER_CHARGES
3,4-difluoro-N-(3-pyridyl)benzamide
@<TRIPOS>ATOM
      1 C1          0.2154   -0.0689    0.5938 C.ar      1 <0>        -0.1515
      2 C2          0.1485    1.3147    0.6204 C.ar      1 <0>        -0.0797
      3 C3          1.1688    2.0382    0.0083 C.ar      1 <0>         0.0953
      4 C4          2.2099    1.3504   -0.6022 C.ar      1 <0>         0.0805
      5 N1          2.2347    0.0328   -0.6045 N.ar      1 <0>        -0.4662
      6 C5          1.2838   -0.6813   -0.0341 C.ar      1 <0>         0.0829
      7 N2          1.1463    3.4367    0.0091 N.am      1 <0>        -0.6747
      8 C6         -0.0284    4.0918   -0.0784 C.2       1 <0>         0.5659
      9 O1         -1.0731    3.4700   -0.0719 O.2       1 <0>        -0.5122
     10 C7         -0.0464    5.5650   -0.1821 C.ar      1 <0>        -0.1186
     11 C8          1.1522    6.2820   -0.1839 C.ar      1 <0>        -0.0652
     12 C9          1.1311    7.6565   -0.2872 C.ar      1 <0>        -0.1295
     13 C10        -0.0774    8.3293   -0.3771 C.ar      1 <0>         0.0992
     14 C11        -1.2728    7.6232   -0.3696 C.ar      1 <0>         0.0659
     15 C12        -1.2621    6.2461   -0.2728 C.ar      1 <0>        -0.0643
     16 F1         -2.4476    8.2843   -0.4575 F         1 <0>        -0.1194
     17 F2         -0.0922    9.6769   -0.4728 F         1 <0>        -0.1186
     18 H1         -0.5581   -0.6622    1.0587 H         1 <0>         0.1403
     19 H2         -0.6747    1.8196    1.1040 H         1 <0>         0.1494
     20 H3          3.0092    1.9010   -1.0759 H         1 <0>         0.1582
     21 H4          1.3407   -1.7595   -0.0577 H         1 <0>         0.1595
     22 H5          2.0873    4.0019    0.0811 H         1 <0>         0.4372
     23 H6          2.0946    5.7598   -0.1095 H         1 <0>         0.1459
     24 H7          2.0580    8.2106   -0.2935 H         1 <0>         0.1577
     25 H8         -2.1920    5.6967   -0.2670 H         1 <0>         0.1619
@<TRIPOS>BOND
     1    1    6 ar
     2    1    2 ar
     3    1   18 1
     4    2    3 ar
     5    2   19 1
     6    3    4 ar
     7    3    7 1
     8    4    5 ar
     9    4   20 1
    10    5    6 ar
    11    6   21 1
    12    7    8 am
    13    7   22 1
    14    8    9 2
    15    8   10 1
    16   10   15 ar
    17   10   11 ar
    18   11   12 ar
    19   11   23 1
    20   12   13 ar
    21   12   24 1
    22   13   14 ar
    23   13   17 1
    24   14   15 ar
    25   14   16 1
    26   15   25 1
@<TRIPOS>MOLECULE
ZINC32170235
   31    32     0     0     0
SMALL
USER_CHARGES
1-[(2,4,6-trimethylphenyl)methyl]imidazole
@<TRIPOS>ATOM
      1 C1          0.1374    2.5067    4.8042 C.3       1 <0>        -0.1208
      2 C2         -0.6462    2.2518    3.5425 C.ar      1 <0>        -0.0643
      3 C3         -2.0121    2.4638    3.5224 C.ar      1 <0>        -0.1298
      4 C4         -2.7308    2.2304    2.3649 C.ar      1 <0>        -0.0539
      5 C5         -2.0831    1.7892    1.2262 C.ar      1 <0>        -0.1283
      6 C6         -0.7181    1.5718    1.2479 C.ar      1 <0>        -0.0549
      7 C7          0.0007    1.8056    2.4053 C.ar      1 <0>        -0.1292
      8 C8         -0.0127    1.0858    0.0080 C.3       1 <0>        -0.1276
      9 C9         -2.8657    1.5402   -0.0373 C.3       1 <0>         0.1401
     10 N1         -3.3338    0.1521   -0.0562 N.pl3     1 <0>        -0.4501
     11 C10        -4.5192   -0.3123    0.4467 C.2       1 <0>        -0.0547
     12 C11        -4.5453   -1.6395    0.2200 C.2       1 <0>        -0.0301
     13 N2         -3.4069   -1.9763   -0.4043 N.2       1 <0>        -0.4943
     14 C12        -2.6790   -0.9073   -0.5783 C.2       1 <0>         0.1793
     15 C13        -4.2198    2.4619    2.3430 C.3       1 <0>        -0.1283
     16 H1         -0.5438    2.8540    5.5950 H         1 <0>         0.0672
     17 H2          0.8999    3.2761    4.6131 H         1 <0>         0.0729
     18 H3          0.6280    1.5760    5.1254 H         1 <0>         0.0726
     19 H4         -2.5176    2.8120    4.4110 H         1 <0>         0.1241
     20 H5          1.0678    1.6400    2.4209 H         1 <0>         0.1246
     21 H6          1.0611    0.9723    0.2178 H         1 <0>         0.0722
     22 H7         -0.1528    1.8153   -0.8033 H         1 <0>         0.0744
     23 H8         -0.4316    0.1150   -0.2955 H         1 <0>         0.0716
     24 H9         -3.7303    2.2193   -0.0729 H         1 <0>         0.1045
     25 H10        -2.2209    1.7216   -0.9098 H         1 <0>         0.1037
     26 H11        -5.2858    0.2731    0.9324 H         1 <0>         0.1716
     27 H12        -5.3430   -2.3144    0.4930 H         1 <0>         0.1686
     28 H13        -1.7119   -0.8755   -1.0579 H         1 <0>         0.2011
     29 H14        -4.6132    2.2241    1.3437 H         1 <0>         0.0668
     30 H15        -4.4306    3.5154    2.5789 H         1 <0>         0.0753
     31 H16        -4.7024    1.8151    3.0905 H         1 <0>         0.0758
@<TRIPOS>BOND
     1    1    2 1
     2    1   16 1
     3    1   17 1
     4    1   18 1
     5    2    7 ar
     6    2    3 ar
     7    3    4 ar
     8    3   19 1
     9    4    5 ar
    10    4   15 1
    11    5    6 ar
    12    5    9 1
    13    6    7 ar
    14    6    8 1
    15    7   20 1
    16    8   21 1
    17    8   22 1
    18    8   23 1
    19    9   10 1
    20    9   24 1
    21    9   25 1
    22   10   14 1
    23   10   11 1
    24   11   12 2
    25   11   26 1
    26   12   13 1
    27   12   27 1
    28   13   14 2
    29   14   28 1
    30   15   29 1
    31   15   30 1
    32   15   31 1
@<TRIPOS>MOLECULE
ZINC32170235
   32    33     0     0     0
SMALL
USER_CHARGES
1-[(2,4,6-trimethylphenyl)methyl]imidazole
@<TRIPOS>ATOM
      1 C1          0.1374    2.5067    4.8042 C.3       1 <0>        -0.1304
      2 C2         -0.6462    2.2518    3.5425 C.ar      1 <0>        -0.0424
      3 C3         -2.0121    2.4638    3.5224 C.ar      1 <0>        -0.1272
      4 C4         -2.7308    2.2304    2.3649 C.ar      1 <0>        -0.0454
      5 C5         -2.0831    1.7892    1.2262 C.ar      1 <0>        -0.1580
      6 C6         -0.7181    1.5718    1.2479 C.ar      1 <0>        -0.0528
      7 C7          0.0007    1.8056    2.4053 C.ar      1 <0>        -0.1270
      8 C8         -0.0127    1.0858    0.0080 C.3       1 <0>        -0.1278
      9 C9         -2.8657    1.5402   -0.0373 C.3       1 <0>         0.1324
     10 N1         -3.3338    0.1521   -0.0562 N.pl3     1 <0>        -0.4005
     11 C10        -4.5192   -0.3123    0.4467 C.2       1 <0>         0.0194
     12 C11        -4.5453   -1.6395    0.2200 C.2       1 <0>        -0.0036
     13 N2         -3.4069   -1.9763   -0.4043 N.pl3     1 <0>        -0.4941
     14 C12        -2.6790   -0.9073   -0.5783 C.cat     1 <0>         0.2879
     15 C13        -4.2198    2.4619    2.3430 C.3       1 <0>        -0.1338
     16 H1         -0.5438    2.8540    5.5950 H         1 <0>         0.0729
     17 H2          0.8999    3.2761    4.6131 H         1 <0>         0.0805
     18 H3          0.6280    1.5760    5.1254 H         1 <0>         0.0785
     19 H4         -2.5176    2.8120    4.4110 H         1 <0>         0.1319
     20 H5          1.0678    1.6400    2.4209 H         1 <0>         0.1317
     21 H6          1.0611    0.9723    0.2178 H         1 <0>         0.0826
     22 H7         -0.1528    1.8153   -0.8033 H         1 <0>         0.0818
     23 H8         -0.4316    0.1150   -0.2955 H         1 <0>         0.0567
     24 H9         -3.7303    2.2193   -0.0729 H         1 <0>         0.1343
     25 H10        -2.2209    1.7216   -0.9098 H         1 <0>         0.1285
     26 H11        -5.2858    0.2731    0.9324 H         1 <0>         0.2167
     27 H12        -5.3430   -2.3144    0.4930 H         1 <0>         0.2215
     28 H13        -1.7119   -0.8755   -1.0579 H         1 <0>         0.2524
     29 H14        -4.6132    2.2241    1.3437 H         1 <0>         0.0610
     30 H15        -4.4306    3.5154    2.5789 H         1 <0>         0.0864
     31 H16        -4.7024    1.8151    3.0905 H         1 <0>         0.0814
     32 H17        -3.2205   -3.0246   -0.6806 H         1 <0>         0.5047
@<TRIPOS>BOND
     1    1    2 1
     2    1   16 1
     3    1   17 1
     4    1   18 1
     5    2    7 ar
     6    2    3 ar
     7    3    4 ar
     8    3   19 1
     9    4    5 ar
    10    4   15 1
    11    5    6 ar
    12    5    9 1
    13    6    7 ar
    14    6    8 1
    15    7   20 1
    16    8   21 1
    17    8   22 1
    18    8   23 1
    19    9   10 1
    20    9   24 1
    21    9   25 1
    22   10   14 1
    23   10   11 1
    24   11   12 2
    25   11   26 1
    26   12   13 1
    27   12   27 1
    28   13   14 2
    29   13   32 1
    30   14   28 1
    31   15   29 1
    32   15   30 1
    33   15   31 1
@<TRIPOS>MOLECULE
ZINC39378570
   25    26     0     0     0
SMALL
USER_CHARGES

@<TRIPOS>ATOM
      1 C1         -0.3575    1.4609    0.0453 C.3       1 <0>        -0.1267
      2 C2         -0.1570   -0.0326    0.0233 C.ar      1 <0>        -0.0633
      3 C3         -0.2549   -0.7258   -1.1689 C.ar      1 <0>        -0.1214
      4 C4         -0.0710   -2.0955   -1.1889 C.ar      1 <0>        -0.1043
      5 C5          0.2113   -2.7723   -0.0169 C.ar      1 <0>        -0.1262
      6 C6          0.3100   -2.0792    1.1748 C.ar      1 <0>        -0.0952
      7 C7          0.1303   -0.7085    1.1942 C.ar      1 <0>        -0.1213
      8 C8          0.2432    0.0479    2.4927 C.3       1 <0>         0.1450
      9 N1          1.5886    0.6152    2.6120 N.pl3     1 <0>        -0.4528
     10 C9          2.7018   -0.0267    3.0838 C.2       1 <0>        -0.0531
     11 C10         3.7168    0.8560    3.0203 C.2       1 <0>        -0.0299
     12 N2          3.2365    2.0055    2.5233 N.2       1 <0>        -0.4947
     13 C11         1.9635    1.8671    2.2717 C.2       1 <0>         0.1797
     14 H1          0.6102    1.9584   -0.0188 H         1 <0>         0.0765
     15 H2         -0.9752    1.7570   -0.8026 H         1 <0>         0.0724
     16 H3         -0.8526    1.7474    0.9731 H         1 <0>         0.0688
     17 H4         -0.4754   -0.1970   -2.0844 H         1 <0>         0.1257
     18 H5         -0.1482   -2.6371   -2.1201 H         1 <0>         0.1255
     19 H6          0.3543   -3.8427   -0.0325 H         1 <0>         0.1255
     20 H7          0.5302   -2.6080    2.0904 H         1 <0>         0.1232
     21 H8         -0.4929    0.8517    2.5101 H         1 <0>         0.1053
     22 H9          0.0598   -0.6307    3.3257 H         1 <0>         0.0993
     23 H10         2.7556   -1.0452    3.4390 H         1 <0>         0.1717
     24 H11         4.7385    0.6708    3.3174 H         1 <0>         0.1690
     25 H12         1.3165    2.6284    1.8618 H         1 <0>         0.2012
@<TRIPOS>BOND
     1    1    2 1
     2    1   14 1
     3    1   15 1
     4    1   16 1
     5    2    7 ar
     6    2    3 ar
     7    3    4 ar
     8    3   17 1
     9    4    5 ar
    10    4   18 1
    11    5    6 ar
    12    5   19 1
    13    6    7 ar
    14    6   20 1
    15    7    8 1
    16    8    9 1
    17    8   21 1
    18    8   22 1
    19    9   13 1
    20    9   10 1
    21   10   11 2
    22   10   23 1
    23   11   12 1
    24   11   24 1
    25   12   13 2
    26   13   25 1
@<TRIPOS>MOLECULE
ZINC39378570
   26    27     0     0     0
SMALL
USER_CHARGES

@<TRIPOS>ATOM
      1 C1         -0.3574    1.4620    0.0459 C.3       1 <0>        -0.1321
      2 C2         -0.1572   -0.0315    0.0233 C.ar      1 <0>        -0.0635
      3 C3         -0.2552   -0.7241   -1.1692 C.ar      1 <0>        -0.1174
      4 C4         -0.0716   -2.0938   -1.1898 C.ar      1 <0>        -0.0860
      5 C5          0.2106   -2.7713   -0.0181 C.ar      1 <0>        -0.1203
      6 C6          0.3095   -2.0787    1.1739 C.ar      1 <0>        -0.0871
      7 C7          0.1301   -0.7079    1.1939 C.ar      1 <0>        -0.1497
      8 C8          0.2432    0.0479    2.4927 C.3       1 <0>         0.1381
      9 N1          1.5886    0.6152    2.6120 N.pl3     1 <0>        -0.3997
     10 C9          2.7019   -0.0269    3.0833 C.2       1 <0>         0.0289
     11 C10         3.7169    0.8559    3.0200 C.2       1 <0>         0.0033
     12 N2          3.2365    2.0056    2.5236 N.pl3     1 <0>        -0.4756
     13 C11         1.9634    1.8672    2.2722 C.cat     1 <0>         0.2807
     14 H1          0.6104    1.9594   -0.0181 H         1 <0>         0.0680
     15 H2         -0.9750    1.7586   -0.8018 H         1 <0>         0.0845
     16 H3         -0.8524    1.7483    0.9739 H         1 <0>         0.0714
     17 H4         -0.4757   -0.1950   -2.0845 H         1 <0>         0.1327
     18 H5         -0.1489   -2.6350   -2.1213 H         1 <0>         0.1339
     19 H6          0.3534   -3.8417   -0.0341 H         1 <0>         0.1340
     20 H7          0.5297   -2.6079    2.0892 H         1 <0>         0.1296
     21 H8         -0.4929    0.8517    2.5106 H         1 <0>         0.1297
     22 H9          0.0600   -0.6311    3.3254 H         1 <0>         0.1312
     23 H10         2.7558   -1.0455    3.4381 H         1 <0>         0.2215
     24 H11         4.7386    0.6706    3.3169 H         1 <0>         0.2240
     25 H12         1.3163    2.6287    1.8626 H         1 <0>         0.2556
     26 H13         3.7544    2.8116    2.3719 H         1 <0>         0.4647
@<TRIPOS>BOND
     1    1    2 1
     2    1   14 1
     3    1   15 1
     4    1   16 1
     5    2    7 ar
     6    2    3 ar
     7    3    4 ar
     8    3   17 1
     9    4    5 ar
    10    4   18 1
    11    5    6 ar
    12    5   19 1
    13    6    7 ar
    14    6   20 1
    15    7    8 1
    16    8    9 1
    17    8   21 1
    18    8   22 1
    19    9   13 1
    20    9   10 1
    21   10   11 2
    22   10   23 1
    23   11   12 1
    24   11   24 1
    25   12   13 2
    26   12   26 1
    27   13   25 1
@<TRIPOS>MOLECULE
ZINC35143441
   25    26     0     0     0
SMALL
USER_CHARGES

@<TRIPOS>ATOM
      1 C1         -0.0184    1.5028    0.0103 C.3       1 <0>        -0.1176
      2 C2          0.0021   -0.0041    0.0020 C.ar      1 <0>        -0.0846
      3 C3          0.0057   -0.6888   -1.1991 C.ar      1 <0>        -0.1103
      4 C4          0.0245   -2.0707   -1.2067 C.ar      1 <0>        -0.1154
      5 C5          0.0400   -2.7685   -0.0132 C.ar      1 <0>        -0.1048
      6 C6          0.0373   -2.0840    1.1875 C.ar      1 <0>        -0.1148
      7 C7          0.0229   -0.7015    1.1951 C.ar      1 <0>        -0.1006
      8 C8          0.0538   -2.8445    2.4885 C.3       1 <0>         0.1469
      9 N1          1.4402   -3.0731    2.9030 N.pl3     1 <0>        -0.4551
     10 C9          2.2201   -4.1482    2.5721 C.2       1 <0>        -0.0547
     11 C10         3.4165   -3.9573    3.1601 C.2       1 <0>        -0.0298
     12 N2          3.3685   -2.7972    3.8316 N.2       1 <0>        -0.4951
     13 C11         2.1894   -2.2595    3.6780 C.2       1 <0>         0.1829
     14 H1          1.0042    1.8801    0.0026 H         1 <0>         0.0729
     15 H2         -0.5455    1.8639   -0.8728 H         1 <0>         0.0687
     16 H3         -0.5286    1.8543    0.9071 H         1 <0>         0.0681
     17 H4         -0.0064   -0.1437   -2.1314 H         1 <0>         0.1250
     18 H5          0.0266   -2.6056   -2.1449 H         1 <0>         0.1261
     19 H6          0.0540   -3.8484   -0.0191 H         1 <0>         0.1220
     20 H7          0.0246   -0.1666    2.1333 H         1 <0>         0.1232
     21 H8         -0.4637   -2.2663    3.2539 H         1 <0>         0.1031
     22 H9         -0.4484   -3.8028    2.3555 H         1 <0>         0.1011
     23 H10         1.9314   -4.9883    1.9579 H         1 <0>         0.1720
     24 H11         4.2659   -4.6218    3.1012 H         1 <0>         0.1690
     25 H12         1.8654   -1.3208    4.1025 H         1 <0>         0.2016
@<TRIPOS>BOND
     1    1    2 1
     2    1   14 1
     3    1   15 1
     4    1   16 1
     5    2    7 ar
     6    2    3 ar
     7    3    4 ar
     8    3   17 1
     9    4    5 ar
    10    4   18 1
    11    5    6 ar
    12    5   19 1
    13    6    7 ar
    14    6    8 1
    15    7   20 1
    16    8    9 1
    17    8   21 1
    18    8   22 1
    19    9   13 1
    20    9   10 1
    21   10   11 2
    22   10   23 1
    23   11   12 1
    24   11   24 1
    25   12   13 2
    26   13   25 1
@<TRIPOS>MOLECULE
ZINC35143441
   26    27     0     0     0
SMALL
USER_CHARGES

@<TRIPOS>ATOM
      1 C1         -0.0184    1.5028    0.0103 C.3       1 <0>        -0.1240
      2 C2          0.0021   -0.0041    0.0020 C.ar      1 <0>        -0.0782
      3 C3          0.0057   -0.6888   -1.1991 C.ar      1 <0>        -0.0931
      4 C4          0.0245   -2.0707   -1.2067 C.ar      1 <0>        -0.1105
      5 C5          0.0400   -2.7685   -0.0132 C.ar      1 <0>        -0.0988
      6 C6          0.0373   -2.0840    1.1875 C.ar      1 <0>        -0.1448
      7 C7          0.0229   -0.7015    1.1951 C.ar      1 <0>        -0.1000
      8 C8          0.0538   -2.8445    2.4885 C.3       1 <0>         0.1409
      9 N1          1.4402   -3.0731    2.9030 N.pl3     1 <0>        -0.4029
     10 C9          2.2203   -4.1480    2.5718 C.2       1 <0>         0.0271
     11 C10         3.4166   -3.9572    3.1599 C.2       1 <0>         0.0025
     12 N2          3.3684   -2.7974    3.8319 N.pl3     1 <0>        -0.4766
     13 C11         2.1892   -2.2598    3.6783 C.cat     1 <0>         0.2875
     14 H1          1.0042    1.8801    0.0026 H         1 <0>         0.0762
     15 H2         -0.5455    1.8639   -0.8728 H         1 <0>         0.0751
     16 H3         -0.5286    1.8543    0.9071 H         1 <0>         0.0717
     17 H4         -0.0064   -0.1437   -2.1314 H         1 <0>         0.1329
     18 H5          0.0266   -2.6056   -2.1449 H         1 <0>         0.1339
     19 H6          0.0540   -3.8484   -0.0191 H         1 <0>         0.1275
     20 H7          0.0246   -0.1666    2.1333 H         1 <0>         0.1264
     21 H8         -0.4637   -2.2663    3.2539 H         1 <0>         0.1287
     22 H9         -0.4484   -3.8028    2.3555 H         1 <0>         0.1317
     23 H10         1.9317   -4.9879    1.9572 H         1 <0>         0.2213
     24 H11         4.2660   -4.6215    3.1008 H         1 <0>         0.2233
     25 H12         1.8652   -1.3212    4.1032 H         1 <0>         0.2575
     26 H13         4.0963   -2.4165    4.3475 H         1 <0>         0.4646
@<TRIPOS>BOND
     1    1    2 1
     2    1   14 1
     3    1   15 1
     4    1   16 1
     5    2    7 ar
     6    2    3 ar
     7    3    4 ar
     8    3   17 1
     9    4    5 ar
    10    4   18 1
    11    5    6 ar
    12    5   19 1
    13    6    7 ar
    14    6    8 1
    15    7   20 1
    16    8    9 1
    17    8   21 1
    18    8   22 1
    19    9   13 1
    20    9   10 1
    21   10   11 2
    22   10   23 1
    23   11   12 1
    24   11   24 1
    25   12   13 2
    26   12   26 1
    27   13   25 1
@<TRIPOS>MOLECULE
ZINC66112335
   28    29     0     0     0
SMALL
USER_CHARGES

@<TRIPOS>ATOM
      1 C1         -0.0184    1.5028    0.0103 C.3       1 <0>        -0.1171
      2 C2          0.0021   -0.0041    0.0020 C.ar      1 <0>        -0.0800
      3 C3          0.0057   -0.6887   -1.1989 C.ar      1 <0>        -0.1117
      4 C4          0.0245   -2.0708   -1.2065 C.ar      1 <0>        -0.0806
      5 C5          0.0400   -2.7685   -0.0132 C.ar      1 <0>        -0.1058
      6 C6          0.0373   -2.0839    1.1877 C.ar      1 <0>        -0.1103
      7 C7          0.0229   -0.7016    1.1953 C.ar      1 <0>        -0.1066
      8 C8          0.0537   -2.8444    2.4887 C.3       1 <0>         0.1473
      9 N1          1.4401   -3.0730    2.9032 N.pl3     1 <0>        -0.4548
     10 C9          2.2200   -4.1482    2.5724 C.2       1 <0>        -0.0546
     11 C10         3.4164   -3.9574    3.1604 C.2       1 <0>        -0.0298
     12 N2          3.3684   -2.7973    3.8319 N.2       1 <0>        -0.4952
     13 C11         2.1893   -2.2595    3.6782 C.2       1 <0>         0.1831
     14 C12         0.0274   -2.8172   -2.5157 C.3       1 <0>        -0.1169
     15 H1          1.0042    1.8801    0.0026 H         1 <0>         0.0728
     16 H2         -0.5455    1.8639   -0.8728 H         1 <0>         0.0684
     17 H3         -0.5286    1.8543    0.9071 H         1 <0>         0.0682
     18 H4         -0.0064   -0.1436   -2.1312 H         1 <0>         0.1243
     19 H5          0.0540   -3.8484   -0.0191 H         1 <0>         0.1215
     20 H6          0.0245   -0.1667    2.1335 H         1 <0>         0.1228
     21 H7         -0.4637   -2.2661    3.2541 H         1 <0>         0.1032
     22 H8         -0.4485   -3.8026    2.3557 H         1 <0>         0.1008
     23 H9          1.9312   -4.9883    1.9582 H         1 <0>         0.1717
     24 H10         4.2657   -4.6219    3.1016 H         1 <0>         0.1689
     25 H11         1.8654   -1.3208    4.1027 H         1 <0>         0.2015
     26 H12         1.0557   -2.9831   -2.8370 H         1 <0>         0.0725
     27 H13        -0.4727   -3.7772   -2.3878 H         1 <0>         0.0678
     28 H14        -0.4985   -2.2310   -3.2693 H         1 <0>         0.0685
@<TRIPOS>BOND
     1    1    2 1
     2    1   15 1
     3    1   16 1
     4    1   17 1
     5    2    7 ar
     6    2    3 ar
     7    3    4 ar
     8    3   18 1
     9    4    5 ar
    10    4   14 1
    11    5    6 ar
    12    5   19 1
    13    6    7 ar
    14    6    8 1
    15    7   20 1
    16    8    9 1
    17    8   21 1
    18    8   22 1
    19    9   13 1
    20    9   10 1
    21   10   11 2
    22   10   23 1
    23   11   12 1
    24   11   24 1
    25   12   13 2
    26   13   25 1
    27   14   26 1
    28   14   27 1
    29   14   28 1
@<TRIPOS>MOLECULE
ZINC66112335
   29    30     0     0     0
SMALL
USER_CHARGES

@<TRIPOS>ATOM
      1 C1         -0.0184    1.5028    0.0103 C.3       1 <0>        -0.1235
      2 C2          0.0021   -0.0041    0.0020 C.ar      1 <0>        -0.0731
      3 C3          0.0057   -0.6887   -1.1989 C.ar      1 <0>        -0.0963
      4 C4          0.0245   -2.0708   -1.2065 C.ar      1 <0>        -0.0723
      5 C5          0.0400   -2.7685   -0.0132 C.ar      1 <0>        -0.1016
      6 C6          0.0373   -2.0839    1.1877 C.ar      1 <0>        -0.1396
      7 C7          0.0229   -0.7016    1.1953 C.ar      1 <0>        -0.1068
      8 C8          0.0537   -2.8444    2.4887 C.3       1 <0>         0.1412
      9 N1          1.4401   -3.0730    2.9032 N.pl3     1 <0>        -0.4026
     10 C9          2.2201   -4.1480    2.5720 C.2       1 <0>         0.0272
     11 C10         3.4165   -3.9572    3.1602 C.2       1 <0>         0.0024
     12 N2          3.3683   -2.7974    3.8322 N.pl3     1 <0>        -0.4766
     13 C11         2.1891   -2.2598    3.6786 C.cat     1 <0>         0.2877
     14 C12         0.0274   -2.8172   -2.5157 C.3       1 <0>        -0.1239
     15 H1          1.0042    1.8801    0.0026 H         1 <0>         0.0761
     16 H2         -0.5455    1.8639   -0.8728 H         1 <0>         0.0748
     17 H3         -0.5286    1.8543    0.9071 H         1 <0>         0.0718
     18 H4         -0.0064   -0.1436   -2.1312 H         1 <0>         0.1321
     19 H5          0.0540   -3.8484   -0.0191 H         1 <0>         0.1269
     20 H6          0.0245   -0.1667    2.1335 H         1 <0>         0.1259
     21 H7         -0.4637   -2.2661    3.2541 H         1 <0>         0.1288
     22 H8         -0.4485   -3.8026    2.3557 H         1 <0>         0.1314
     23 H9          1.9315   -4.9879    1.9574 H         1 <0>         0.2210
     24 H10         4.2659   -4.6216    3.1011 H         1 <0>         0.2233
     25 H11         1.8651   -1.3212    4.1035 H         1 <0>         0.2575
     26 H12         1.0557   -2.9831   -2.8370 H         1 <0>         0.0768
     27 H13        -0.4727   -3.7772   -2.3878 H         1 <0>         0.0722
     28 H14        -0.4985   -2.2310   -3.2693 H         1 <0>         0.0746
     29 H15         4.0962   -2.4166    4.3478 H         1 <0>         0.4646
@<TRIPOS>BOND
     1    1    2 1
     2    1   15 1
     3    1   16 1
     4    1   17 1
     5    2    7 ar
     6    2    3 ar
     7    3    4 ar
     8    3   18 1
     9    4    5 ar
    10    4   14 1
    11    5    6 ar
    12    5   19 1
    13    6    7 ar
    14    6    8 1
    15    7   20 1
    16    8    9 1
    17    8   21 1
    18    8   22 1
    19    9   13 1
    20    9   10 1
    21   10   11 2
    22   10   23 1
    23   11   12 1
    24   11   24 1
    25   12   13 2
    26   12   29 1
    27   13   25 1
    28   14   26 1
    29   14   27 1
    30   14   28 1
@<TRIPOS>MOLECULE
ZINC57476216
   34    36     0     0     0
SMALL
USER_CHARGES

@<TRIPOS>ATOM
      1 C1         -0.0184    1.5028    0.0103 C.3       1 <0>        -0.1168
      2 C2          0.0021   -0.0041    0.0020 C.ar      1 <0>        -0.0799
      3 C3          0.0057   -0.6887   -1.1989 C.ar      1 <0>        -0.1114
      4 C4          0.0245   -2.0708   -1.2065 C.ar      1 <0>        -0.0804
      5 C5          0.0400   -2.7685   -0.0132 C.ar      1 <0>        -0.1069
      6 C6          0.0373   -2.0839    1.1877 C.ar      1 <0>        -0.1114
      7 C7          0.0229   -0.7016    1.1953 C.ar      1 <0>        -0.1046
      8 C8          0.0537   -2.8444    2.4887 C.3       1 <0>         0.1543
      9 N1          1.4401   -3.0730    2.9032 N.pl3     1 <0>        -0.4877
     10 C9          2.1836   -4.1845    2.6532 C.2       1 <0>         0.2621
     11 N2          3.3725   -4.0518    3.1648 N.2       1 <0>        -0.4956
     12 C10         3.4732   -2.8448    3.7787 C.ar      1 <0>         0.0431
     13 C11         2.2363   -2.1980    3.6148 C.ar      1 <0>         0.0516
     14 C12         2.0458   -0.9283    4.1421 C.ar      1 <0>        -0.1108
     15 C13         3.0741   -0.3095    4.8212 C.ar      1 <0>        -0.1012
     16 C14         4.2959   -0.9471    4.9797 C.ar      1 <0>        -0.1292
     17 C15         4.4993   -2.1998    4.4733 C.ar      1 <0>        -0.0635
     18 C16         0.0274   -2.8172   -2.5157 C.3       1 <0>        -0.1168
     19 H1          1.0042    1.8801    0.0026 H         1 <0>         0.0725
     20 H2         -0.5455    1.8639   -0.8728 H         1 <0>         0.0685
     21 H3         -0.5286    1.8543    0.9071 H         1 <0>         0.0677
     22 H4         -0.0064   -0.1436   -2.1312 H         1 <0>         0.1242
     23 H5          0.0540   -3.8484   -0.0191 H         1 <0>         0.1227
     24 H6          0.0245   -0.1667    2.1335 H         1 <0>         0.1205
     25 H7         -0.4637   -2.2661    3.2541 H         1 <0>         0.0977
     26 H8         -0.4485   -3.8026    2.3557 H         1 <0>         0.1056
     27 H9          1.8372   -5.0510    2.1095 H         1 <0>         0.2112
     28 H10         1.0968   -0.4273    4.0208 H         1 <0>         0.1186
     29 H11         2.9274    0.6785    5.2320 H         1 <0>         0.1294
     30 H12         5.0927   -0.4505    5.5135 H         1 <0>         0.1293
     31 H13         5.4549   -2.6865    4.6015 H         1 <0>         0.1285
     32 H14         1.0557   -2.9831   -2.8370 H         1 <0>         0.0723
     33 H15        -0.4727   -3.7772   -2.3878 H         1 <0>         0.0681
     34 H16        -0.4985   -2.2310   -3.2693 H         1 <0>         0.0683
@<TRIPOS>BOND
     1    1    2 1
     2    1   19 1
     3    1   20 1
     4    1   21 1
     5    2    7 ar
     6    2    3 ar
     7    3    4 ar
     8    3   22 1
     9    4    5 ar
    10    4   18 1
    11    5    6 ar
    12    5   23 1
    13    6    7 ar
    14    6    8 1
    15    7   24 1
    16    8    9 1
    17    8   25 1
    18    8   26 1
    19    9   13 1
    20    9   10 1
    21   10   11 2
    22   10   27 1
    23   11   12 1
    24   12   17 ar
    25   12   13 ar
    26   13   14 ar
    27   14   15 ar
    28   14   28 1
    29   15   16 ar
    30   15   29 1
    31   16   17 ar
    32   16   30 1
    33   17   31 1
    34   18   32 1
    35   18   33 1
    36   18   34 1
@<TRIPOS>MOLECULE
ZINC04352741
   42    45     0     0     0
SMALL
USER_CHARGES
1-tritylimidazole
@<TRIPOS>ATOM
      1 C1          3.8945    5.5085    0.3874 C.ar      1 <0>        -0.1027
      2 C2          3.2644    5.1107   -0.7769 C.ar      1 <0>        -0.1195
      3 C3          2.8074    3.8125   -0.9066 C.ar      1 <0>        -0.1011
      4 C4          2.9804    2.9122    0.1281 C.ar      1 <0>        -0.1031
      5 C5          3.6058    3.3115    1.2944 C.ar      1 <0>        -0.0931
      6 C6          4.0675    4.6083    1.4220 C.ar      1 <0>        -0.1182
      7 C7          2.4818    1.4971   -0.0131 C.3       1 <0>         0.3011
      8 C8          2.8119    0.7212    1.2358 C.ar      1 <0>        -0.0962
      9 C9          4.1262    0.4073    1.5274 C.ar      1 <0>        -0.0956
     10 C10         4.4295   -0.3002    2.6755 C.ar      1 <0>        -0.1184
     11 C11         3.4176   -0.7030    3.5268 C.ar      1 <0>        -0.1101
     12 C12         2.1028   -0.3936    3.2326 C.ar      1 <0>        -0.1158
     13 C13         1.8000    0.3185    2.0871 C.ar      1 <0>        -0.1052
     14 C14         3.1460    0.8465   -1.1991 C.ar      1 <0>        -0.0960
     15 C15         4.1343    1.5193   -1.8930 C.ar      1 <0>        -0.1031
     16 C16         4.7470    0.9205   -2.9779 C.ar      1 <0>        -0.1191
     17 C17         4.3641   -0.3470   -3.3752 C.ar      1 <0>        -0.1080
     18 C18         3.3721   -1.0177   -2.6845 C.ar      1 <0>        -0.1179
     19 C19         2.7631   -0.4210   -1.5964 C.ar      1 <0>        -0.0990
     20 N1          1.0303    1.5084   -0.2117 N.pl3     1 <0>        -0.4444
     21 C20         0.2249    0.4142   -0.3785 C.2       1 <0>        -0.0559
     22 C21        -1.0311    0.8749   -0.5326 C.2       1 <0>        -0.0259
     23 N2         -0.9948    2.2134   -0.4533 N.2       1 <0>        -0.4907
     24 C22         0.2372    2.6000   -0.2644 C.2       1 <0>         0.1894
     25 H1          4.2512    6.5229    0.4889 H         1 <0>         0.1276
     26 H2          3.1289    5.8141   -1.5851 H         1 <0>         0.1295
     27 H3          2.3148    3.5018   -1.8161 H         1 <0>         0.1263
     28 H4          3.7370    2.6094    2.1044 H         1 <0>         0.1312
     29 H5          4.5595    4.9192    2.3318 H         1 <0>         0.1278
     30 H6          4.9164    0.7182    0.8600 H         1 <0>         0.1240
     31 H7          5.4567   -0.5422    2.9052 H         1 <0>         0.1269
     32 H8          3.6541   -1.2596    4.4215 H         1 <0>         0.1255
     33 H9          1.3121   -0.7086    3.8974 H         1 <0>         0.1259
     34 H10         0.7727    0.5599    1.8570 H         1 <0>         0.1281
     35 H11         4.4304    2.5113   -1.5852 H         1 <0>         0.1320
     36 H12         5.5217    1.4446   -3.5177 H         1 <0>         0.1262
     37 H13         4.8396   -0.8130   -4.2255 H         1 <0>         0.1253
     38 H14         3.0727   -2.0077   -2.9952 H         1 <0>         0.1262
     39 H15         1.9879   -0.9448   -1.0570 H         1 <0>         0.1241
     40 H16         0.5373   -0.6195   -0.3891 H         1 <0>         0.1719
     41 H17        -1.9134    0.2722   -0.6899 H         1 <0>         0.1699
     42 H18         0.5676    3.6235   -0.1661 H         1 <0>         0.2000
@<TRIPOS>BOND
     1    1    6 ar
     2    1    2 ar
     3    1   25 1
     4    2    3 ar
     5    2   26 1
     6    3    4 ar
     7    3   27 1
     8    4    5 ar
     9    4    7 1
    10    5    6 ar
    11    5   28 1
    12    6   29 1
    13    7    8 1
    14    7   14 1
    15    7   20 1
    16    8   13 ar
    17    8    9 ar
    18    9   10 ar
    19    9   30 1
    20   10   11 ar
    21   10   31 1
    22   11   12 ar
    23   11   32 1
    24   12   13 ar
    25   12   33 1
    26   13   34 1
    27   14   19 ar
    28   14   15 ar
    29   15   16 ar
    30   15   35 1
    31   16   17 ar
    32   16   36 1
    33   17   18 ar
    34   17   37 1
    35   18   19 ar
    36   18   38 1
    37   19   39 1
    38   20   24 1
    39   20   21 1
    40   21   22 2
    41   21   40 1
    42   22   23 1
    43   22   41 1
    44   23   24 2
    45   24   42 1
@<TRIPOS>MOLECULE
ZINC05128638
   29    31     0     0     0
SMALL
USER_CHARGES
2-(3-thienylmethylene)tetralin-1-one
@<TRIPOS>ATOM
      1 C1         -1.4471   -7.1796    0.1650 C.ar      1 <0>        -0.0867
      2 C2         -0.1381   -7.4505    0.5234 C.ar      1 <0>        -0.1363
      3 C3          0.8017   -6.4399    0.5233 C.ar      1 <0>        -0.0602
      4 C4          0.4254   -5.1458    0.1697 C.ar      1 <0>        -0.1618
      5 C5         -0.8877   -4.8832   -0.2232 C.ar      1 <0>        -0.0360
      6 C6         -1.8202   -5.9010   -0.2087 C.ar      1 <0>        -0.1327
      7 C7         -1.2816   -3.5070   -0.6872 C.3       1 <0>        -0.0862
      8 C8         -0.5307   -2.4346    0.1031 C.3       1 <0>        -0.0815
      9 C9          0.9497   -2.7109    0.0812 C.2       1 <0>        -0.2088
     10 C10         1.8324   -1.6873   -0.0240 C.2       1 <0>         0.0150
     11 C11         1.3592   -0.3021    0.0425 C.2       1 <0>        -0.1284
     12 C12         2.0471    0.7644   -0.6439 C.2       1 <0>        -0.1351
     13 C13         1.5346    2.0037   -0.5212 C.2       1 <0>        -0.1877
     14 S1          0.1137    1.7542    0.5231 S.3       1 <0>         0.1083
     15 C14         0.2321    0.0440    0.7669 C.2       1 <0>        -0.1843
     16 C15         1.4148   -4.0445    0.1769 C.2       1 <0>         0.4353
     17 O1          2.6065   -4.2814    0.2631 O.2       1 <0>        -0.4597
     18 H1         -2.1818   -7.9711    0.1774 H         1 <0>         0.1280
     19 H2          0.1481   -8.4535    0.8036 H         1 <0>         0.1295
     20 H3          1.8251   -6.6514    0.7961 H         1 <0>         0.1331
     21 H4         -2.8431   -5.6987   -0.4903 H         1 <0>         0.1294
     22 H5         -1.0484   -3.4054   -1.7471 H         1 <0>         0.0855
     23 H6         -2.3535   -3.3727   -0.5421 H         1 <0>         0.0859
     24 H7         -0.8813   -2.4308    1.1351 H         1 <0>         0.0791
     25 H8         -0.7217   -1.4585   -0.3428 H         1 <0>         0.0924
     26 H9          2.8843   -1.8929   -0.1569 H         1 <0>         0.1371
     27 H10         2.9346    0.5770   -1.2301 H         1 <0>         0.1433
     28 H11         1.8971    2.9253   -0.9520 H         1 <0>         0.1887
     29 H12        -0.4170   -0.5975    1.3445 H         1 <0>         0.1948
@<TRIPOS>BOND
     1    1    6 ar
     2    1    2 ar
     3    1   18 1
     4    2    3 ar
     5    2   19 1
     6    3    4 ar
     7    3   20 1
     8    4   16 1
     9    4    5 ar
    10    5    6 ar
    11    5    7 1
    12    6   21 1
    13    7    8 1
    14    7   22 1
    15    7   23 1
    16    8    9 1
    17    8   24 1
    18    8   25 1
    19    9   10 2
    20    9   16 1
    21   10   11 1
    22   10   26 1
    23   11   15 2
    24   11   12 1
    25   12   13 2
    26   12   27 1
    27   13   14 1
    28   13   28 1
    29   14   15 1
    30   15   29 1
    31   16   17 2
@<TRIPOS>MOLECULE
ZINC04695499
   31    33     0     0     0
SMALL
USER_CHARGES
(2E)-2-(3-pyridylmethylene)tetralin-1-one
@<TRIPOS>ATOM
      1 C1         -0.8131    1.4046    0.1681 C.ar      1 <0>        -0.0838
      2 C2          0.4464    0.8859    0.4135 C.ar      1 <0>        -0.1357
      3 C3          1.5408    1.7251    0.4354 C.ar      1 <0>        -0.0613
      4 C4          1.3724    3.0922    0.2112 C.ar      1 <0>        -0.1644
      5 C5          0.1061    3.6149   -0.0384 C.ar      1 <0>        -0.0283
      6 C6         -0.9833    2.7580   -0.0496 C.ar      1 <0>        -0.1356
      7 C7         -0.1288    5.0755   -0.3061 C.3       1 <0>        -0.0834
      8 C8          0.9645    5.9521    0.2986 C.3       1 <0>        -0.0891
      9 C9          2.3144    5.3979   -0.1186 C.2       1 <0>        -0.1815
     10 C10         3.2283    6.1398   -0.7812 C.2       1 <0>        -0.0347
     11 C11         3.0095    7.5825   -0.9670 C.ar      1 <0>        -0.1218
     12 C12         3.4321    8.2234   -2.1417 C.ar      1 <0>        -0.0564
     13 C13         3.1979    9.5803   -2.2678 C.ar      1 <0>        -0.1716
     14 C14         2.5699   10.2587   -1.2377 C.ar      1 <0>         0.1060
     15 N1          2.1871    9.6322   -0.1413 N.ar      1 <0>        -0.4837
     16 C15         2.3817    8.3410    0.0263 C.ar      1 <0>         0.1144
     17 C16         2.5570    3.9887    0.2528 C.2       1 <0>         0.4368
     18 O1          3.6602    3.5862    0.5729 O.2       1 <0>        -0.4413
     19 H1         -1.6697    0.7471    0.1510 H         1 <0>         0.1287
     20 H2          0.5724   -0.1733    0.5828 H         1 <0>         0.1309
     21 H3          2.5258    1.3252    0.6260 H         1 <0>         0.1343
     22 H4         -1.9722    3.1509   -0.2341 H         1 <0>         0.1298
     23 H5         -1.0899    5.3636    0.1198 H         1 <0>         0.0887
     24 H6         -0.1576    5.2379   -1.3836 H         1 <0>         0.0865
     25 H7          0.8839    5.9400    1.3855 H         1 <0>         0.0852
     26 H8          0.8605    6.9744   -0.0648 H         1 <0>         0.0931
     27 H9          4.1196    5.6737   -1.1745 H         1 <0>         0.1360
     28 H10         3.9239    7.6705   -2.9284 H         1 <0>         0.1394
     29 H11         3.5057   10.1063   -3.1594 H         1 <0>         0.1402
     30 H12         2.3897   11.3192   -1.3331 H         1 <0>         0.1593
     31 H13         2.0538    7.8637    0.9380 H         1 <0>         0.1632
@<TRIPOS>BOND
     1    1    6 ar
     2    1    2 ar
     3    1   19 1
     4    2    3 ar
     5    2   20 1
     6    3    4 ar
     7    3   21 1
     8    4   17 1
     9    4    5 ar
    10    5    6 ar
    11    5    7 1
    12    6   22 1
    13    7    8 1
    14    7   23 1
    15    7   24 1
    16    8    9 1
    17    8   25 1
    18    8   26 1
    19    9   10 2
    20    9   17 1
    21   10   11 1
    22   10   27 1
    23   11   16 ar
    24   11   12 ar
    25   12   13 ar
    26   12   28 1
    27   13   14 ar
    28   13   29 1
    29   14   15 ar
    30   14   30 1
    31   15   16 ar
    32   16   31 1
    33   17   18 2
@<TRIPOS>MOLECULE
ZINC13674486
   24    26     0     0     0
SMALL
USER_CHARGES
3-imidazol-1-ylquinoline
@<TRIPOS>ATOM
      1 C1          5.8157   -1.8916   -0.0617 C.ar      1 <0>        -0.1036
      2 C2          6.7847   -0.8900   -0.0661 C.ar      1 <0>        -0.0986
      3 C3          6.4359    0.4251   -0.0559 C.ar      1 <0>        -0.0866
      4 C4          5.0772    0.7872   -0.0412 C.ar      1 <0>         0.1154
      5 C5          4.0934   -0.2332   -0.0372 C.ar      1 <0>        -0.0776
      6 C6          4.4904   -1.5807   -0.0484 C.ar      1 <0>        -0.0998
      7 C7          2.7342    0.1279   -0.0224 C.ar      1 <0>        -0.0743
      8 C8          2.4201    1.4730   -0.0125 C.ar      1 <0>         0.0820
      9 C9          3.4467    2.4234   -0.0226 C.ar      1 <0>         0.1288
     10 N1          4.7086    2.0719   -0.0314 N.ar      1 <0>        -0.4433
     11 N2          1.0794    1.8837    0.0019 N.pl3     1 <0>        -0.4099
     12 C10         0.6231    3.1764    0.0132 C.2       1 <0>        -0.0548
     13 C11        -0.7220    3.1152    0.0257 C.2       1 <0>        -0.0164
     14 N3         -1.0825    1.8233    0.0165 N.2       1 <0>        -0.4804
     15 C12        -0.0126    1.0758    0.0080 C.2       1 <0>         0.1888
     16 H1          6.1200   -2.9278   -0.0693 H         1 <0>         0.1334
     17 H2          7.8298   -1.1622   -0.0775 H         1 <0>         0.1352
     18 H3          7.2000    1.1884   -0.0588 H         1 <0>         0.1402
     19 H4          3.7485   -2.3655   -0.0451 H         1 <0>         0.1352
     20 H5          1.9591   -0.6241   -0.0186 H         1 <0>         0.1494
     21 H6          3.1924    3.4730   -0.0188 H         1 <0>         0.1669
     22 H7          1.2266    4.0721    0.0119 H         1 <0>         0.1822
     23 H8         -1.3944    3.9603    0.0367 H         1 <0>         0.1783
     24 H9          0.0021   -0.0041    0.0020 H         1 <0>         0.2093
@<TRIPOS>BOND
     1    1    6 ar
     2    1    2 ar
     3    1   16 1
     4    2    3 ar
     5    2   17 1
     6    3    4 ar
     7    3   18 1
     8    4   10 ar
     9    4    5 ar
    10    5    6 ar
    11    5    7 ar
    12    6   19 1
    13    7    8 ar
    14    7   20 1
    15    8    9 ar
    16    8   11 1
    17    9   10 ar
    18    9   21 1
    19   11   15 1
    20   11   12 1
    21   12   13 2
    22   12   22 1
    23   13   14 1
    24   13   23 1
    25   14   15 2
    26   15   24 1
@<TRIPOS>MOLECULE
ZINC13674486
   25    27     0     0     0
SMALL
USER_CHARGES
3-imidazol-1-ylquinoline
@<TRIPOS>ATOM
      1 C1          5.8157   -1.8916   -0.0617 C.ar      1 <0>        -0.0925
      2 C2          6.7847   -0.8900   -0.0661 C.ar      1 <0>        -0.0750
      3 C3          6.4359    0.4251   -0.0559 C.ar      1 <0>        -0.0914
      4 C4          5.0772    0.7872   -0.0412 C.ar      1 <0>         0.1387
      5 C5          4.0934   -0.2332   -0.0372 C.ar      1 <0>        -0.0893
      6 C6          4.4904   -1.5807   -0.0484 C.ar      1 <0>        -0.0967
      7 C7          2.7342    0.1279   -0.0224 C.ar      1 <0>        -0.0310
      8 C8          2.4201    1.4730   -0.0125 C.ar      1 <0>         0.0192
      9 C9          3.4467    2.4234   -0.0226 C.ar      1 <0>         0.1445
     10 N1          4.7086    2.0719   -0.0314 N.ar      1 <0>        -0.4297
     11 N2          1.0794    1.8837    0.0019 N.pl3     1 <0>        -0.3450
     12 C10         0.6231    3.1764    0.0132 C.2       1 <0>         0.0213
     13 C11        -0.7220    3.1152    0.0257 C.2       1 <0>         0.0156
     14 C12        -0.0126    1.0758    0.0080 C.cat     1 <0>         0.2798
     15 H1          6.1200   -2.9278   -0.0693 H         1 <0>         0.1430
     16 H2          7.8298   -1.1622   -0.0775 H         1 <0>         0.1455
     17 H3          7.2000    1.1884   -0.0588 H         1 <0>         0.1494
     18 H4          3.7485   -2.3655   -0.0451 H         1 <0>         0.1417
     19 H5          1.9591   -0.6241   -0.0186 H         1 <0>         0.1553
     20 H6          3.1924    3.4730   -0.0188 H         1 <0>         0.1728
     21 H7          1.2266    4.0721    0.0119 H         1 <0>         0.2264
     22 H8         -1.3944    3.9603    0.0367 H         1 <0>         0.2291
     23 H9          0.0021   -0.0041    0.0020 H         1 <0>         0.2597
     24 N3         -1.0818    1.8236    0.0165 N.pl3     1 <0>        -0.4766
     25 H10        -2.0483    1.4769    0.0162 H         1 <0>         0.4850
@<TRIPOS>BOND
     1    1    6 ar
     2    1    2 ar
     3    1   15 1
     4    2    3 ar
     5    2   16 1
     6    3    4 ar
     7    3   17 1
     8    4   10 ar
     9    4    5 ar
    10    5    6 ar
    11    5    7 ar
    12    6   18 1
    13    7    8 ar
    14    7   19 1
    15    8    9 ar
    16    8   11 1
    17    9   10 ar
    18    9   20 1
    19   11   14 1
    20   11   12 1
    21   12   13 2
    22   12   21 1
    23   13   22 1
    24   13   24 1
    25   14   23 1
    26   14   24 2
    27   24   25 1
@<TRIPOS>MOLECULE
ZINC13674492
   24    26     0     0     0
SMALL
USER_CHARGES
5-(2-naphthyl)oxazole
@<TRIPOS>ATOM
      1 C1         -1.1990    1.7433    0.0172 C.ar      1 <0>        -0.1104
      2 C2         -1.2391    3.1363    0.0298 C.ar      1 <0>        -0.1139
      3 C3         -0.0927    3.8696    0.0228 C.ar      1 <0>        -0.1033
      4 C4          1.1522    3.2151    0.0079 C.ar      1 <0>        -0.0516
      5 C5          2.3529    3.9408   -0.0005 C.ar      1 <0>        -0.0804
      6 C6          3.5592    3.2609   -0.0152 C.ar      1 <0>        -0.0145
      7 C7          3.5862    1.8547   -0.0227 C.ar      1 <0>        -0.0968
      8 C8          2.4345    1.1365   -0.0151 C.ar      1 <0>        -0.0965
      9 C9          1.1927    1.7977    0.0003 C.ar      1 <0>        -0.0468
     10 C10        -0.0126    1.0758    0.0080 C.ar      1 <0>        -0.1073
     11 C11         4.8278    4.0186   -0.0236 C.2       1 <0>        -0.0045
     12 C12         6.0819    3.4975   -0.0330 C.2       1 <0>        -0.0200
     13 N1          6.9454    4.5238   -0.0418 N.2       1 <0>        -0.4855
     14 C13         6.2738    5.6410   -0.0290 C.2       1 <0>         0.1765
     15 O1          4.9630    5.3631   -0.0175 O.3       1 <0>        -0.1996
     16 H1         -2.1234    1.1847    0.0189 H         1 <0>         0.1261
     17 H2         -2.1937    3.6412    0.0409 H         1 <0>         0.1263
     18 H3         -0.1385    4.9486    0.0290 H         1 <0>         0.1294
     19 H4          2.3365    5.0206    0.0052 H         1 <0>         0.1339
     20 H5          4.5354    1.3398   -0.0349 H         1 <0>         0.1315
     21 H6          2.4714    0.0571   -0.0214 H         1 <0>         0.1364
     22 H7          0.0021   -0.0041    0.0020 H         1 <0>         0.1304
     23 H8          6.3373    2.4481   -0.0353 H         1 <0>         0.1872
     24 H9          6.7046    6.6314   -0.0278 H         1 <0>         0.2533
@<TRIPOS>BOND
     1    1   10 ar
     2    1    2 ar
     3    1   16 1
     4    2    3 ar
     5    2   17 1
     6    3    4 ar
     7    3   18 1
     8    4    9 ar
     9    4    5 ar
    10    5    6 ar
    11    5   19 1
    12    6    7 ar
    13    6   11 1
    14    7    8 ar
    15    7   20 1
    16    8    9 ar
    17    8   21 1
    18    9   10 ar
    19   10   22 1
    20   11   15 1
    21   11   12 2
    22   12   13 1
    23   12   23 1
    24   13   14 2
    25   14   15 1
    26   14   24 1
@<TRIPOS>MOLECULE
ZINC13283158
   33    36     0     0     0
SMALL
USER_CHARGES
3-(fluoren-9-ylidenemethyl)pyridine
@<TRIPOS>ATOM
      1 C1          2.9775   -2.5123   -1.9599 C.ar      1 <0>        -0.1116
      2 C2          3.3710   -1.2049   -1.7238 C.ar      1 <0>        -0.1121
      3 C3          2.4785   -0.2913   -1.2019 C.ar      1 <0>        -0.0970
      4 C4          1.1722   -0.6826   -0.9152 C.ar      1 <0>        -0.0661
      5 C5          0.7727   -2.0101   -1.1494 C.ar      1 <0>        -0.0515
      6 C6          1.6896   -2.9182   -1.6773 C.ar      1 <0>        -0.0938
      7 C7         -0.6447   -2.1537   -0.7550 C.ar      1 <0>        -0.0494
      8 C8         -1.5147   -3.2427   -0.7855 C.ar      1 <0>        -0.0939
      9 C9         -2.8151   -3.0989   -0.3476 C.ar      1 <0>        -0.1124
     10 C10        -3.2677   -1.8774    0.1243 C.ar      1 <0>        -0.1143
     11 C11        -2.4224   -0.7875    0.1618 C.ar      1 <0>        -0.0908
     12 C12        -1.1056   -0.9148   -0.2758 C.ar      1 <0>        -0.0646
     13 C13         0.0144    0.0463   -0.3561 C.2       1 <0>        -0.0359
     14 C14        -0.0163    1.3543    0.0095 C.2       1 <0>        -0.0533
     15 C15         1.2352    2.1176    0.1142 C.ar      1 <0>        -0.1218
     16 C16         1.3281    3.4137   -0.4168 C.ar      1 <0>        -0.0584
     17 C17         2.5284    4.0882   -0.2908 C.ar      1 <0>        -0.1735
     18 C18         3.5896    3.4708    0.3482 C.ar      1 <0>         0.1037
     19 N1          3.4754    2.2510    0.8381 N.ar      1 <0>        -0.4848
     20 C19         2.3536    1.5678    0.7499 C.ar      1 <0>         0.1263
     21 H1          3.6844   -3.2191   -2.3687 H         1 <0>         0.1290
     22 H2          4.3819   -0.8993   -1.9499 H         1 <0>         0.1279
     23 H3          2.7906    0.7265   -1.0199 H         1 <0>         0.1278
     24 H4          1.3917   -3.9393   -1.8646 H         1 <0>         0.1258
     25 H5         -1.1708   -4.1986   -1.1521 H         1 <0>         0.1258
     26 H6         -3.4855   -3.9453   -0.3727 H         1 <0>         0.1289
     27 H7         -4.2879   -1.7776    0.4643 H         1 <0>         0.1295
     28 H8         -2.7804    0.1623    0.5307 H         1 <0>         0.1262
     29 H9         -0.9608    1.8344    0.2189 H         1 <0>         0.1401
     30 H10         0.4839    3.8721   -0.9104 H         1 <0>         0.1388
     31 H11         2.6367    5.0871   -0.6868 H         1 <0>         0.1396
     32 H12         4.5277    3.9966    0.4473 H         1 <0>         0.1589
     33 H13         2.2975    0.5735    1.1678 H         1 <0>         0.1571
@<TRIPOS>BOND
     1    1    6 ar
     2    1    2 ar
     3    1   21 1
     4    2    3 ar
     5    2   22 1
     6    3    4 ar
     7    3   23 1
     8    4   13 1
     9    4    5 ar
    10    5    6 ar
    11    5    7 1
    12    6   24 1
    13    7   12 ar
    14    7    8 ar
    15    8    9 ar
    16    8   25 1
    17    9   10 ar
    18    9   26 1
    19   10   11 ar
    20   10   27 1
    21   11   12 ar
    22   11   28 1
    23   12   13 1
    24   13   14 2
    25   14   15 1
    26   14   29 1
    27   15   20 ar
    28   15   16 ar
    29   16   17 ar
    30   16   30 1
    31   17   18 ar
    32   17   31 1
    33   18   19 ar
    34   18   32 1
    35   19   20 ar
    36   20   33 1
@<TRIPOS>MOLECULE
ZINC13674480
   25    27     0     0     0
SMALL
USER_CHARGES
1-(2-naphthyl)imidazole
@<TRIPOS>ATOM
      1 C1         -0.0126    1.0758    0.0080 C.ar      1 <0>        -0.1151
      2 C2         -1.2348    1.7456    0.0174 C.ar      1 <0>        -0.1055
      3 C3         -1.2882    3.1054    0.0301 C.ar      1 <0>        -0.1087
      4 C4         -0.0949    3.8486    0.0227 C.ar      1 <0>        -0.0291
      5 C5         -0.1118    5.2528    0.0287 C.ar      1 <0>        -0.1234
      6 C6          1.0680    5.9424    0.0211 C.ar      1 <0>         0.1407
      7 C7          2.2935    5.2673    0.0065 C.ar      1 <0>        -0.1317
      8 C8          2.3427    3.9086   -0.0004 C.ar      1 <0>        -0.0715
      9 C9          1.1480    3.1672    0.0076 C.ar      1 <0>        -0.0624
     10 C10         1.1628    1.7621    0.0004 C.ar      1 <0>        -0.1002
     11 N1          1.0502    7.3442    0.0275 N.pl3     1 <0>        -0.4133
     12 C11         2.1423    8.1732    0.0264 C.2       1 <0>        -0.0543
     13 C12         1.6736    9.4355    0.0319 C.2       1 <0>        -0.0203
     14 N2          0.3333    9.3847    0.0444 N.2       1 <0>        -0.4833
     15 C13        -0.0522    8.1378    0.0419 C.2       1 <0>         0.1883
     16 H1          0.0021   -0.0041    0.0020 H         1 <0>         0.1271
     17 H2         -2.1530    1.1770    0.0187 H         1 <0>         0.1276
     18 H3         -2.2425    3.6110    0.0419 H         1 <0>         0.1309
     19 H4         -1.0517    5.7847    0.0399 H         1 <0>         0.1367
     20 H5          3.2132    5.8334    0.0004 H         1 <0>         0.1330
     21 H6          3.2957    3.4007   -0.0116 H         1 <0>         0.1395
     22 H7          2.1022    1.2294   -0.0114 H         1 <0>         0.1310
     23 H8          3.1793    7.8716    0.0205 H         1 <0>         0.1788
     24 H9          2.2733   10.3337    0.0302 H         1 <0>         0.1763
     25 H10        -1.0761    7.7944    0.0504 H         1 <0>         0.2089
@<TRIPOS>BOND
     1    1   10 ar
     2    1    2 ar
     3    1   16 1
     4    2    3 ar
     5    2   17 1
     6    3    4 ar
     7    3   18 1
     8    4    9 ar
     9    4    5 ar
    10    5    6 ar
    11    5   19 1
    12    6    7 ar
    13    6   11 1
    14    7    8 ar
    15    7   20 1
    16    8    9 ar
    17    8   21 1
    18    9   10 ar
    19   10   22 1
    20   11   15 1
    21   11   12 1
    22   12   13 2
    23   12   23 1
    24   13   14 1
    25   13   24 1
    26   14   15 2
    27   15   25 1
@<TRIPOS>MOLECULE
ZINC13684518
   35    37     0     0     0
SMALL
USER_CHARGES
3-(1-ethyl-3,4-dihydronaphthalen-2-yl)pyridine
@<TRIPOS>ATOM
      1 C1         -2.3500    1.1756    3.3215 C.3       1 <0>        -0.1461
      2 C2         -1.8956    0.1693    2.2624 C.3       1 <0>        -0.0931
      3 C3         -2.8200    0.2387    1.0742 C.2       1 <0>        -0.0593
      4 C4         -2.5053    1.0046    0.0195 C.2       1 <0>        -0.0824
      5 C5         -3.4334    1.1165   -1.1590 C.3       1 <0>        -0.0746
      6 C6         -4.1283   -0.2206   -1.4244 C.3       1 <0>        -0.0790
      7 C7         -4.7325   -0.7472   -0.1496 C.ar      1 <0>        -0.0735
      8 C8         -4.0741   -0.5340    1.0658 C.ar      1 <0>        -0.0480
      9 C9         -4.5922   -1.0764    2.2404 C.ar      1 <0>        -0.1033
     10 C10        -5.7745   -1.7881    2.2016 C.ar      1 <0>        -0.1241
     11 C11        -6.4372   -1.9701    1.0006 C.ar      1 <0>        -0.1139
     12 C12        -5.9154   -1.4531   -0.1732 C.ar      1 <0>        -0.1179
     13 C13        -1.2350    1.7521    0.0174 C.ar      1 <0>        -0.0908
     14 C14        -1.2324    3.1536    0.0298 C.ar      1 <0>        -0.0661
     15 C15        -0.0131    3.8066    0.0217 C.ar      1 <0>        -0.1686
     16 C16         1.1538    3.0631    0.0071 C.ar      1 <0>         0.0952
     17 N1          1.1219    1.7444    0.0007 N.ar      1 <0>        -0.4816
     18 C17        -0.0126    1.0758    0.0080 C.ar      1 <0>         0.1103
     19 H1         -1.6814    1.1254    4.1809 H         1 <0>         0.0586
     20 H2         -2.3266    2.1811    2.9012 H         1 <0>         0.0539
     21 H3         -3.3658    0.9373    3.6370 H         1 <0>         0.0577
     22 H4         -1.9191   -0.8361    2.6827 H         1 <0>         0.0736
     23 H5         -0.8799    0.4077    1.9469 H         1 <0>         0.0763
     24 H6         -4.1835    1.8803   -0.9539 H         1 <0>         0.0778
     25 H7         -2.8608    1.4044   -2.0407 H         1 <0>         0.0778
     26 H8         -3.4028   -0.9396   -1.8048 H         1 <0>         0.0806
     27 H9         -4.9153   -0.0750   -2.1644 H         1 <0>         0.0814
     28 H10        -4.0715   -0.9402    3.1767 H         1 <0>         0.1262
     29 H11        -6.1834   -2.2036    3.1108 H         1 <0>         0.1237
     30 H12        -7.3669   -2.5191    0.9786 H         1 <0>         0.1229
     31 H13        -6.4361   -1.6029   -1.1074 H         1 <0>         0.1241
     32 H14        -2.1584    3.7092    0.0413 H         1 <0>         0.1340
     33 H15         0.0277    4.8859    0.0264 H         1 <0>         0.1368
     34 H16         2.1069    3.5711    0.0011 H         1 <0>         0.1562
     35 H17         0.0021   -0.0041    0.0020 H         1 <0>         0.1553
@<TRIPOS>BOND
     1    1    2 1
     2    1   19 1
     3    1   20 1
     4    1   21 1
     5    2    3 1
     6    2   22 1
     7    2   23 1
     8    3    8 1
     9    3    4 2
    10    4    5 1
    11    4   13 1
    12    5    6 1
    13    5   24 1
    14    5   25 1
    15    6    7 1
    16    6   26 1
    17    6   27 1
    18    7   12 ar
    19    7    8 ar
    20    8    9 ar
    21    9   10 ar
    22    9   28 1
    23   10   11 ar
    24   10   29 1
    25   11   12 ar
    26   11   30 1
    27   12   31 1
    28   13   18 ar
    29   13   14 ar
    30   14   15 ar
    31   14   32 1
    32   15   16 ar
    33   15   33 1
    34   16   17 ar
    35   16   34 1
    36   17   18 ar
    37   18   35 1
@<TRIPOS>MOLECULE
ZINC13684559
   25    26     0     0     0
SMALL
USER_CHARGES
3-styrylpyridine
@<TRIPOS>ATOM
      1 C1          6.0793   -0.4262   -0.1602 C.ar      1 <0>        -0.1159
      2 C2          6.1175   -1.7494    0.2431 C.ar      1 <0>        -0.1207
      3 C3          4.9633   -2.5044    0.2529 C.ar      1 <0>        -0.1109
      4 C4          3.7534   -1.9300   -0.1457 C.ar      1 <0>        -0.0647
      5 C5          3.7236   -0.5948   -0.5567 C.ar      1 <0>        -0.0991
      6 C6          4.8849    0.1493   -0.5563 C.ar      1 <0>        -0.1201
      7 C7          2.5158   -2.7304   -0.1384 C.2       1 <0>        -0.1017
      8 C8          1.3575   -2.1718    0.2466 C.2       1 <0>        -0.1065
      9 C9          1.3523   -0.8262    0.8482 C.ar      1 <0>        -0.1109
     10 C10         2.3735   -0.4327    1.7237 C.ar      1 <0>        -0.0527
     11 C11         2.3213    0.8407    2.2612 C.ar      1 <0>        -0.1723
     12 C12         1.2731    1.6774    1.9210 C.ar      1 <0>         0.0985
     13 N1          0.3249    1.2808    1.0941 N.ar      1 <0>        -0.4846
     14 C13         0.3290    0.0790    0.5559 C.ar      1 <0>         0.1051
     15 H1          6.9862    0.1603   -0.1655 H         1 <0>         0.1221
     16 H2          7.0534   -2.1920    0.5506 H         1 <0>         0.1238
     17 H3          4.9945   -3.5368    0.5683 H         1 <0>         0.1246
     18 H4          2.7929   -0.1456   -0.8703 H         1 <0>         0.1199
     19 H5          4.8627    1.1826   -0.8698 H         1 <0>         0.1214
     20 H6          2.5408   -3.7663   -0.4429 H         1 <0>         0.1316
     21 H7          0.4294   -2.7083    0.1156 H         1 <0>         0.1336
     22 H8          3.1805   -1.1061    1.9719 H         1 <0>         0.1335
     23 H9          3.0885    1.1769    2.9430 H         1 <0>         0.1346
     24 H10         1.2305    2.6721    2.3396 H         1 <0>         0.1551
     25 H11        -0.4653   -0.2095   -0.1166 H         1 <0>         0.1567
@<TRIPOS>BOND
     1    1    6 ar
     2    1    2 ar
     3    1   15 1
     4    2    3 ar
     5    2   16 1
     6    3    4 ar
     7    3   17 1
     8    4    5 ar
     9    4    7 1
    10    5    6 ar
    11    5   18 1
    12    6   19 1
    13    7    8 2
    14    7   20 1
    15    8    9 1
    16    8   21 1
    17    9   14 ar
    18    9   10 ar
    19   10   11 ar
    20   10   22 1
    21   11   12 ar
    22   11   23 1
    23   12   13 ar
    24   12   24 1
    25   13   14 ar
    26   14   25 1
@<TRIPOS>MOLECULE
ZINC13684515
   32    34     0     0     0
SMALL
USER_CHARGES
3-(1-methyl-3,4-dihydronaphthalen-2-yl)pyridine
@<TRIPOS>ATOM
      1 C1          2.8926    2.0707   -2.2367 C.3       1 <0>        -0.1171
      2 C2          3.2882    1.1897   -1.0798 C.2       1 <0>        -0.0656
      3 C3          2.4811    1.0724   -0.0154 C.2       1 <0>        -0.0839
      4 C4          2.8766    0.2287    1.1654 C.3       1 <0>        -0.0754
      5 C5          3.6431   -1.0133    0.7053 C.3       1 <0>        -0.0798
      6 C6          4.7548   -0.6136   -0.2286 C.ar      1 <0>        -0.0731
      7 C7          4.5637    0.4536   -1.1121 C.ar      1 <0>        -0.0502
      8 C8          5.5626    0.7858   -2.0256 C.ar      1 <0>        -0.1032
      9 C9          6.7509    0.0830   -2.0251 C.ar      1 <0>        -0.1240
     10 C10         6.9455   -0.9527   -1.1286 C.ar      1 <0>        -0.1139
     11 C11         5.9482   -1.3019   -0.2338 C.ar      1 <0>        -0.1178
     12 C12         1.1910    1.7851    0.0003 C.ar      1 <0>        -0.0933
     13 C13         1.1504    3.1860    0.0082 C.ar      1 <0>        -0.0639
     14 C14        -0.0861    3.8056    0.0233 C.ar      1 <0>        -0.1700
     15 C15        -1.2324    3.0306    0.0301 C.ar      1 <0>         0.0966
     16 N1         -1.1648    1.7133    0.0169 N.ar      1 <0>        -0.4822
     17 C16        -0.0126    1.0758    0.0080 C.ar      1 <0>         0.1108
     18 H1          3.2689    3.0800   -2.0702 H         1 <0>         0.0712
     19 H2          3.3168    1.6722   -3.1584 H         1 <0>         0.0675
     20 H3          1.8060    2.0969   -2.3185 H         1 <0>         0.0671
     21 H4          3.5066    0.8173    1.8323 H         1 <0>         0.0787
     22 H5          1.9795   -0.0817    1.7013 H         1 <0>         0.0789
     23 H6          2.9635   -1.6914    0.1892 H         1 <0>         0.0808
     24 H7          4.0650   -1.5169    1.5751 H         1 <0>         0.0817
     25 H8          5.4079    1.5896   -2.7302 H         1 <0>         0.1252
     26 H9          7.5305    0.3425   -2.7260 H         1 <0>         0.1239
     27 H10         7.8810   -1.4924   -1.1270 H         1 <0>         0.1232
     28 H11         6.1059   -2.1142    0.4604 H         1 <0>         0.1245
     29 H12         2.0610    3.7667    0.0023 H         1 <0>         0.1340
     30 H13        -0.1562    4.8833    0.0294 H         1 <0>         0.1371
     31 H14        -2.1989    3.5125    0.0419 H         1 <0>         0.1564
     32 H15         0.0021   -0.0041    0.0020 H         1 <0>         0.1558
@<TRIPOS>BOND
     1    1    2 1
     2    1   18 1
     3    1   19 1
     4    1   20 1
     5    2    7 1
     6    2    3 2
     7    3    4 1
     8    3   12 1
     9    4    5 1
    10    4   21 1
    11    4   22 1
    12    5    6 1
    13    5   23 1
    14    5   24 1
    15    6   11 ar
    16    6    7 ar
    17    7    8 ar
    18    8    9 ar
    19    8   25 1
    20    9   10 ar
    21    9   26 1
    22   10   11 ar
    23   10   27 1
    24   11   28 1
    25   12   17 ar
    26   12   13 ar
    27   13   14 ar
    28   13   29 1
    29   14   15 ar
    30   14   30 1
    31   15   16 ar
    32   15   31 1
    33   16   17 ar
    34   17   32 1
@<TRIPOS>MOLECULE
ZINC13684552
   27    29     0     0     0
SMALL
USER_CHARGES
1-(3,4-dihydronaphthalen-2-yl)imidazole
@<TRIPOS>ATOM
      1 C1          1.1730    2.0817    0.0020 C.ar      1 <0>        -0.1070
      2 C2          2.3850    1.4141   -0.0131 C.ar      1 <0>        -0.1233
      3 C3          2.4173    0.0342   -0.0273 C.ar      1 <0>        -0.0949
      4 C4          1.2217   -0.6831   -0.0262 C.ar      1 <0>        -0.0614
      5 C5          0.0021   -0.0041    0.0020 C.ar      1 <0>        -0.0709
      6 C6         -0.0166    1.3741    0.0096 C.ar      1 <0>        -0.1167
      7 C7         -1.2824   -0.7894    0.0478 C.3       1 <0>        -0.0771
      8 C8         -1.1417   -2.0694   -0.7731 C.3       1 <0>        -0.0811
      9 C9          0.1114   -2.8110   -0.3973 C.2       1 <0>         0.0761
     10 C10         1.2242   -2.1576   -0.0638 C.2       1 <0>        -0.0866
     11 N1          0.1092   -4.2025   -0.3981 N.pl3     1 <0>        -0.4210
     12 C11         0.8371   -5.0188   -1.2260 C.2       1 <0>        -0.0513
     13 C12         0.5383   -6.2866   -0.8845 C.2       1 <0>        -0.0257
     14 N2         -0.3538   -6.2522    0.1167 N.2       1 <0>        -0.4885
     15 C13        -0.6192   -5.0101    0.4175 C.2       1 <0>         0.1914
     16 H1          1.1551    3.1616    0.0076 H         1 <0>         0.1260
     17 H2          3.3084    1.9744   -0.0138 H         1 <0>         0.1269
     18 H3          3.3632   -0.4868   -0.0395 H         1 <0>         0.1270
     19 H4         -0.9590    1.9016    0.0169 H         1 <0>         0.1275
     20 H5         -1.5128   -1.0460    1.0818 H         1 <0>         0.0841
     21 H6         -2.0912   -0.1842   -0.3617 H         1 <0>         0.0892
     22 H7         -1.1031   -1.8140   -1.8321 H         1 <0>         0.0873
     23 H8         -2.0053   -2.7087   -0.5898 H         1 <0>         0.0852
     24 H9          2.1232   -2.7051    0.1780 H         1 <0>         0.1300
     25 H10         1.5208   -4.7050   -2.0009 H         1 <0>         0.1751
     26 H11         0.9433   -7.1776   -1.3412 H         1 <0>         0.1731
     27 H12        -1.3026   -4.6796    1.1857 H         1 <0>         0.2066
@<TRIPOS>BOND
     1    1    6 ar
     2    1    2 ar
     3    1   16 1
     4    2    3 ar
     5    2   17 1
     6    3    4 ar
     7    3   18 1
     8    4   10 1
     9    4    5 ar
    10    5    6 ar
    11    5    7 1
    12    6   19 1
    13    7    8 1
    14    7   20 1
    15    7   21 1
    16    8    9 1
    17    8   22 1
    18    8   23 1
    19    9   10 2
    20    9   11 1
    21   10   24 1
    22   11   15 1
    23   11   12 1
    24   12   13 2
    25   12   25 1
    26   13   14 1
    27   13   26 1
    28   14   15 2
    29   15   27 1
@<TRIPOS>MOLECULE
ZINC13684552
   28    30     0     0     0
SMALL
USER_CHARGES
1-(3,4-dihydronaphthalen-2-yl)imidazole
@<TRIPOS>ATOM
      1 C1          1.1730    2.0817    0.0020 C.ar      1 <0>        -0.0843
      2 C2          2.3850    1.4141   -0.0131 C.ar      1 <0>        -0.1230
      3 C3          2.4173    0.0342   -0.0273 C.ar      1 <0>        -0.0778
      4 C4          1.2217   -0.6831   -0.0262 C.ar      1 <0>        -0.0954
      5 C5          0.0021   -0.0041    0.0020 C.ar      1 <0>        -0.0593
      6 C6         -0.0166    1.3741    0.0096 C.ar      1 <0>        -0.1179
      7 C7         -1.2824   -0.7894    0.0478 C.3       1 <0>        -0.0809
      8 C8         -1.1417   -2.0694   -0.7731 C.3       1 <0>        -0.0726
      9 C9          0.1114   -2.8110   -0.3973 C.2       1 <0>         0.0024
     10 C10         1.2242   -2.1576   -0.0638 C.2       1 <0>        -0.0079
     11 N1          0.1092   -4.2025   -0.3981 N.pl3     1 <0>        -0.3551
     12 C11         0.8371   -5.0188   -1.2260 C.2       1 <0>         0.0251
     13 C12         0.5383   -6.2866   -0.8845 C.2       1 <0>         0.0052
     14 C13        -0.6192   -5.0101    0.4175 C.cat     1 <0>         0.2921
     15 H1          1.1551    3.1616    0.0076 H         1 <0>         0.1339
     16 H2          3.3084    1.9744   -0.0138 H         1 <0>         0.1345
     17 H3          3.3632   -0.4868   -0.0395 H         1 <0>         0.1318
     18 H4         -0.9590    1.9016    0.0169 H         1 <0>         0.1340
     19 H5         -1.5128   -1.0460    1.0818 H         1 <0>         0.0882
     20 H6         -2.0912   -0.1842   -0.3617 H         1 <0>         0.0987
     21 H7         -1.1031   -1.8140   -1.8321 H         1 <0>         0.0959
     22 H8         -2.0053   -2.7087   -0.5898 H         1 <0>         0.0856
     23 H9          2.1232   -2.7051    0.1780 H         1 <0>         0.1386
     24 H10         1.5208   -4.7050   -2.0009 H         1 <0>         0.2213
     25 H11         0.9433   -7.1776   -1.3412 H         1 <0>         0.2250
     26 H12        -1.3026   -4.6796    1.1857 H         1 <0>         0.2599
     27 N2         -0.3535   -6.2517    0.1164 N.pl3     1 <0>        -0.4809
     28 H13        -0.7636   -7.0740    0.5746 H         1 <0>         0.4830
@<TRIPOS>BOND
     1    1    6 ar
     2    1    2 ar
     3    1   15 1
     4    2    3 ar
     5    2   16 1
     6    3    4 ar
     7    3   17 1
     8    4   10 1
     9    4    5 ar
    10    5    6 ar
    11    5    7 1
    12    6   18 1
    13    7    8 1
    14    7   19 1
    15    7   20 1
    16    8    9 1
    17    8   21 1
    18    8   22 1
    19    9   10 2
    20    9   11 1
    21   10   23 1
    22   11   14 1
    23   11   12 1
    24   12   13 2
    25   12   24 1
    26   13   25 1
    27   13   27 1
    28   14   26 1
    29   14   27 2
    30   27   28 1
@<TRIPOS>MOLECULE
ZINC04810192
   22    23     0     0     0
SMALL
USER_CHARGES
1-[(4-bromophenyl)methyl]imidazole
@<TRIPOS>ATOM
      1 C1         -2.4965   -0.3703   -2.0466 C.ar      1 <0>        -0.0921
      2 C2         -2.8727   -0.6385   -3.3493 C.ar      1 <0>        -0.0907
      3 C3         -2.3389   -1.7287   -4.0125 C.ar      1 <0>        -0.0810
      4 C4         -1.4249   -2.5470   -3.3735 C.ar      1 <0>        -0.0903
      5 C5         -1.0453   -2.2749   -2.0726 C.ar      1 <0>        -0.0928
      6 C6         -1.5790   -1.1852   -1.4101 C.ar      1 <0>        -0.1038
      7 C7         -1.1652   -0.8893    0.0084 C.3       1 <0>         0.1456
      8 N1          0.0021   -0.0041    0.0020 N.pl3     1 <0>        -0.4572
      9 C8         -0.0165    1.3646    0.0095 C.2       1 <0>        -0.0553
     10 C9          1.2671    1.7717   -0.0005 C.2       1 <0>        -0.0279
     11 N2          2.0482    0.6814   -0.0138 N.2       1 <0>        -0.4938
     12 C10         1.2973   -0.3859   -0.0124 C.2       1 <0>         0.1836
     13 Br1        -2.8582   -2.1000   -5.7925 Br        1 <0>        -0.0424
     14 H1         -2.9163    0.4785   -1.5272 H         1 <0>         0.1330
     15 H2         -3.5861    0.0009   -3.8479 H         1 <0>         0.1370
     16 H3         -1.0076   -3.3981   -3.8911 H         1 <0>         0.1375
     17 H4         -0.3314   -2.9135   -1.5737 H         1 <0>         0.1344
     18 H5         -0.9120   -1.8207    0.5149 H         1 <0>         0.1066
     19 H6         -1.9875   -0.4025    0.5327 H         1 <0>         0.1043
     20 H7         -0.8923    1.9965    0.0173 H         1 <0>         0.1730
     21 H8          1.6079    2.7966    0.0017 H         1 <0>         0.1696
     22 H9          1.6529   -1.4057   -0.0210 H         1 <0>         0.2027
@<TRIPOS>BOND
     1    1    6 ar
     2    1    2 ar
     3    1   14 1
     4    2    3 ar
     5    2   15 1
     6    3    4 ar
     7    3   13 1
     8    4    5 ar
     9    4   16 1
    10    5    6 ar
    11    5   17 1
    12    6    7 1
    13    7    8 1
    14    7   18 1
    15    7   19 1
    16    8   12 1
    17    8    9 1
    18    9   10 2
    19    9   20 1
    20   10   11 1
    21   10   21 1
    22   11   12 2
    23   12   22 1
@<TRIPOS>MOLECULE
ZINC04810192
   23    24     0     0     0
SMALL
USER_CHARGES
1-[(4-bromophenyl)methyl]imidazole
@<TRIPOS>ATOM
      1 C1         -2.4965   -0.3703   -2.0466 C.ar      1 <0>        -0.0846
      2 C2         -2.8727   -0.6385   -3.3493 C.ar      1 <0>        -0.0886
      3 C3         -2.3389   -1.7287   -4.0125 C.ar      1 <0>        -0.0683
      4 C4         -1.4249   -2.5470   -3.3735 C.ar      1 <0>        -0.0894
      5 C5         -1.0453   -2.2749   -2.0726 C.ar      1 <0>        -0.0897
      6 C6         -1.5790   -1.1852   -1.4101 C.ar      1 <0>        -0.1364
      7 C7         -1.1652   -0.8893    0.0084 C.3       1 <0>         0.1406
      8 N1          0.0021   -0.0041    0.0020 N.pl3     1 <0>        -0.4067
      9 C8         -0.0165    1.3646    0.0095 C.2       1 <0>         0.0247
     10 C9          1.2671    1.7717   -0.0005 C.2       1 <0>         0.0048
     11 C10         1.2973   -0.3859   -0.0124 C.cat     1 <0>         0.2877
     12 Br1        -2.8582   -2.1000   -5.7925 Br        1 <0>        -0.0216
     13 H1         -2.9163    0.4785   -1.5272 H         1 <0>         0.1379
     14 H2         -3.5861    0.0009   -3.8479 H         1 <0>         0.1442
     15 H3         -1.0076   -3.3981   -3.8911 H         1 <0>         0.1439
     16 H4         -0.3314   -2.9135   -1.5737 H         1 <0>         0.1370
     17 H5         -0.9120   -1.8207    0.5149 H         1 <0>         0.1314
     18 H6         -1.9875   -0.4025    0.5327 H         1 <0>         0.1338
     19 H7         -0.8923    1.9965    0.0173 H         1 <0>         0.2209
     20 H8          1.6079    2.7966    0.0017 H         1 <0>         0.2228
     21 H9          1.6529   -1.4057   -0.0210 H         1 <0>         0.2574
     22 N2          2.0468    0.6814   -0.0138 N.pl3     1 <0>        -0.4832
     23 H10         3.0735    0.6858   -0.0235 H         1 <0>         0.4814
@<TRIPOS>BOND
     1    1    6 ar
     2    1    2 ar
     3    1   13 1
     4    2    3 ar
     5    2   14 1
     6    3    4 ar
     7    3   12 1
     8    4    5 ar
     9    4   15 1
    10    5    6 ar
    11    5   16 1
    12    6    7 1
    13    7    8 1
    14    7   17 1
    15    7   18 1
    16    8   11 1
    17    8    9 1
    18    9   10 2
    19    9   19 1
    20   10   20 1
    21   10   22 1
    22   11   21 1
    23   11   22 2
    24   22   23 1
@<TRIPOS>MOLECULE
ZINC35143440
   25    26     0     0     0
SMALL
USER_CHARGES

@<TRIPOS>ATOM
      1 C1         -0.0184    1.5028    0.0103 C.3       1 <0>        -0.1197
      2 C2          0.0021   -0.0041    0.0020 C.ar      1 <0>        -0.0734
      3 C3          0.0057   -0.6887   -1.1989 C.ar      1 <0>        -0.1218
      4 C4          0.0245   -2.0709   -1.2065 C.ar      1 <0>        -0.0936
      5 C5          0.0400   -2.7685   -0.0132 C.ar      1 <0>        -0.1259
      6 C6          0.0373   -2.0839    1.1877 C.ar      1 <0>        -0.0944
      7 C7          0.0229   -0.7016    1.1953 C.ar      1 <0>        -0.1213
      8 C8          0.0595   -4.2753   -0.0215 C.3       1 <0>         0.1475
      9 N1          1.4468   -4.7457   -0.0317 N.pl3     1 <0>        -0.4551
     10 C9          2.2117   -4.9953   -1.1392 C.2       1 <0>        -0.0549
     11 C10         3.4153   -5.4066   -0.6968 C.2       1 <0>        -0.0299
     12 N2          3.3862   -5.4081    0.6442 N.2       1 <0>        -0.4953
     13 C11         2.2119   -5.0085    1.0496 C.2       1 <0>         0.1828
     14 H1          1.0042    1.8801    0.0026 H         1 <0>         0.0737
     15 H2         -0.5455    1.8639   -0.8728 H         1 <0>         0.0688
     16 H3         -0.5286    1.8543    0.9071 H         1 <0>         0.0689
     17 H4         -0.0064   -0.1436   -2.1312 H         1 <0>         0.1254
     18 H5          0.0266   -2.6057   -2.1448 H         1 <0>         0.1225
     19 H6          0.0491   -2.6289    2.1200 H         1 <0>         0.1239
     20 H7          0.0245   -0.1667    2.1335 H         1 <0>         0.1259
     21 H8         -0.4447   -4.6501    0.8693 H         1 <0>         0.1029
     22 H9         -0.4546   -4.6404   -0.9106 H         1 <0>         0.1005
     23 H10         1.9081   -4.8842   -2.1696 H         1 <0>         0.1718
     24 H11         4.2566   -5.6862   -1.3136 H         1 <0>         0.1689
     25 H12         1.9023   -4.9073    2.0793 H         1 <0>         0.2017
@<TRIPOS>BOND
     1    1    2 1
     2    1   14 1
     3    1   15 1
     4    1   16 1
     5    2    7 ar
     6    2    3 ar
     7    3    4 ar
     8    3   17 1
     9    4    5 ar
    10    4   18 1
    11    5    6 ar
    12    5    8 1
    13    6    7 ar
    14    6   19 1
    15    7   20 1
    16    8    9 1
    17    8   21 1
    18    8   22 1
    19    9   13 1
    20    9   10 1
    21   10   11 2
    22   10   23 1
    23   11   12 1
    24   11   24 1
    25   12   13 2
    26   13   25 1
@<TRIPOS>MOLECULE
ZINC35143440
   26    27     0     0     0
SMALL
USER_CHARGES

@<TRIPOS>ATOM
      1 C1         -0.0184    1.5028    0.0103 C.3       1 <0>        -0.1292
      2 C2          0.0021   -0.0041    0.0020 C.ar      1 <0>        -0.0505
      3 C3          0.0057   -0.6887   -1.1989 C.ar      1 <0>        -0.1197
      4 C4          0.0245   -2.0709   -1.2065 C.ar      1 <0>        -0.0860
      5 C5          0.0400   -2.7685   -0.0132 C.ar      1 <0>        -0.1585
      6 C6          0.0373   -2.0839    1.1877 C.ar      1 <0>        -0.0910
      7 C7          0.0229   -0.7016    1.1953 C.ar      1 <0>        -0.1204
      8 C8          0.0595   -4.2753   -0.0215 C.3       1 <0>         0.1416
      9 N1          1.4468   -4.7457   -0.0317 N.pl3     1 <0>        -0.4028
     10 C9          2.2118   -4.9949   -1.1392 C.2       1 <0>         0.0268
     11 C10         3.4154   -5.4063   -0.6968 C.2       1 <0>         0.0024
     12 N2          3.3861   -5.4083    0.6442 N.pl3     1 <0>        -0.4768
     13 C11         2.2117   -5.0090    1.0496 C.cat     1 <0>         0.2875
     14 H1          1.0042    1.8801    0.0026 H         1 <0>         0.0800
     15 H2         -0.5455    1.8639   -0.8728 H         1 <0>         0.0753
     16 H3         -0.5286    1.8543    0.9071 H         1 <0>         0.0751
     17 H4         -0.0064   -0.1436   -2.1312 H         1 <0>         0.1332
     18 H5          0.0266   -2.6057   -2.1448 H         1 <0>         0.1279
     19 H6          0.0491   -2.6289    2.1200 H         1 <0>         0.1270
     20 H7          0.0245   -0.1667    2.1335 H         1 <0>         0.1328
     21 H8         -0.4447   -4.6501    0.8693 H         1 <0>         0.1283
     22 H9         -0.4546   -4.6404   -0.9106 H         1 <0>         0.1309
     23 H10         1.9084   -4.8833   -2.1696 H         1 <0>         0.2210
     24 H11         4.2568   -5.6857   -1.3136 H         1 <0>         0.2232
     25 H12         1.9020   -4.9082    2.0793 H         1 <0>         0.2575
     26 H13         4.1228   -5.6629    1.2216 H         1 <0>         0.4646
@<TRIPOS>BOND
     1    1    2 1
     2    1   14 1
     3    1   15 1
     4    1   16 1
     5    2    7 ar
     6    2    3 ar
     7    3    4 ar
     8    3   17 1
     9    4    5 ar
    10    4   18 1
    11    5    6 ar
    12    5    8 1
    13    6    7 ar
    14    6   19 1
    15    7   20 1
    16    8    9 1
    17    8   21 1
    18    8   22 1
    19    9   13 1
    20    9   10 1
    21   10   11 2
    22   10   23 1
    23   11   12 1
    24   11   24 1
    25   12   13 2
    26   12   26 1
    27   13   25 1
@<TRIPOS>MOLECULE
ZINC03797541
   57    61     0     0     0
SMALL
USER_CHARGES
10,13-dimethyl-17-(3-pyridyl)-2,3,4,7,8,9,11,12,14,15-decahydro-1H-cyclopenta[a]phenanthren-3-ol
@<TRIPOS>ATOM
      1 C1         -3.0005    8.6246    4.0035 C.3       1 <0>        -0.1491
      2 C2         -1.5307    9.0386    4.0998 C.3       1 <0>        -0.0133
      3 C3         -1.0142    8.6413    5.4855 C.3       1 <0>        -0.1037
      4 C4         -1.7796    9.4217    6.5560 C.3       1 <0>        -0.1152
      5 C5         -1.5148   10.9190    6.3896 C.3       1 <0>         0.1085
      6 H1         -0.4414   11.1046    6.4279 H         1 <0>         0.0545
      7 C6         -2.0663   11.3880    5.0400 C.3       1 <0>        -0.1172
      8 C7         -1.4536   10.5285    3.9469 C.2       1 <0>        -0.1050
      9 C8         -0.8930   11.1255    2.9362 C.2       1 <0>        -0.1539
     10 C9         -0.2479   10.3827    1.8028 C.3       1 <0>        -0.0846
     11 C10        -0.8955    8.9996    1.6721 C.3       1 <0>        -0.0707
     12 H2         -1.9394    9.0972    1.3741 H         1 <0>         0.0873
     13 C11        -0.7684    8.2826    3.0242 C.3       1 <0>        -0.0658
     14 H3          0.2852    8.2630    3.3028 H         1 <0>         0.0655
     15 C12        -1.2595    6.8398    2.9616 C.3       1 <0>        -0.1222
     16 C13        -0.5949    6.0525    1.8194 C.3       1 <0>        -0.1001
     17 C14        -0.8818    6.8129    0.5418 C.3       1 <0>        -0.0258
     18 C15        -0.1314    8.1758    0.6527 C.3       1 <0>        -0.0812
     19 H4          0.9128    8.0583    0.9427 H         1 <0>         0.0839
     20 C16        -0.2588    8.6096   -0.8146 C.3       1 <0>        -0.0911
     21 C17        -0.0432    7.2868   -1.5501 C.2       1 <0>        -0.1428
     22 C18        -0.3843    6.2636   -0.7530 C.2       1 <0>        -0.0881
     23 C19        -0.2890    4.8303   -1.1016 C.ar      1 <0>        -0.0792
     24 C20         0.9568    4.2349   -1.3302 C.ar      1 <0>        -0.0655
     25 C21         0.9915    2.8899   -1.6531 C.ar      1 <0>        -0.1698
     26 C22        -0.1947    2.1833   -1.7389 C.ar      1 <0>         0.0948
     27 N1         -1.3550    2.7722   -1.5230 N.ar      1 <0>        -0.4826
     28 C23        -1.4393    4.0483   -1.2079 C.ar      1 <0>         0.1106
     29 C24        -2.3860    7.0715    0.4352 C.3       1 <0>        -0.1525
     30 O1         -2.1602   11.6369    7.4433 O.3       1 <0>        -0.5687
     31 H5         -3.3614    8.7990    2.9899 H         1 <0>         0.0560
     32 H6         -3.0965    7.5664    4.2464 H         1 <0>         0.0633
     33 H7         -3.5906    9.2136    4.7057 H         1 <0>         0.0570
     34 H8         -1.1652    7.5725    5.6371 H         1 <0>         0.0735
     35 H9          0.0487    8.8721    5.5573 H         1 <0>         0.0641
     36 H10        -2.8473    9.2284    6.4519 H         1 <0>         0.0738
     37 H11        -1.4484    9.1023    7.5441 H         1 <0>         0.0699
     38 H12        -1.8005   12.4326    4.8778 H         1 <0>         0.0690
     39 H13        -3.1507   11.2785    5.0285 H         1 <0>         0.0800
     40 H14        -0.8920   12.2052    2.9114 H         1 <0>         0.1035
     41 H15         0.8176   10.2685    2.0020 H         1 <0>         0.0729
     42 H16        -0.3873   10.9390    0.8758 H         1 <0>         0.0714
     43 H17        -1.0353    6.3480    3.9082 H         1 <0>         0.0621
     44 H18        -2.3390    6.8392    2.8110 H         1 <0>         0.0765
     45 H19         0.4804    5.9896    1.9866 H         1 <0>         0.0628
     46 H20        -1.0215    5.0512    1.7596 H         1 <0>         0.0622
     47 H21         0.5143    9.3320   -1.0764 H         1 <0>         0.0718
     48 H22        -1.2511    9.0120   -1.0183 H         1 <0>         0.0826
     49 H23         0.3282    7.1907   -2.5597 H         1 <0>         0.1266
     50 H24         1.8676    4.8106   -1.2568 H         1 <0>         0.1336
     51 H25         1.9348    2.3969   -1.8366 H         1 <0>         0.1365
     52 H26        -0.1706    1.1334   -1.9911 H         1 <0>         0.1558
     53 H27        -2.4076    4.4941   -1.0343 H         1 <0>         0.1537
     54 H28        -2.9104    6.1230    0.3194 H         1 <0>         0.0542
     55 H29        -2.7338    7.5709    1.3395 H         1 <0>         0.0747
     56 H30        -2.5854    7.7048   -0.4292 H         1 <0>         0.0576
     57 H31        -2.0345   12.5947    7.4012 H         1 <0>         0.3780
@<TRIPOS>BOND
     1    1    2 1
     2    1   31 1
     3    1   32 1
     4    1   33 1
     5    2    8 1
     6    2   13 1
     7    2    3 1
     8    3    4 1
     9    3   34 1
    10    3   35 1
    11    4    5 1
    12    4   36 1
    13    4   37 1
    14    5    6 1
    15    5    7 1
    16    5   30 1
    17    7    8 1
    18    7   38 1
    19    7   39 1
    20    8    9 2
    21    9   10 1
    22    9   40 1
    23   10   11 1
    24   10   41 1
    25   10   42 1
    26   11   12 1
    27   11   18 1
    28   11   13 1
    29   13   14 1
    30   13   15 1
    31   15   16 1
    32   15   43 1
    33   15   44 1
    34   16   17 1
    35   16   45 1
    36   16   46 1
    37   17   22 1
    38   17   18 1
    39   17   29 1
    40   18   19 1
    41   18   20 1
    42   20   21 1
    43   20   47 1
    44   20   48 1
    45   21   22 2
    46   21   49 1
    47   22   23 1
    48   23   28 ar
    49   23   24 ar
    50   24   25 ar
    51   24   50 1
    52   25   26 ar
    53   25   51 1
    54   26   27 ar
    55   26   52 1
    56   27   28 ar
    57   28   53 1
    58   29   54 1
    59   29   55 1
    60   29   56 1
    61   30   57 1
@<TRIPOS>MOLECULE
ZINC01036032
   32    34     0     0     0
SMALL
USER_CHARGES
2-benzylidenetetralin-1-one
@<TRIPOS>ATOM
      1 C1          2.3783    0.0114    0.2114 C.ar      1 <0>        -0.1099
      2 C2          2.1925    1.1441    0.9850 C.ar      1 <0>        -0.1227
      3 C3          1.0010    1.8353    0.9269 C.ar      1 <0>        -0.1035
      4 C4         -0.0219    1.3888    0.0834 C.ar      1 <0>        -0.0715
      5 C5          0.1737    0.2428   -0.6949 C.ar      1 <0>        -0.0988
      6 C6          1.3712   -0.4370   -0.6256 C.ar      1 <0>        -0.1211
      7 C7         -1.2985    2.1168    0.0197 C.2       1 <0>        -0.0342
      8 C8         -1.3144    3.4631    0.1291 C.2       1 <0>        -0.1882
      9 C9         -0.0446    4.2944    0.1334 C.3       1 <0>        -0.0876
     10 C10        -0.1254    5.3114   -1.0016 C.3       1 <0>        -0.0841
     11 C11        -1.4230    6.0703   -0.9891 C.ar      1 <0>        -0.0279
     12 C12        -1.4612    7.3225   -1.5822 C.ar      1 <0>        -0.1364
     13 C13        -2.6334    8.0528   -1.6038 C.ar      1 <0>        -0.0843
     14 C14        -3.7879    7.5444   -1.0344 C.ar      1 <0>        -0.1364
     15 C15        -3.7673    6.3015   -0.4365 C.ar      1 <0>        -0.0614
     16 C16        -2.5830    5.5637   -0.4086 C.ar      1 <0>        -0.1646
     17 C17        -2.5694    4.2336    0.2469 C.2       1 <0>         0.4358
     18 O1         -3.5363    3.8047    0.8493 O.2       1 <0>        -0.4444
     19 H1          3.3139   -0.5257    0.2615 H         1 <0>         0.1244
     20 H2          2.9832    1.4875    1.6357 H         1 <0>         0.1264
     21 H3          0.8576    2.7189    1.5311 H         1 <0>         0.1310
     22 H4         -0.6113   -0.1085   -1.3483 H         1 <0>         0.1265
     23 H5          1.5238   -1.3216   -1.2261 H         1 <0>         0.1260
     24 H6         -2.2230    1.5750   -0.1145 H         1 <0>         0.1325
     25 H7          0.0483    4.8158    1.0861 H         1 <0>         0.0804
     26 H8          0.8184    3.6451   -0.0141 H         1 <0>         0.0976
     27 H9          0.6990    6.0178   -0.9036 H         1 <0>         0.0873
     28 H10        -0.0317    4.7882   -1.9533 H         1 <0>         0.0865
     29 H11        -0.5675    7.7303   -2.0309 H         1 <0>         0.1294
     30 H12        -2.6493    9.0275   -2.0688 H         1 <0>         0.1284
     31 H13        -4.7022    8.1189   -1.0585 H         1 <0>         0.1306
     32 H14        -4.6657    5.9001    0.0087 H         1 <0>         0.1340
@<TRIPOS>BOND
     1    1    6 ar
     2    1    2 ar
     3    1   19 1
     4    2    3 ar
     5    2   20 1
     6    3    4 ar
     7    3   21 1
     8    4    5 ar
     9    4    7 1
    10    5    6 ar
    11    5   22 1
    12    6   23 1
    13    7    8 2
    14    7   24 1
    15    8   17 1
    16    8    9 1
    17    9   10 1
    18    9   25 1
    19    9   26 1
    20   10   11 1
    21   10   27 1
    22   10   28 1
    23   11   16 ar
    24   11   12 ar
    25   12   13 ar
    26   12   29 1
    27   13   14 ar
    28   13   30 1
    29   14   15 ar
    30   14   31 1
    31   15   16 ar
    32   15   32 1
    33   16   17 1
    34   17   18 2
@<TRIPOS>MOLECULE
ZINC01851916
   31    33     0     0     0
SMALL
USER_CHARGES

@<TRIPOS>ATOM
      1 C1         -0.0169    1.3921    0.0097 C.ar      1 <0>        -0.0659
      2 C2          1.1702    2.0948    0.0021 C.ar      1 <0>        -0.0889
      3 C3          2.3776    1.4194   -0.0130 C.ar      1 <0>        -0.1188
      4 C4          2.4037    0.0360   -0.0212 C.ar      1 <0>        -0.0984
      5 C5          1.2242   -0.6793   -0.0142 C.ar      1 <0>        -0.0675
      6 C6          0.0021   -0.0041    0.0020 C.ar      1 <0>         0.0121
      7 C7         -1.2263   -0.7401    0.0103 C.1       1 <0>         0.2288
      8 N1         -2.2007   -1.3240    0.0168 N.1       1 <0>        -0.3771
      9 C8          3.6703    2.1939   -0.0212 C.3       1 <0>         0.1748
     10 C9          4.5030    1.8175    1.2094 C.3       1 <0>        -0.1352
     11 C10         5.9068    2.4163    1.0859 C.3       1 <0>        -0.1336
     12 C11         6.6734    1.6874   -0.0264 C.3       1 <0>        -0.0636
     13 C12         5.7868    1.6287   -1.2436 C.2       1 <0>         0.0573
     14 N2          4.4349    1.8611   -1.2253 N.pl3     1 <0>        -0.4026
     15 C13         3.9901    1.7226   -2.4861 C.cat     1 <0>         0.2965
     16 N3          5.0040    1.4183   -3.2541 N.pl3     1 <0>        -0.4781
     17 C14         6.1220    1.3548   -2.5103 C.2       1 <0>         0.0037
     18 H1         -0.9586    1.9206    0.0260 H         1 <0>         0.1469
     19 H2          1.1570    3.1747    0.0077 H         1 <0>         0.1449
     20 H3          3.3496   -0.4850   -0.0333 H         1 <0>         0.1328
     21 H4          1.2459   -1.7590   -0.0213 H         1 <0>         0.1436
     22 H5          3.4562    3.2626   -0.0078 H         1 <0>         0.1340
     23 H6          4.0207    2.2061    2.1063 H         1 <0>         0.1134
     24 H7          4.5766    0.7323    1.2793 H         1 <0>         0.0897
     25 H8          5.8303    3.4756    0.8410 H         1 <0>         0.0802
     26 H9          6.4371    2.2982    2.0309 H         1 <0>         0.1014
     27 H10         7.5871    2.2329   -0.2623 H         1 <0>         0.1145
     28 H11         6.9207    0.6767    0.2982 H         1 <0>         0.1103
     29 H12         2.9669    1.8422   -2.8105 H         1 <0>         0.2564
     30 H13         7.1136    1.1240   -2.8705 H         1 <0>         0.2234
     31 H14         4.9566    1.2623   -4.2103 H         1 <0>         0.4648
@<TRIPOS>BOND
     1    1    6 ar
     2    1    2 ar
     3    1   18 1
     4    2    3 ar
     5    2   19 1
     6    3    4 ar
     7    3    9 1
     8    4    5 ar
     9    4   20 1
    10    5    6 ar
    11    5   21 1
    12    6    7 1
    13    7    8 3
    14    9   14 1
    15    9   10 1
    16    9   22 1
    17   10   11 1
    18   10   23 1
    19   10   24 1
    20   11   12 1
    21   11   25 1
    22   11   26 1
    23   12   13 1
    24   12   27 1
    25   12   28 1
    26   13   17 2
    27   13   14 1
    28   14   15 1
    29   15   16 2
    30   15   29 1
    31   16   17 1
    32   16   31 1
    33   17   30 1
@<TRIPOS>MOLECULE
ZINC00167633
   28    30     0     0     0
SMALL
USER_CHARGES

@<TRIPOS>ATOM
      1 C1         -0.0167    1.3781    0.0096 C.ar      1 <0>        -0.1085
      2 C2          1.1709    2.0855    0.0021 C.ar      1 <0>        -0.1199
      3 C3          2.3773    1.4107   -0.0130 C.ar      1 <0>        -0.0997
      4 C4          2.3960    0.0285   -0.0201 C.ar      1 <0>        -0.1206
      5 C5          1.2084   -0.6789   -0.0117 C.ar      1 <0>        -0.0976
      6 C6          0.0021   -0.0041    0.0020 C.ar      1 <0>        -0.1195
      7 C7          3.7112   -0.7071   -0.0376 C.3       1 <0>         0.1536
      8 N1          4.1518   -0.9524    1.3379 N.pl3     1 <0>        -0.4883
      9 C8          5.0008   -0.1754    2.0632 C.2       1 <0>         0.2618
     10 N2          5.1745   -0.6870    3.2468 N.2       1 <0>        -0.4955
     11 C9          4.4481   -1.8284    3.3619 C.ar      1 <0>         0.0430
     12 C10         3.7778   -2.0117    2.1403 C.ar      1 <0>         0.0511
     13 C11         2.9464   -3.1094    1.9668 C.ar      1 <0>        -0.1114
     14 C12         2.7822   -4.0114    2.9968 C.ar      1 <0>        -0.1009
     15 C13         3.4415   -3.8283    4.2036 C.ar      1 <0>        -0.1292
     16 C14         4.2692   -2.7571    4.3901 C.ar      1 <0>        -0.0633
     17 H1         -0.9591    1.9053    0.0259 H         1 <0>         0.1254
     18 H2          1.1563    3.1654    0.0076 H         1 <0>         0.1263
     19 H3          3.3051    1.9634   -0.0196 H         1 <0>         0.1238
     20 H4          1.2231   -1.7588   -0.0176 H         1 <0>         0.1214
     21 H5         -0.9258   -0.5567    0.0082 H         1 <0>         0.1258
     22 H6          3.5884   -1.6586   -0.5549 H         1 <0>         0.0979
     23 H7          4.4573   -0.1052   -0.5563 H         1 <0>         0.1059
     24 H8          5.4635    0.7336    1.7082 H         1 <0>         0.2117
     25 H9          2.4303   -3.2563    1.0295 H         1 <0>         0.1189
     26 H10         2.1356   -4.8661    2.8633 H         1 <0>         0.1297
     27 H11         3.3034   -4.5424    5.0019 H         1 <0>         0.1295
     28 H12         4.7766   -2.6235    5.3341 H         1 <0>         0.1287
@<TRIPOS>BOND
     1    1    6 ar
     2    1    2 ar
     3    1   17 1
     4    2    3 ar
     5    2   18 1
     6    3    4 ar
     7    3   19 1
     8    4    5 ar
     9    4    7 1
    10    5    6 ar
    11    5   20 1
    12    6   21 1
    13    7    8 1
    14    7   22 1
    15    7   23 1
    16    8   12 1
    17    8    9 1
    18    9   10 2
    19    9   24 1
    20   10   11 1
    21   11   16 ar
    22   11   12 ar
    23   12   13 ar
    24   13   14 ar
    25   13   25 1
    26   14   15 ar
    27   14   26 1
    28   15   16 ar
    29   15   27 1
    30   16   28 1
@<TRIPOS>MOLECULE
ZINC01019761
   23    24     0     0     0
SMALL
USER_CHARGES
4-(imidazol-1-ylmethyl)benzonitrile
@<TRIPOS>ATOM
      1 C1          1.1682    2.0938    0.0021 C.ar      1 <0>        -0.0982
      2 C2          2.3774    1.4300   -0.0129 C.ar      1 <0>        -0.0700
      3 C3          2.4037    0.0339   -0.0202 C.ar      1 <0>        -0.0150
      4 C4          1.2041   -0.6807   -0.0126 C.ar      1 <0>        -0.0695
      5 C5          0.0021   -0.0041    0.0020 C.ar      1 <0>        -0.0989
      6 C6         -0.0167    1.3794    0.0096 C.ar      1 <0>        -0.0900
      7 C7         -1.3338    2.1116    0.0198 C.3       1 <0>         0.1429
      8 N1         -1.7541    2.3413    1.4043 N.pl3     1 <0>        -0.4579
      9 C8         -1.4518    3.4317    2.1746 C.2       1 <0>        -0.0549
     10 C9         -2.0351    3.2362    3.3726 C.2       1 <0>        -0.0279
     11 N2         -2.6761    2.0586    3.3348 N.2       1 <0>        -0.4940
     12 C10        -2.5170    1.5197    2.1570 C.2       1 <0>         0.1840
     13 C11         3.6553   -0.6618   -0.0359 C.1       1 <0>         0.2464
     14 N3          4.6481   -1.2137   -0.0483 N.1       1 <0>        -0.4043
     15 H1          1.1464    3.1735    0.0078 H         1 <0>         0.1353
     16 H2          3.3016    1.9888   -0.0187 H         1 <0>         0.1375
     17 H3          1.2174   -1.7606   -0.0178 H         1 <0>         0.1379
     18 H4         -0.9265   -0.5555    0.0079 H         1 <0>         0.1367
     19 H5         -1.2214    3.0688   -0.4894 H         1 <0>         0.1056
     20 H6         -2.0862    1.5130   -0.4937 H         1 <0>         0.1080
     21 H7         -0.8598    4.2850    1.8784 H         1 <0>         0.1736
     22 H8         -1.9940    3.9096    4.2159 H         1 <0>         0.1693
     23 H9         -2.9256    0.5722    1.8379 H         1 <0>         0.2033
@<TRIPOS>BOND
     1    1    6 ar
     2    1    2 ar
     3    1   15 1
     4    2    3 ar
     5    2   16 1
     6    3    4 ar
     7    3   13 1
     8    4    5 ar
     9    4   17 1
    10    5    6 ar
    11    5   18 1
    12    6    7 1
    13    7    8 1
    14    7   19 1
    15    7   20 1
    16    8   12 1
    17    8    9 1
    18    9   10 2
    19    9   21 1
    20   10   11 1
    21   10   22 1
    22   11   12 2
    23   12   23 1
    24   13   14 3
@<TRIPOS>MOLECULE
ZINC01019761
   24    25     0     0     0
SMALL
USER_CHARGES
4-(imidazol-1-ylmethyl)benzonitrile
@<TRIPOS>ATOM
      1 C1          1.1682    2.0938    0.0021 C.ar      1 <0>        -0.0899
      2 C2          2.3774    1.4300   -0.0129 C.ar      1 <0>        -0.0694
      3 C3          2.4037    0.0339   -0.0202 C.ar      1 <0>         0.0124
      4 C4          1.2041   -0.6807   -0.0126 C.ar      1 <0>        -0.0702
      5 C5          0.0021   -0.0041    0.0020 C.ar      1 <0>        -0.0949
      6 C6         -0.0167    1.3794    0.0096 C.ar      1 <0>        -0.1240
      7 C7         -1.3338    2.1116    0.0198 C.3       1 <0>         0.1382
      8 N1         -1.7541    2.3413    1.4043 N.pl3     1 <0>        -0.4075
      9 C8         -1.4518    3.4317    2.1746 C.2       1 <0>         0.0252
     10 C9         -2.0351    3.2362    3.3726 C.2       1 <0>         0.0046
     11 C10        -2.5170    1.5197    2.1570 C.cat     1 <0>         0.2882
     12 C11         3.6553   -0.6618   -0.0359 C.1       1 <0>         0.2292
     13 N2          4.6481   -1.2137   -0.0483 N.1       1 <0>        -0.3780
     14 H1          1.1464    3.1735    0.0078 H         1 <0>         0.1402
     15 H2          3.3016    1.9888   -0.0187 H         1 <0>         0.1447
     16 H3          1.2174   -1.7606   -0.0178 H         1 <0>         0.1444
     17 H4         -0.9265   -0.5555    0.0079 H         1 <0>         0.1392
     18 H5         -1.2214    3.0688   -0.4894 H         1 <0>         0.1350
     19 H6         -2.0862    1.5130   -0.4937 H         1 <0>         0.1326
     20 H7         -0.8598    4.2850    1.8784 H         1 <0>         0.2214
     21 H8         -1.9940    3.9096    4.2159 H         1 <0>         0.2224
     22 H9         -2.9256    0.5722    1.8379 H         1 <0>         0.2579
     23 N3         -2.6754    2.0592    3.3338 N.pl3     1 <0>        -0.4834
     24 H10        -3.2073    1.6468    4.1092 H         1 <0>         0.4815
@<TRIPOS>BOND
     1    1    6 ar
     2    1    2 ar
     3    1   14 1
     4    2    3 ar
     5    2   15 1
     6    3    4 ar
     7    3   12 1
     8    4    5 ar
     9    4   16 1
    10    5    6 ar
    11    5   17 1
    12    6    7 1
    13    7    8 1
    14    7   18 1
    15    7   19 1
    16    8   11 1
    17    8    9 1
    18    9   10 2
    19    9   20 1
    20   10   21 1
    21   10   23 1
    22   11   22 1
    23   11   23 2
    24   12   13 3
    25   23   24 1
@<TRIPOS>MOLECULE
ZINC13684548
   24    26     0     0     0
SMALL
USER_CHARGES
1-(1H-inden-2-yl)imidazole
@<TRIPOS>ATOM
      1 C1         -1.2225    1.7475    0.0173 C.ar      1 <0>        -0.1050
      2 C2         -0.0126    1.0758    0.0080 C.ar      1 <0>        -0.1198
      3 C3          1.1742    1.7775    0.0004 C.ar      1 <0>        -0.0862
      4 C4          1.1572    3.1758    0.0076 C.ar      1 <0>        -0.0808
      5 C5         -0.0707    3.8417    0.0225 C.ar      1 <0>        -0.0891
      6 C6         -1.2489    3.1319    0.0291 C.ar      1 <0>        -0.0997
      7 C7          0.2441    5.3178    0.0275 C.3       1 <0>        -0.0528
      8 C8          1.7522    5.4089    0.0141 C.2       1 <0>         0.0575
      9 C9          2.2420    4.1715    0.0030 C.2       1 <0>        -0.0816
     10 N1          2.4993    6.5827    0.0131 N.pl3     1 <0>        -0.4066
     11 C10         3.3355    7.0183    1.0095 C.2       1 <0>        -0.0484
     12 C11         3.8556    8.1901    0.5976 C.2       1 <0>        -0.0239
     13 N2          3.3478    8.4723   -0.6115 N.2       1 <0>        -0.4868
     14 C12         2.5343    7.5178   -0.9730 C.2       1 <0>         0.1942
     15 H1         -2.1479    1.1907    0.0191 H         1 <0>         0.1304
     16 H2          0.0021   -0.0041    0.0020 H         1 <0>         0.1295
     17 H3          2.1155    1.2481   -0.0114 H         1 <0>         0.1264
     18 H4         -2.1942    3.6541    0.0402 H         1 <0>         0.1274
     19 H5         -0.1539    5.7853    0.9281 H         1 <0>         0.1083
     20 H6         -0.1705    5.7962   -0.8599 H         1 <0>         0.1085
     21 H7          3.2945    3.9299   -0.0084 H         1 <0>         0.1387
     22 H8          3.5392    6.5167    1.9440 H         1 <0>         0.1766
     23 H9          4.5564    8.8001    1.1481 H         1 <0>         0.1751
     24 H10         1.9820    7.4774   -1.9002 H         1 <0>         0.2082
@<TRIPOS>BOND
     1    1    6 ar
     2    1    2 ar
     3    1   15 1
     4    2    3 ar
     5    2   16 1
     6    3    4 ar
     7    3   17 1
     8    4    9 1
     9    4    5 ar
    10    5    6 ar
    11    5    7 1
    12    6   18 1
    13    7    8 1
    14    7   19 1
    15    7   20 1
    16    8    9 2
    17    8   10 1
    18    9   21 1
    19   10   14 1
    20   10   11 1
    21   11   12 2
    22   11   22 1
    23   12   13 1
    24   12   23 1
    25   13   14 2
    26   14   24 1
@<TRIPOS>MOLECULE
ZINC13684548
   25    27     0     0     0
SMALL
USER_CHARGES
1-(1H-inden-2-yl)imidazole
@<TRIPOS>ATOM
      1 C1         -1.2225    1.7475    0.0173 C.ar      1 <0>        -0.0812
      2 C2         -0.0126    1.0758    0.0080 C.ar      1 <0>        -0.1181
      3 C3          1.1742    1.7775    0.0004 C.ar      1 <0>        -0.0664
      4 C4          1.1572    3.1758    0.0076 C.ar      1 <0>        -0.1122
      5 C5         -0.0707    3.8417    0.0225 C.ar      1 <0>        -0.0768
      6 C6         -1.2489    3.1319    0.0291 C.ar      1 <0>        -0.1022
      7 C7          0.2441    5.3178    0.0275 C.3       1 <0>        -0.0418
      8 C8          1.7522    5.4089    0.0141 C.2       1 <0>        -0.0247
      9 C9          2.2420    4.1715    0.0030 C.2       1 <0>        -0.0001
     10 N1          2.4993    6.5827    0.0131 N.pl3     1 <0>        -0.3389
     11 C10         3.3355    7.0183    1.0095 C.2       1 <0>         0.0285
     12 C11         3.8556    8.1901    0.5976 C.2       1 <0>         0.0062
     13 C12         2.5343    7.5178   -0.9730 C.cat     1 <0>         0.2961
     14 H1         -2.1479    1.1907    0.0191 H         1 <0>         0.1386
     15 H2          0.0021   -0.0041    0.0020 H         1 <0>         0.1377
     16 H3          2.1155    1.2481   -0.0114 H         1 <0>         0.1326
     17 H4         -2.1942    3.6541    0.0402 H         1 <0>         0.1337
     18 H5         -0.1539    5.7853    0.9281 H         1 <0>         0.1140
     19 H6         -0.1705    5.7962   -0.8599 H         1 <0>         0.1125
     20 H7          3.2945    3.9299   -0.0084 H         1 <0>         0.1487
     21 H8          3.5392    6.5167    1.9440 H         1 <0>         0.2223
     22 H9          4.5564    8.8001    1.1481 H         1 <0>         0.2264
     23 H10         1.9820    7.4774   -1.9002 H         1 <0>         0.2612
     24 N2          3.3477    8.4718   -0.6112 N.pl3     1 <0>        -0.4804
     25 H11         3.5650    9.3082   -1.1657 H         1 <0>         0.4840
@<TRIPOS>BOND
     1    1    6 ar
     2    1    2 ar
     3    1   14 1
     4    2    3 ar
     5    2   15 1
     6    3    4 ar
     7    3   16 1
     8    4    9 1
     9    4    5 ar
    10    5    6 ar
    11    5    7 1
    12    6   17 1
    13    7    8 1
    14    7   18 1
    15    7   19 1
    16    8    9 2
    17    8   10 1
    18    9   20 1
    19   10   13 1
    20   10   11 1
    21   11   12 2
    22   11   21 1
    23   12   22 1
    24   12   24 1
    25   13   23 1
    26   13   24 2
    27   24   25 1
@<TRIPOS>MOLECULE
ZINC05588657
   22    23     0     0     0
SMALL
USER_CHARGES
1-[(4-fluorophenyl)methyl]imidazole
@<TRIPOS>ATOM
      1 C1         -2.4965   -0.3700   -2.0463 C.ar      1 <0>        -0.0682
      2 C2         -2.8731   -0.6376   -3.3488 C.ar      1 <0>        -0.1541
      3 C3         -2.3391   -1.7288   -4.0130 C.ar      1 <0>         0.1111
      4 C4         -1.4241   -2.5476   -3.3730 C.ar      1 <0>        -0.1536
      5 C5         -1.0451   -2.2750   -2.0723 C.ar      1 <0>        -0.0689
      6 C6         -1.5790   -1.1852   -1.4101 C.ar      1 <0>        -0.1311
      7 C7         -1.1652   -0.8893    0.0084 C.3       1 <0>         0.1484
      8 N1          0.0021   -0.0041    0.0020 N.pl3     1 <0>        -0.4572
      9 C8         -0.0165    1.3646    0.0095 C.2       1 <0>        -0.0554
     10 C9          1.2671    1.7717   -0.0005 C.2       1 <0>        -0.0285
     11 N2          2.0482    0.6814   -0.0138 N.2       1 <0>        -0.4945
     12 C10         1.2973   -0.3859   -0.0124 C.2       1 <0>         0.1832
     13 F1         -2.7100   -1.9941   -5.2847 F         1 <0>        -0.1352
     14 H1         -2.9161    0.4787   -1.5266 H         1 <0>         0.1341
     15 H2         -3.5868    0.0018   -3.8470 H         1 <0>         0.1399
     16 H3         -1.0066   -3.3989   -3.8902 H         1 <0>         0.1404
     17 H4         -0.3312   -2.9134   -1.5730 H         1 <0>         0.1354
     18 H5         -0.9120   -1.8207    0.5149 H         1 <0>         0.1059
     19 H6         -1.9875   -0.4025    0.5327 H         1 <0>         0.1035
     20 H7         -0.8923    1.9965    0.0173 H         1 <0>         0.1729
     21 H8          1.6079    2.7966    0.0017 H         1 <0>         0.1693
     22 H9          1.6529   -1.4057   -0.0210 H         1 <0>         0.2026
@<TRIPOS>BOND
     1    1    6 ar
     2    1    2 ar
     3    1   14 1
     4    2    3 ar
     5    2   15 1
     6    3    4 ar
     7    3   13 1
     8    4    5 ar
     9    4   16 1
    10    5    6 ar
    11    5   17 1
    12    6    7 1
    13    7    8 1
    14    7   18 1
    15    7   19 1
    16    8   12 1
    17    8    9 1
    18    9   10 2
    19    9   20 1
    20   10   11 1
    21   10   21 1
    22   11   12 2
    23   12   22 1
@<TRIPOS>MOLECULE
ZINC05588657
   23    24     0     0     0
SMALL
USER_CHARGES
1-[(4-fluorophenyl)methyl]imidazole
@<TRIPOS>ATOM
      1 C1         -2.4965   -0.3700   -2.0463 C.ar      1 <0>        -0.0601
      2 C2         -2.8731   -0.6376   -3.3488 C.ar      1 <0>        -0.1527
      3 C3         -2.3391   -1.7288   -4.0130 C.ar      1 <0>         0.1333
      4 C4         -1.4241   -2.5476   -3.3730 C.ar      1 <0>        -0.1534
      5 C5         -1.0451   -2.2750   -2.0723 C.ar      1 <0>        -0.0651
      6 C6         -1.5790   -1.1852   -1.4101 C.ar      1 <0>        -0.1636
      7 C7         -1.1652   -0.8893    0.0084 C.3       1 <0>         0.1433
      8 N1          0.0021   -0.0041    0.0020 N.pl3     1 <0>        -0.4066
      9 C8         -0.0165    1.3646    0.0095 C.2       1 <0>         0.0245
     10 C9          1.2671    1.7717   -0.0005 C.2       1 <0>         0.0043
     11 C10         1.2973   -0.3859   -0.0124 C.cat     1 <0>         0.2871
     12 F1         -2.7100   -1.9941   -5.2847 F         1 <0>        -0.1248
     13 H1         -2.9161    0.4787   -1.5266 H         1 <0>         0.1391
     14 H2         -3.5868    0.0018   -3.8470 H         1 <0>         0.1475
     15 H3         -1.0066   -3.3989   -3.8902 H         1 <0>         0.1472
     16 H4         -0.3312   -2.9134   -1.5730 H         1 <0>         0.1382
     17 H5         -0.9120   -1.8207    0.5149 H         1 <0>         0.1306
     18 H6         -1.9875   -0.4025    0.5327 H         1 <0>         0.1330
     19 H7         -0.8923    1.9965    0.0173 H         1 <0>         0.2207
     20 H8          1.6079    2.7966    0.0017 H         1 <0>         0.2225
     21 H9          1.6529   -1.4057   -0.0210 H         1 <0>         0.2572
     22 N2          2.0468    0.6814   -0.0138 N.pl3     1 <0>        -0.4836
     23 H10         3.0735    0.6858   -0.0235 H         1 <0>         0.4812
@<TRIPOS>BOND
     1    1    6 ar
     2    1    2 ar
     3    1   13 1
     4    2    3 ar
     5    2   14 1
     6    3    4 ar
     7    3   12 1
     8    4    5 ar
     9    4   15 1
    10    5    6 ar
    11    5   16 1
    12    6    7 1
    13    7    8 1
    14    7   17 1
    15    7   18 1
    16    8   11 1
    17    8    9 1
    18    9   10 2
    19    9   19 1
    20   10   20 1
    21   10   22 1
    22   11   21 1
    23   11   22 2
    24   22   23 1
@<TRIPOS>MOLECULE
ZINC05331574
   35    37     0     0     0
SMALL
USER_CHARGES
4-(2,2-diphenylvinyl)pyridine
@<TRIPOS>ATOM
      1 C1         -0.2086    0.6124    0.9112 C.ar      1 <0>        -0.1147
      2 C2          0.7754    1.5505    0.6541 C.ar      1 <0>        -0.1189
      3 C3          2.0543    1.1434    0.3350 C.ar      1 <0>        -0.0994
      4 C4          2.3544   -0.2180    0.2714 C.ar      1 <0>        -0.0521
      5 C5          1.3574   -1.1591    0.5318 C.ar      1 <0>        -0.1033
      6 C6          0.0826   -0.7389    0.8502 C.ar      1 <0>        -0.1190
      7 C7          3.7241   -0.6618   -0.0703 C.2       1 <0>        -0.0219
      8 C8          3.9478   -1.3480   -1.2180 C.2       1 <0>        -0.1013
      9 C9          5.2716   -1.9319   -1.4791 C.ar      1 <0>        -0.0096
     10 C10         5.8102   -1.9487   -2.7748 C.ar      1 <0>        -0.1641
     11 C11         7.0569   -2.5024   -2.9720 C.ar      1 <0>         0.0981
     12 N1          7.7363   -3.0200   -1.9656 N.ar      1 <0>        -0.4860
     13 C12         7.2660   -3.0300   -0.7324 C.ar      1 <0>         0.0997
     14 C13         6.0304   -2.4936   -0.4409 C.ar      1 <0>        -0.1553
     15 C14         4.8495   -0.3565    0.8407 C.ar      1 <0>        -0.0449
     16 C15         4.8765   -0.8974    2.1268 C.ar      1 <0>        -0.1092
     17 C16         5.9320   -0.6143    2.9689 C.ar      1 <0>        -0.1167
     18 C17         6.9559    0.2142    2.5452 C.ar      1 <0>        -0.1156
     19 C18         6.9320    0.7586    1.2734 C.ar      1 <0>        -0.1152
     20 C19         5.8856    0.4780    0.4193 C.ar      1 <0>        -0.1007
     21 H1         -1.2094    0.9362    1.1561 H         1 <0>         0.1236
     22 H2          0.5416    2.6038    0.7030 H         1 <0>         0.1247
     23 H3          2.8214    1.8766    0.1341 H         1 <0>         0.1223
     24 H4          1.5833   -2.2142    0.4839 H         1 <0>         0.1240
     25 H5         -0.6899   -1.4662    1.0520 H         1 <0>         0.1253
     26 H6          3.1537   -1.4658   -1.9403 H         1 <0>         0.1347
     27 H7          5.2581   -1.5312   -3.6038 H         1 <0>         0.1358
     28 H8          7.4821   -2.5166   -3.9646 H         1 <0>         0.1559
     29 H9          7.8577   -3.4651    0.0595 H         1 <0>         0.1537
     30 H10         5.6519   -2.5057    0.5706 H         1 <0>         0.1375
     31 H11         4.0754   -1.5404    2.4604 H         1 <0>         0.1227
     32 H12         5.9565   -1.0361    3.9628 H         1 <0>         0.1246
     33 H13         7.7775    0.4367    3.2099 H         1 <0>         0.1229
     34 H14         7.7344    1.4043    0.9485 H         1 <0>         0.1231
     35 H15         5.8681    0.9036   -0.5732 H         1 <0>         0.1192
@<TRIPOS>BOND
     1    1    6 ar
     2    1    2 ar
     3    1   21 1
     4    2    3 ar
     5    2   22 1
     6    3    4 ar
     7    3   23 1
     8    4    5 ar
     9    4    7 1
    10    5    6 ar
    11    5   24 1
    12    6   25 1
    13    7    8 2
    14    7   15 1
    15    8    9 1
    16    8   26 1
    17    9   14 ar
    18    9   10 ar
    19   10   11 ar
    20   10   27 1
    21   11   12 ar
    22   11   28 1
    23   12   13 ar
    24   13   14 ar
    25   13   29 1
    26   14   30 1
    27   15   20 ar
    28   15   16 ar
    29   16   17 ar
    30   16   31 1
    31   17   18 ar
    32   17   32 1
    33   18   19 ar
    34   18   33 1
    35   19   20 ar
    36   19   34 1
    37   20   35 1
@<TRIPOS>MOLECULE
ZINC13283063
   33    36     0     0     0
SMALL
USER_CHARGES
4-(fluoren-9-ylidenemethyl)pyridine
@<TRIPOS>ATOM
      1 C1         -2.9112   -2.6227    1.9066 C.ar      1 <0>        -0.1104
      2 C2         -3.3392   -1.3232    1.6900 C.ar      1 <0>        -0.1149
      3 C3         -2.4695   -0.3773    1.1860 C.ar      1 <0>        -0.0976
      4 C4         -1.1525   -0.7285    0.8984 C.ar      1 <0>        -0.0676
      5 C5         -0.7184   -2.0484    1.1117 C.ar      1 <0>        -0.0506
      6 C6         -1.6115   -2.9890    1.6216 C.ar      1 <0>        -0.0947
      7 C7          0.7045   -2.1473    0.7202 C.ar      1 <0>        -0.0487
      8 C8          1.6030   -3.2126    0.7368 C.ar      1 <0>        -0.0941
      9 C9          2.9011   -3.0271    0.3064 C.ar      1 <0>        -0.1110
     10 C10         3.3220   -1.7869   -0.1445 C.ar      1 <0>        -0.1142
     11 C11         2.4473   -0.7194   -0.1676 C.ar      1 <0>        -0.0895
     12 C12         1.1334   -0.8893    0.2628 C.ar      1 <0>        -0.0672
     13 C13        -0.0128    0.0403    0.3544 C.2       1 <0>        -0.0257
     14 C14        -0.0163    1.3533    0.0095 C.2       1 <0>        -0.0663
     15 C15        -1.2891    2.0830   -0.0939 C.ar      1 <0>        -0.0211
     16 C16        -2.3963    1.5147   -0.7415 C.ar      1 <0>        -0.1497
     17 C17        -3.5710    2.2339   -0.8103 C.ar      1 <0>         0.0954
     18 N1         -3.6584    3.4419   -0.2871 N.ar      1 <0>        -0.4807
     19 C18        -2.6413    4.0165    0.3262 C.ar      1 <0>         0.0988
     20 C19        -1.4293    3.3698    0.4472 C.ar      1 <0>        -0.1565
     21 H1         -3.5998   -3.3547    2.3019 H         1 <0>         0.1292
     22 H2         -4.3588   -1.0486    1.9169 H         1 <0>         0.1287
     23 H3         -2.8082    0.6346    1.0193 H         1 <0>         0.1320
     24 H4         -1.2866   -4.0046    1.7934 H         1 <0>         0.1259
     25 H5          1.2835   -4.1832    1.0866 H         1 <0>         0.1262
     26 H6          3.5940   -3.8554    0.3209 H         1 <0>         0.1295
     27 H7          4.3403   -1.6542   -0.4790 H         1 <0>         0.1302
     28 H8          2.7806    0.2455   -0.5201 H         1 <0>         0.1266
     29 H9          0.9151    1.8609   -0.1933 H         1 <0>         0.1424
     30 H10        -2.3309    0.5281   -1.1759 H         1 <0>         0.1380
     31 H11        -4.4304    1.8038   -1.3032 H         1 <0>         0.1592
     32 H12        -2.7595    5.0074    0.7389 H         1 <0>         0.1592
     33 H13        -0.6010    3.8465    0.9503 H         1 <0>         0.1393
@<TRIPOS>BOND
     1    1    6 ar
     2    1    2 ar
     3    1   21 1
     4    2    3 ar
     5    2   22 1
     6    3    4 ar
     7    3   23 1
     8    4   13 1
     9    4    5 ar
    10    5    6 ar
    11    5    7 1
    12    6   24 1
    13    7   12 ar
    14    7    8 ar
    15    8    9 ar
    16    8   25 1
    17    9   10 ar
    18    9   26 1
    19   10   11 ar
    20   10   27 1
    21   11   12 ar
    22   11   28 1
    23   12   13 1
    24   13   14 2
    25   14   15 1
    26   14   29 1
    27   15   20 ar
    28   15   16 ar
    29   16   17 ar
    30   16   30 1
    31   17   18 ar
    32   17   31 1
    33   18   19 ar
    34   19   20 ar
    35   19   32 1
    36   20   33 1
@<TRIPOS>MOLECULE
ZINC04695498
   31    33     0     0     0
SMALL
USER_CHARGES
(2E)-2-(2-pyridylmethylene)tetralin-1-one
@<TRIPOS>ATOM
      1 C1          5.7043    2.3089    2.3498 C.ar      1 <0>        -0.0836
      2 C2          5.7539    1.0053    1.8875 C.ar      1 <0>        -0.1387
      3 C3          4.6885    0.4877    1.1807 C.ar      1 <0>        -0.0608
      4 C4          3.5668    1.2812    0.9352 C.ar      1 <0>        -0.1652
      5 C5          3.5109    2.5894    1.4095 C.ar      1 <0>        -0.0259
      6 C6          4.5927    3.0943    2.1138 C.ar      1 <0>        -0.1384
      7 C7          2.3199    3.4803    1.1913 C.3       1 <0>        -0.0790
      8 C8          1.5152    3.0714   -0.0392 C.3       1 <0>        -0.1455
      9 C9          1.2378    1.5812    0.0373 C.2       1 <0>        -0.1293
     10 C10        -0.0126    1.0758    0.0080 C.2       1 <0>        -0.0676
     11 C11        -1.1738    1.9819    0.0240 C.ar      1 <0>         0.1538
     12 C12        -2.4641    1.4541    0.1178 C.ar      1 <0>        -0.1522
     13 C13        -3.5445    2.3193    0.1316 C.ar      1 <0>        -0.0690
     14 C14        -3.3023    3.6831    0.0514 C.ar      1 <0>        -0.1702
     15 C15        -1.9970    4.1382   -0.0397 C.ar      1 <0>         0.1017
     16 N1         -0.9861    3.2964   -0.0455 N.ar      1 <0>        -0.4665
     17 C16         2.4380    0.7232    0.1525 C.2       1 <0>         0.4293
     18 O1          2.4981   -0.3757   -0.3668 O.2       1 <0>        -0.4453
     19 H1          6.5409    2.7152    2.8988 H         1 <0>         0.1279
     20 H2          6.6243    0.3953    2.0792 H         1 <0>         0.1302
     21 H3          4.7221   -0.5291    0.8183 H         1 <0>         0.1336
     22 H4          4.5665    4.1097    2.4808 H         1 <0>         0.1291
     23 H5          2.6639    4.5067    1.0645 H         1 <0>         0.0834
     24 H6          1.6750    3.4305    2.0687 H         1 <0>         0.0816
     25 H7          2.0875    3.2913   -0.9404 H         1 <0>         0.0718
     26 H8          0.5726    3.6184   -0.0618 H         1 <0>         0.1741
     27 H9         -0.1622    0.0070   -0.0317 H         1 <0>         0.1405
     28 H10        -2.6163    0.3866    0.1783 H         1 <0>         0.1404
     29 H11        -4.5536    1.9413    0.2036 H         1 <0>         0.1392
     30 H12        -4.1241    4.3837    0.0594 H         1 <0>         0.1384
     31 H13        -1.8064    5.1994   -0.1022 H         1 <0>         0.1623
@<TRIPOS>BOND
     1    1    6 ar
     2    1    2 ar
     3    1   19 1
     4    2    3 ar
     5    2   20 1
     6    3    4 ar
     7    3   21 1
     8    4   17 1
     9    4    5 ar
    10    5    6 ar
    11    5    7 1
    12    6   22 1
    13    7    8 1
    14    7   23 1
    15    7   24 1
    16    8    9 1
    17    8   25 1
    18    8   26 1
    19    9   10 2
    20    9   17 1
    21   10   11 1
    22   10   27 1
    23   11   16 ar
    24   11   12 ar
    25   12   13 ar
    26   12   28 1
    27   13   14 ar
    28   13   29 1
    29   14   15 ar
    30   14   30 1
    31   15   16 ar
    32   15   31 1
    33   17   18 2
@<TRIPOS>MOLECULE
ZINC00161401
   22    23     0     0     0
SMALL
USER_CHARGES
1-[(4-chlorophenyl)methyl]imidazole
@<TRIPOS>ATOM
      1 C1         -2.4964   -0.3702   -2.0465 C.ar      1 <0>        -0.0853
      2 C2         -2.8721   -0.6378   -3.3495 C.ar      1 <0>        -0.1105
      3 C3         -2.3383   -1.7282   -4.0129 C.ar      1 <0>        -0.0247
      4 C4         -1.4244   -2.5468   -3.3735 C.ar      1 <0>        -0.1101
      5 C5         -1.0452   -2.2749   -2.0725 C.ar      1 <0>        -0.0859
      6 C6         -1.5790   -1.1852   -1.4101 C.ar      1 <0>        -0.1152
      7 C7         -1.1652   -0.8893    0.0084 C.3       1 <0>         0.1468
      8 N1          0.0021   -0.0041    0.0020 N.pl3     1 <0>        -0.4571
      9 C8         -0.0165    1.3646    0.0095 C.2       1 <0>        -0.0553
     10 C9          1.2671    1.7717   -0.0005 C.2       1 <0>        -0.0282
     11 N2          2.0482    0.6814   -0.0138 N.2       1 <0>        -0.4940
     12 C10         1.2973   -0.3859   -0.0124 C.2       1 <0>         0.1834
     13 Cl1        -2.8145   -2.0688   -5.6472 Cl        1 <0>        -0.0622
     14 H1         -2.9164    0.4784   -1.5270 H         1 <0>         0.1332
     15 H2         -3.5855    0.0016   -3.8481 H         1 <0>         0.1377
     16 H3         -1.0071   -3.3980   -3.8911 H         1 <0>         0.1381
     17 H4         -0.3316   -2.9137   -1.5734 H         1 <0>         0.1346
     18 H5         -0.9120   -1.8207    0.5149 H         1 <0>         0.1061
     19 H6         -1.9875   -0.4025    0.5327 H         1 <0>         0.1037
     20 H7         -0.8923    1.9965    0.0173 H         1 <0>         0.1729
     21 H8          1.6079    2.7966    0.0017 H         1 <0>         0.1694
     22 H9          1.6529   -1.4057   -0.0210 H         1 <0>         0.2026
@<TRIPOS>BOND
     1    1    6 ar
     2    1    2 ar
     3    1   14 1
     4    2    3 ar
     5    2   15 1
     6    3    4 ar
     7    3   13 1
     8    4    5 ar
     9    4   16 1
    10    5    6 ar
    11    5   17 1
    12    6    7 1
    13    7    8 1
    14    7   18 1
    15    7   19 1
    16    8   12 1
    17    8    9 1
    18    9   10 2
    19    9   20 1
    20   10   11 1
    21   10   21 1
    22   11   12 2
    23   12   22 1
@<TRIPOS>MOLECULE
ZINC00161401
   23    24     0     0     0
SMALL
USER_CHARGES
1-[(4-chlorophenyl)methyl]imidazole
@<TRIPOS>ATOM
      1 C1         -2.4964   -0.3702   -2.0465 C.ar      1 <0>        -0.0777
      2 C2         -2.8721   -0.6378   -3.3495 C.ar      1 <0>        -0.1084
      3 C3         -2.3383   -1.7282   -4.0129 C.ar      1 <0>        -0.0114
      4 C4         -1.4244   -2.5468   -3.3735 C.ar      1 <0>        -0.1092
      5 C5         -1.0452   -2.2749   -2.0725 C.ar      1 <0>        -0.0828
      6 C6         -1.5790   -1.1852   -1.4101 C.ar      1 <0>        -0.1476
      7 C7         -1.1652   -0.8893    0.0084 C.3       1 <0>         0.1417
      8 N1          0.0021   -0.0041    0.0020 N.pl3     1 <0>        -0.4066
      9 C8         -0.0165    1.3646    0.0095 C.2       1 <0>         0.0247
     10 C9          1.2671    1.7717   -0.0005 C.2       1 <0>         0.0046
     11 C10         1.2973   -0.3859   -0.0124 C.cat     1 <0>         0.2875
     12 Cl1        -2.8145   -2.0688   -5.6472 Cl        1 <0>        -0.0425
     13 H1         -2.9164    0.4784   -1.5270 H         1 <0>         0.1381
     14 H2         -3.5855    0.0016   -3.8481 H         1 <0>         0.1449
     15 H3         -1.0071   -3.3980   -3.8911 H         1 <0>         0.1446
     16 H4         -0.3316   -2.9137   -1.5734 H         1 <0>         0.1373
     17 H5         -0.9120   -1.8207    0.5149 H         1 <0>         0.1309
     18 H6         -1.9875   -0.4025    0.5327 H         1 <0>         0.1333
     19 H7         -0.8923    1.9965    0.0173 H         1 <0>         0.2207
     20 H8          1.6079    2.7966    0.0017 H         1 <0>         0.2227
     21 H9          1.6529   -1.4057   -0.0210 H         1 <0>         0.2572
     22 N2          2.0468    0.6814   -0.0138 N.pl3     1 <0>        -0.4834
     23 H10         3.0735    0.6858   -0.0235 H         1 <0>         0.4813
@<TRIPOS>BOND
     1    1    6 ar
     2    1    2 ar
     3    1   13 1
     4    2    3 ar
     5    2   14 1
     6    3    4 ar
     7    3   12 1
     8    4    5 ar
     9    4   15 1
    10    5    6 ar
    11    5   16 1
    12    6    7 1
    13    7    8 1
    14    7   17 1
    15    7   18 1
    16    8   11 1
    17    8    9 1
    18    9   10 2
    19    9   19 1
    20   10   20 1
    21   10   22 1
    22   11   21 1
    23   11   22 2
    24   22   23 1
@<TRIPOS>MOLECULE
ZINC40829496
   27    29     0     0     0
SMALL
USER_CHARGES

@<TRIPOS>ATOM
      1 C1         -0.0167    1.3787    0.0096 C.ar      1 <0>        -0.1687
      2 C2          1.1813    2.0723    0.0019 C.ar      1 <0>        -0.0619
      3 C3          2.3717    1.3393   -0.0134 C.ar      1 <0>        -0.1072
      4 C4          2.3057   -0.0534   -0.0202 C.ar      1 <0>         0.1155
      5 N1          1.1414   -0.6691   -0.0129 N.ar      1 <0>        -0.4815
      6 C5          0.0021   -0.0041    0.0020 C.ar      1 <0>         0.1038
      7 C6          3.6826    2.0314   -0.0227 C.ar      1 <0>        -0.0011
      8 C7          3.7364    3.4259   -0.0103 C.ar      1 <0>        -0.1275
      9 C8          4.9407    4.0657   -0.0184 C.ar      1 <0>        -0.0437
     10 C9          6.1368    3.3278   -0.0396 C.ar      1 <0>        -0.1926
     11 C10         6.0837    1.9325   -0.0519 C.ar      1 <0>        -0.0399
     12 C11         4.8635    1.2896   -0.0379 C.ar      1 <0>        -0.1133
     13 C12         7.4858    1.3727   -0.0739 C.3       1 <0>        -0.0850
     14 C13         8.4317    2.5814   -0.0740 C.3       1 <0>        -0.1730
     15 C14         7.5321    3.7931   -0.0519 C.2       1 <0>         0.4050
     16 O1          7.8965    4.9498   -0.0462 O.2       1 <0>        -0.4416
     17 H1         -0.9559    1.9116    0.0259 H         1 <0>         0.1408
     18 H2          1.1959    3.1522    0.0072 H         1 <0>         0.1393
     19 H3          3.2172   -0.6325   -0.0321 H         1 <0>         0.1596
     20 H4         -0.9308   -0.5482    0.0084 H         1 <0>         0.1598
     21 H5          2.8218    4.0000    0.0053 H         1 <0>         0.1334
     22 H6          4.9755    5.1451   -0.0087 H         1 <0>         0.1327
     23 H7          4.8224    0.2104   -0.0434 H         1 <0>         0.1343
     24 H8          7.6591    0.7617    0.8119 H         1 <0>         0.0954
     25 H9          7.6376    0.7783   -0.9749 H         1 <0>         0.0954
     26 H10         9.0652    2.5652    0.8129 H         1 <0>         0.1109
     27 H11         9.0437    2.5819   -0.9760 H         1 <0>         0.1109
@<TRIPOS>BOND
     1    1    6 ar
     2    1    2 ar
     3    1   17 1
     4    2    3 ar
     5    2   18 1
     6    3    4 ar
     7    3    7 1
     8    4    5 ar
     9    4   19 1
    10    5    6 ar
    11    6   20 1
    12    7   12 ar
    13    7    8 ar
    14    8    9 ar
    15    8   21 1
    16    9   10 ar
    17    9   22 1
    18   10   15 1
    19   10   11 ar
    20   11   12 ar
    21   11   13 1
    22   12   23 1
    23   13   14 1
    24   13   24 1
    25   13   25 1
    26   14   15 1
    27   14   26 1
    28   14   27 1
    29   15   16 2
@<TRIPOS>MOLECULE
ZINC40835651
   34    36     0     0     0
SMALL
USER_CHARGES

@<TRIPOS>ATOM
      1 C1         -0.0173    1.4248    0.0099 C.3       1 <0>         0.0219
      2 O1          0.0021   -0.0041    0.0020 O.3       1 <0>        -0.3112
      3 C2          0.6257   -0.6183    1.0414 C.ar      1 <0>         0.1512
      4 C3          1.2033    0.1547    2.0536 C.ar      1 <0>        -0.1801
      5 C4          1.8340   -0.4314    3.1061 C.ar      1 <0>        -0.0626
      6 C5          1.9085   -1.8341    3.1820 C.ar      1 <0>        -0.0865
      7 C6          2.5521   -2.4683    4.2558 C.ar      1 <0>        -0.0530
      8 C7          2.6056   -3.8492    4.2975 C.ar      1 <0>        -0.0918
      9 C8          2.0224   -4.6176    3.2765 C.ar      1 <0>        -0.1144
     10 C9          1.3951   -4.0232    2.2292 C.ar      1 <0>        -0.0905
     11 C10         1.3232   -2.6199    2.1569 C.ar      1 <0>         0.0010
     12 C11         0.6752   -1.9826    1.0864 C.ar      1 <0>        -0.1613
     13 C12         3.2847   -4.5246    5.4293 C.ar      1 <0>        -0.1117
     14 C13         4.5645   -4.1416    5.8174 C.ar      1 <0>         0.1605
     15 N1          5.1699   -4.7414    6.8231 N.ar      1 <0>        -0.4870
     16 C14         4.5992   -5.7205    7.5010 C.ar      1 <0>         0.1631
     17 C15         3.3318   -6.1629    7.1837 C.ar      1 <0>        -0.2057
     18 C16         2.6446   -5.5593    6.1327 C.ar      1 <0>         0.3282
     19 N2          1.3636   -5.9728    5.7860 N.pl3     1 <0>        -0.8047
     20 H1          1.0053    1.8021    0.0021 H         1 <0>         0.0603
     21 H2         -0.5445    1.7859   -0.8732 H         1 <0>         0.1083
     22 H3         -0.5275    1.7763    0.9067 H         1 <0>         0.0602
     23 H4          1.1480    1.2318    1.9984 H         1 <0>         0.1392
     24 H5          2.2764    0.1777    3.8805 H         1 <0>         0.1377
     25 H6          3.0025   -1.8822    5.0433 H         1 <0>         0.1335
     26 H7          2.0740   -5.6953    3.3250 H         1 <0>         0.1271
     27 H8          0.9518   -4.6274    1.4515 H         1 <0>         0.1395
     28 H9          0.2217   -2.5683    0.3005 H         1 <0>         0.1424
     29 H10         5.0673   -3.3450    5.2892 H         1 <0>         0.2037
     30 H11         5.1341   -6.1829    8.3173 H         1 <0>         0.2063
     31 H12         2.8761   -6.9646    7.7459 H         1 <0>         0.1809
     32 H13         0.8989   -5.5458    5.0494 H         1 <0>         0.4237
     33 H14         0.9344   -6.6883    6.2807 H         1 <0>         0.4233
     34 H15         6.0623   -4.4548    7.0728 H         1 <0>         0.4489
@<TRIPOS>BOND
     1    1    2 1
     2    1   20 1
     3    1   21 1
     4    1   22 1
     5    2    3 1
     6    3   12 ar
     7    3    4 ar
     8    4    5 ar
     9    4   23 1
    10    5    6 ar
    11    5   24 1
    12    6   11 ar
    13    6    7 ar
    14    7    8 ar
    15    7   25 1
    16    8    9 ar
    17    8   13 1
    18    9   10 ar
    19    9   26 1
    20   10   11 ar
    21   10   27 1
    22   11   12 ar
    23   12   28 1
    24   13   18 ar
    25   13   14 ar
    26   14   15 ar
    27   14   29 1
    28   15   16 ar
    29   15   34 1
    30   16   17 ar
    31   16   30 1
    32   17   18 ar
    33   17   31 1
    34   18   19 1
    35   19   32 1
    36   19   33 1
@<TRIPOS>MOLECULE
ZINC38868526
   32    34     0     0     0
SMALL
USER_CHARGES

@<TRIPOS>ATOM
      1 C1          4.5633    3.4177   -0.9289 C.ar      1 <0>        -0.1034
      2 C2          5.3489    2.3759   -1.3856 C.ar      1 <0>        -0.1188
      3 C3          5.0212    1.0716   -1.0661 C.ar      1 <0>        -0.0972
      4 C4          3.9081    0.8090   -0.2896 C.ar      1 <0>        -0.1223
      5 C5          3.1231    1.8508    0.1679 C.ar      1 <0>        -0.0947
      6 C6          3.4500    3.1550   -0.1528 C.ar      1 <0>        -0.1186
      7 C7          3.5503   -0.6131    0.0579 C.3       1 <0>         0.1452
      8 N1          4.1720   -0.9752    1.3340 N.pl3     1 <0>        -0.4492
      9 C8          5.0460   -0.2272    2.0418 C.2       1 <0>         0.2003
     10 N2          5.3822   -0.8766    3.1237 N.2       1 <0>        -0.4920
     11 C9          4.7464   -2.0534    3.1553 C.2       1 <0>         0.0015
     12 C10         3.9709   -2.1394    2.0406 C.2       1 <0>         0.0044
     13 C11         3.0885   -3.2640    1.6608 C.ar      1 <0>        -0.0069
     14 C12         2.6015   -3.3631    0.3569 C.ar      1 <0>        -0.1344
     15 C13         1.7787   -4.4146    0.0091 C.ar      1 <0>        -0.1116
     16 C14         1.4364   -5.3695    0.9499 C.ar      1 <0>        -0.1212
     17 C15         1.9160   -5.2770    2.2443 C.ar      1 <0>        -0.1102
     18 C16         2.7442   -4.2336    2.6034 C.ar      1 <0>        -0.1029
     19 H1          4.8219    4.4370   -1.1748 H         1 <0>         0.1274
     20 H2          6.2185    2.5811   -1.9923 H         1 <0>         0.1283
     21 H3          5.6345    0.2576   -1.4236 H         1 <0>         0.1252
     22 H4          2.2533    1.6456    0.7743 H         1 <0>         0.1242
     23 H5          2.8365    3.9689    0.2043 H         1 <0>         0.1280
     24 H6          2.4674   -0.7050    0.1423 H         1 <0>         0.0985
     25 H7          3.9117   -1.2803   -0.7246 H         1 <0>         0.0962
     26 H8          5.4085    0.7499    1.7585 H         1 <0>         0.2023
     27 H9          4.8304   -2.8007    3.9304 H         1 <0>         0.1730
     28 H10         2.8677   -2.6181   -0.3783 H         1 <0>         0.1227
     29 H11         1.4008   -4.4922   -0.9996 H         1 <0>         0.1249
     30 H12         0.7917   -6.1904    0.6727 H         1 <0>         0.1245
     31 H13         1.6451   -6.0257    2.9741 H         1 <0>         0.1280
     32 H14         3.1218   -4.1652    3.6129 H         1 <0>         0.1289
@<TRIPOS>BOND
     1    1    6 ar
     2    1    2 ar
     3    1   19 1
     4    2    3 ar
     5    2   20 1
     6    3    4 ar
     7    3   21 1
     8    4    5 ar
     9    4    7 1
    10    5    6 ar
    11    5   22 1
    12    6   23 1
    13    7    8 1
    14    7   24 1
    15    7   25 1
    16    8   12 1
    17    8    9 1
    18    9   10 2
    19    9   26 1
    20   10   11 1
    21   11   12 2
    22   11   27 1
    23   12   13 1
    24   13   18 ar
    25   13   14 ar
    26   14   15 ar
    27   14   28 1
    28   15   16 ar
    29   15   29 1
    30   16   17 ar
    31   16   30 1
    32   17   18 ar
    33   17   31 1
    34   18   32 1
@<TRIPOS>MOLECULE
ZINC12370277
   26    27     0     0     0
SMALL
USER_CHARGES
[4-(imidazol-1-ylmethyl)phenyl]methanol
@<TRIPOS>ATOM
      1 C1         -2.3665    1.2538    2.9550 C.ar      1 <0>        -0.1009
      2 C2         -1.7194    0.8079    1.8177 C.ar      1 <0>        -0.0988
      3 C3         -0.7181    1.5718    1.2479 C.ar      1 <0>        -0.0820
      4 C4         -0.3599    2.7788    1.8186 C.ar      1 <0>        -0.0993
      5 C5         -1.0099    3.2267    2.9534 C.ar      1 <0>        -0.1002
      6 C6         -2.0119    2.4632    3.5227 C.ar      1 <0>        -0.1123
      7 C7         -2.7180    2.9497    4.7620 C.3       1 <0>         0.1462
      8 N1         -2.0107    2.4641    5.9495 N.pl3     1 <0>        -0.4555
      9 C8         -0.9942    3.1026    6.6072 C.2       1 <0>        -0.0549
     10 C9         -0.6373    2.3101    7.6359 C.2       1 <0>        -0.0296
     11 N2         -1.4148    1.2175    7.6071 N.2       1 <0>        -0.4950
     12 C10        -2.2437    1.3055    6.6031 C.2       1 <0>         0.1831
     13 C11        -0.0127    1.0858    0.0080 C.3       1 <0>         0.1135
     14 O1         -0.7038    1.5592   -1.1497 O.3       1 <0>        -0.5674
     15 H1         -3.1493    0.6573    3.3998 H         1 <0>         0.1265
     16 H2         -1.9965   -0.1370    1.3742 H         1 <0>         0.1272
     17 H3          0.4255    3.3735    1.3760 H         1 <0>         0.1267
     18 H4         -0.7331    4.1718    3.3968 H         1 <0>         0.1252
     19 H5         -2.7321    4.0396    4.7680 H         1 <0>         0.1018
     20 H6         -3.7408    2.5731    4.7689 H         1 <0>         0.1043
     21 H7         -0.5618    4.0585    6.3509 H         1 <0>         0.1722
     22 H8          0.1388    2.5179    8.3576 H         1 <0>         0.1690
     23 H9         -2.9907    0.5721    6.3373 H         1 <0>         0.2021
     24 H10         0.0021   -0.0041    0.0020 H         1 <0>         0.0573
     25 H11         1.0099    1.4631    0.0003 H         1 <0>         0.0571
     26 H12        -0.3044    1.2838   -1.9862 H         1 <0>         0.3835
@<TRIPOS>BOND
     1    1    6 ar
     2    1    2 ar
     3    1   15 1
     4    2    3 ar
     5    2   16 1
     6    3    4 ar
     7    3   13 1
     8    4    5 ar
     9    4   17 1
    10    5    6 ar
    11    5   18 1
    12    6    7 1
    13    7    8 1
    14    7   19 1
    15    7   20 1
    16    8   12 1
    17    8    9 1
    18    9   10 2
    19    9   21 1
    20   10   11 1
    21   10   22 1
    22   11   12 2
    23   12   23 1
    24   13   14 1
    25   13   24 1
    26   13   25 1
    27   14   26 1
@<TRIPOS>MOLECULE
ZINC12370277
   27    28     0     0     0
SMALL
USER_CHARGES
[4-(imidazol-1-ylmethyl)phenyl]methanol
@<TRIPOS>ATOM
      1 C1         -2.3665    1.2538    2.9550 C.ar      1 <0>        -0.0978
      2 C2         -1.7194    0.8079    1.8177 C.ar      1 <0>        -0.0975
      3 C3         -0.7181    1.5718    1.2479 C.ar      1 <0>        -0.0605
      4 C4         -0.3599    2.7788    1.8186 C.ar      1 <0>        -0.0968
      5 C5         -1.0099    3.2267    2.9534 C.ar      1 <0>        -0.0928
      6 C6         -2.0119    2.4632    3.5227 C.ar      1 <0>        -0.1441
      7 C7         -2.7180    2.9497    4.7620 C.3       1 <0>         0.1408
      8 N1         -2.0107    2.4641    5.9495 N.pl3     1 <0>        -0.4048
      9 C8         -0.9942    3.1026    6.6072 C.2       1 <0>         0.0250
     10 C9         -0.6373    2.3101    7.6359 C.2       1 <0>         0.0034
     11 C10        -2.2437    1.3055    6.6031 C.cat     1 <0>         0.2869
     12 C11        -0.0127    1.0858    0.0080 C.3       1 <0>         0.1068
     13 O1         -0.7038    1.5592   -1.1497 O.3       1 <0>        -0.5663
     14 H1         -3.1493    0.6573    3.3998 H         1 <0>         0.1295
     15 H2         -1.9965   -0.1370    1.3742 H         1 <0>         0.1340
     16 H3          0.4255    3.3735    1.3760 H         1 <0>         0.1344
     17 H4         -0.7331    4.1718    3.3968 H         1 <0>         0.1304
     18 H5         -2.7321    4.0396    4.7680 H         1 <0>         0.1315
     19 H6         -3.7408    2.5731    4.7689 H         1 <0>         0.1292
     20 H7         -0.5618    4.0585    6.3509 H         1 <0>         0.2202
     21 H8          0.1388    2.5179    8.3576 H         1 <0>         0.2223
     22 H9         -2.9907    0.5721    6.3373 H         1 <0>         0.2568
     23 H10         0.0021   -0.0041    0.0020 H         1 <0>         0.0611
     24 H11         1.0099    1.4631    0.0003 H         1 <0>         0.0613
     25 H12        -0.3044    1.2838   -1.9862 H         1 <0>         0.3906
     26 N2         -1.4149    1.2185    7.6062 N.pl3     1 <0>        -0.4839
     27 H13        -1.3656    0.4363    8.2695 H         1 <0>         0.4808
@<TRIPOS>BOND
     1    1    6 ar
     2    1    2 ar
     3    1   14 1
     4    2    3 ar
     5    2   15 1
     6    3    4 ar
     7    3   12 1
     8    4    5 ar
     9    4   16 1
    10    5    6 ar
    11    5   17 1
    12    6    7 1
    13    7    8 1
    14    7   18 1
    15    7   19 1
    16    8   11 1
    17    8    9 1
    18    9   10 2
    19    9   20 1
    20   10   21 1
    21   10   26 1
    22   11   22 1
    23   11   26 2
    24   12   13 1
    25   12   23 1
    26   12   24 1
    27   13   25 1
    28   26   27 1
@<TRIPOS>MOLECULE
ZINC45338026
   36    38     0     0     0
SMALL
USER_CHARGES

@<TRIPOS>ATOM
      1 C1         -7.1814    3.0228    2.0752 C.3       1 <0>         0.0246
      2 O1         -6.0244    2.8008    1.2665 O.3       1 <0>        -0.3141
      3 C2         -5.7331    1.5125    0.9467 C.ar      1 <0>         0.1450
      4 C3         -6.5475    0.4836    1.3970 C.ar      1 <0>        -0.2090
      5 C4         -6.2495   -0.8251    1.0702 C.ar      1 <0>        -0.0541
      6 C5         -5.1404   -1.1100    0.2952 C.ar      1 <0>        -0.1619
      7 C6         -4.3270   -0.0864   -0.1545 C.ar      1 <0>        -0.0529
      8 C7         -4.6241    1.2245    0.1644 C.ar      1 <0>        -0.1514
      9 C8         -4.8175   -2.5386   -0.0595 C.3       1 <0>         0.1502
     10 N1         -5.4440   -2.8776   -1.3397 N.pl3     1 <0>        -0.4491
     11 C9         -6.2965   -2.1036   -2.0457 C.2       1 <0>         0.2005
     12 N2         -6.6454   -2.7380   -3.1325 N.2       1 <0>        -0.4927
     13 C10        -6.0393   -3.9303   -3.1690 C.2       1 <0>         0.0010
     14 C11        -5.2700   -4.0423   -2.0524 C.2       1 <0>         0.0041
     15 C12        -4.4174   -5.1910   -1.6765 C.ar      1 <0>        -0.0065
     16 C13        -3.9373   -5.3099   -0.3717 C.ar      1 <0>        -0.1343
     17 C14        -3.1425   -6.3838   -0.0275 C.ar      1 <0>        -0.1117
     18 C15        -2.8212   -7.3415   -0.9729 C.ar      1 <0>        -0.1215
     19 C16        -3.2940   -7.2294   -2.2682 C.ar      1 <0>        -0.1103
     20 C17        -4.0944   -6.1634   -2.6238 C.ar      1 <0>        -0.1031
     21 H1         -7.2988    4.0913    2.2559 H         1 <0>         0.1039
     22 H2         -8.0633    2.6424    1.5598 H         1 <0>         0.0586
     23 H3         -7.0646    2.5040    3.0267 H         1 <0>         0.0579
     24 H4         -7.4135    0.7056    2.0030 H         1 <0>         0.1339
     25 H5         -6.8832   -1.6264    1.4205 H         1 <0>         0.1284
     26 H6         -3.4611   -0.3115   -0.7594 H         1 <0>         0.1321
     27 H7         -3.9909    2.0240   -0.1908 H         1 <0>         0.1367
     28 H8         -3.7370   -2.6574   -0.1410 H         1 <0>         0.0980
     29 H9         -5.1982   -3.2010    0.7180 H         1 <0>         0.0950
     30 H10        -6.6352   -1.1193   -1.7578 H         1 <0>         0.2018
     31 H11        -6.1396   -4.6707   -3.9488 H         1 <0>         0.1724
     32 H12        -4.1871   -4.5627    0.3670 H         1 <0>         0.1230
     33 H13        -2.7700   -6.4768    0.9819 H         1 <0>         0.1247
     34 H14        -2.1983   -8.1801   -0.6985 H         1 <0>         0.1243
     35 H15        -3.0396   -7.9804   -3.0015 H         1 <0>         0.1278
     36 H16        -4.4669   -6.0796   -3.6340 H         1 <0>         0.1287
@<TRIPOS>BOND
     1    1    2 1
     2    1   21 1
     3    1   22 1
     4    1   23 1
     5    2    3 1
     6    3    8 ar
     7    3    4 ar
     8    4    5 ar
     9    4   24 1
    10    5    6 ar
    11    5   25 1
    12    6    7 ar
    13    6    9 1
    14    7    8 ar
    15    7   26 1
    16    8   27 1
    17    9   10 1
    18    9   28 1
    19    9   29 1
    20   10   14 1
    21   10   11 1
    22   11   12 2
    23   11   30 1
    24   12   13 1
    25   13   14 2
    26   13   31 1
    27   14   15 1
    28   15   20 ar
    29   15   16 ar
    30   16   17 ar
    31   16   32 1
    32   17   18 ar
    33   17   33 1
    34   18   19 ar
    35   18   34 1
    36   19   20 ar
    37   19   35 1
    38   20   36 1
@<TRIPOS>MOLECULE
ZINC12370274
   26    27     0     0     0
SMALL
USER_CHARGES
[3-(imidazol-1-ylmethyl)phenyl]methanol
@<TRIPOS>ATOM
      1 C1         -2.4218    1.2846   -2.8920 C.ar      1 <0>        -0.1210
      2 C2         -2.0785    2.5007   -3.4529 C.ar      1 <0>        -0.0922
      3 C3         -1.0665    3.2584   -2.8942 C.ar      1 <0>        -0.1211
      4 C4         -0.3981    2.8006   -1.7739 C.ar      1 <0>        -0.0773
      5 C5         -0.7416    1.5850   -1.2129 C.ar      1 <0>        -0.0934
      6 C6         -1.7500    0.8245   -1.7751 C.ar      1 <0>        -0.0882
      7 C7         -0.0127    1.0858    0.0080 C.3       1 <0>         0.1155
      8 O1         -0.6816    1.5467    1.1837 O.3       1 <0>        -0.5677
      9 C8         -0.6920    4.5837   -3.5060 C.3       1 <0>         0.1474
     10 N1          0.3516    4.3790   -4.5136 N.pl3     1 <0>        -0.4554
     11 C9          1.7034    4.4091   -4.3005 C.2       1 <0>        -0.0554
     12 C10         2.2905    4.1696   -5.4886 C.2       1 <0>        -0.0293
     13 N2          1.3236    4.0071   -6.4039 N.2       1 <0>        -0.4950
     14 C11         0.1597    4.1312   -5.8271 C.2       1 <0>         0.1833
     15 H1         -3.2123    0.6923   -3.3287 H         1 <0>         0.1293
     16 H2         -2.6009    2.8585   -4.3278 H         1 <0>         0.1259
     17 H3          0.3927    3.3926   -1.3374 H         1 <0>         0.1231
     18 H4         -2.0154   -0.1274   -1.3393 H         1 <0>         0.1263
     19 H5          0.0021   -0.0041    0.0020 H         1 <0>         0.0572
     20 H6          1.0099    1.4631    0.0003 H         1 <0>         0.0560
     21 H7         -0.2663    1.2624    2.0094 H         1 <0>         0.3833
     22 H8         -1.5693    5.0276   -3.9765 H         1 <0>         0.1045
     23 H9         -0.3203    5.2508   -2.7282 H         1 <0>         0.1014
     24 H10         2.2031    4.5881   -3.3599 H         1 <0>         0.1718
     25 H11         3.3535    4.1209   -5.6729 H         1 <0>         0.1690
     26 H12        -0.7984    4.0488   -6.3187 H         1 <0>         0.2021
@<TRIPOS>BOND
     1    1    6 ar
     2    1    2 ar
     3    1   15 1
     4    2    3 ar
     5    2   16 1
     6    3    4 ar
     7    3    9 1
     8    4    5 ar
     9    4   17 1
    10    5    6 ar
    11    5    7 1
    12    6   18 1
    13    7    8 1
    14    7   19 1
    15    7   20 1
    16    8   21 1
    17    9   10 1
    18    9   22 1
    19    9   23 1
    20   10   14 1
    21   10   11 1
    22   11   12 2
    23   11   24 1
    24   12   13 1
    25   12   25 1
    26   13   14 2
    27   14   26 1
@<TRIPOS>MOLECULE
ZINC12370274
   27    28     0     0     0
SMALL
USER_CHARGES
[3-(imidazol-1-ylmethyl)phenyl]methanol
@<TRIPOS>ATOM
      1 C1         -2.4218    1.2846   -2.8920 C.ar      1 <0>        -0.1172
      2 C2         -2.0785    2.5007   -3.4529 C.ar      1 <0>        -0.0908
      3 C3         -1.0665    3.2584   -2.8942 C.ar      1 <0>        -0.1509
      4 C4         -0.3981    2.8006   -1.7739 C.ar      1 <0>        -0.0722
      5 C5         -0.7416    1.5850   -1.2129 C.ar      1 <0>        -0.0865
      6 C6         -1.7500    0.8245   -1.7751 C.ar      1 <0>        -0.0713
      7 C7         -0.0127    1.0858    0.0080 C.3       1 <0>         0.1111
      8 O1         -0.6816    1.5467    1.1837 O.3       1 <0>        -0.5670
      9 C8         -0.6920    4.5837   -3.5060 C.3       1 <0>         0.1417
     10 N1          0.3516    4.3790   -4.5136 N.pl3     1 <0>        -0.4048
     11 C9          1.7034    4.4091   -4.3005 C.2       1 <0>         0.0244
     12 C10         2.2905    4.1696   -5.4886 C.2       1 <0>         0.0037
     13 C11         0.1597    4.1312   -5.8271 C.cat     1 <0>         0.2871
     14 H1         -3.2123    0.6923   -3.3287 H         1 <0>         0.1362
     15 H2         -2.6009    2.8585   -4.3278 H         1 <0>         0.1289
     16 H3          0.3927    3.3926   -1.3374 H         1 <0>         0.1283
     17 H4         -2.0154   -0.1274   -1.3393 H         1 <0>         0.1342
     18 H5          0.0021   -0.0041    0.0020 H         1 <0>         0.0613
     19 H6          1.0099    1.4631    0.0003 H         1 <0>         0.0576
     20 H7         -0.2663    1.2624    2.0094 H         1 <0>         0.3899
     21 H8         -1.5693    5.0276   -3.9765 H         1 <0>         0.1295
     22 H9         -0.3203    5.2508   -2.7282 H         1 <0>         0.1312
     23 H10         2.2031    4.5881   -3.3599 H         1 <0>         0.2198
     24 H11         3.3535    4.1209   -5.6729 H         1 <0>         0.2223
     25 H12        -0.7984    4.0488   -6.3187 H         1 <0>         0.2568
     26 N2          1.3234    4.0074   -6.4026 N.pl3     1 <0>        -0.4840
     27 H13         1.4751    3.8156   -7.3998 H         1 <0>         0.4808
@<TRIPOS>BOND
     1    1    6 ar
     2    1    2 ar
     3    1   14 1
     4    2    3 ar
     5    2   15 1
     6    3    4 ar
     7    3    9 1
     8    4    5 ar
     9    4   16 1
    10    5    6 ar
    11    5    7 1
    12    6   17 1
    13    7    8 1
    14    7   18 1
    15    7   19 1
    16    8   20 1
    17    9   10 1
    18    9   21 1
    19    9   22 1
    20   10   13 1
    21   10   11 1
    22   11   12 2
    23   11   23 1
    24   12   24 1
    25   12   26 1
    26   13   25 1
    27   13   26 2
    28   26   27 1
@<TRIPOS>MOLECULE
ZINC06677784
   24    25     0     0     0
SMALL
USER_CHARGES
3-(imidazol-1-ylmethyl)aniline
@<TRIPOS>ATOM
      1 C1          1.1733    1.7832    0.0004 C.ar      1 <0>        -0.0703
      2 C2          1.1554    3.1661    0.0080 C.ar      1 <0>        -0.1582
      3 C3         -0.0490    3.8450    0.0231 C.ar      1 <0>        -0.0697
      4 C4         -1.2389    3.1436    0.0303 C.ar      1 <0>        -0.1794
      5 C5         -1.2246    1.7548    0.0174 C.ar      1 <0>         0.2168
      6 C6         -0.0126    1.0758    0.0080 C.ar      1 <0>        -0.1887
      7 N1         -2.4260    1.0425    0.0197 N.pl3     1 <0>        -0.8774
      8 C7         -0.0635    5.3519    0.0323 C.3       1 <0>         0.1459
      9 N2         -0.0809    5.8486   -1.3458 N.pl3     1 <0>        -0.4535
     10 C8          1.0112    6.1397   -2.1180 C.2       1 <0>        -0.0530
     11 C9          0.5449    6.5600   -3.3095 C.2       1 <0>        -0.0310
     12 N3         -0.7953    6.5352   -3.2628 N.2       1 <0>        -0.4958
     13 C10        -1.1773    6.1101   -2.0896 C.2       1 <0>         0.1826
     14 H1          2.1158    1.2560   -0.0110 H         1 <0>         0.1250
     15 H2          2.0843    3.7170    0.0025 H         1 <0>         0.1192
     16 H3         -2.1793    3.6745    0.0421 H         1 <0>         0.1206
     17 H4          0.0021   -0.0041    0.0020 H         1 <0>         0.1221
     18 H5         -2.4148    0.0725    0.0147 H         1 <0>         0.3999
     19 H6         -3.2716    1.5176    0.0262 H         1 <0>         0.3992
     20 H7         -0.9522    5.7035    0.5565 H         1 <0>         0.1020
     21 H8          0.8276    5.7208    0.5403 H         1 <0>         0.1019
     22 H9          2.0475    6.0477   -1.8284 H         1 <0>         0.1725
     23 H10         1.1449    6.8672   -4.1533 H         1 <0>         0.1686
     24 H11        -2.2007    5.9872   -1.7671 H         1 <0>         0.2007
@<TRIPOS>BOND
     1    1    6 ar
     2    1    2 ar
     3    1   14 1
     4    2    3 ar
     5    2   15 1
     6    3    4 ar
     7    3    8 1
     8    4    5 ar
     9    4   16 1
    10    5    6 ar
    11    5    7 1
    12    6   17 1
    13    7   18 1
    14    7   19 1
    15    8    9 1
    16    8   20 1
    17    8   21 1
    18    9   13 1
    19    9   10 1
    20   10   11 2
    21   10   22 1
    22   11   12 1
    23   11   23 1
    24   12   13 2
    25   13   24 1
@<TRIPOS>MOLECULE
ZINC01077916
   24    25     0     0     0
SMALL
USER_CHARGES
4-(imidazol-1-ylmethyl)aniline
@<TRIPOS>ATOM
      1 C1          1.1695    2.0894    0.0021 C.ar      1 <0>        -0.0472
      2 C2          2.3774    1.4200   -0.0131 C.ar      1 <0>        -0.2002
      3 C3          2.3998    0.0311   -0.0208 C.ar      1 <0>         0.2276
      4 C4          1.2064   -0.6798   -0.0132 C.ar      1 <0>        -0.1997
      5 C5          0.0021   -0.0041    0.0020 C.ar      1 <0>        -0.0478
      6 C6         -0.0167    1.3786    0.0096 C.ar      1 <0>        -0.1803
      7 C7         -1.3328    2.1126    0.0198 C.3       1 <0>         0.1538
      8 N1         -1.7528    2.3429    1.4043 N.pl3     1 <0>        -0.4533
      9 C8         -1.4490    3.4329    2.1746 C.2       1 <0>        -0.0547
     10 C9         -2.0325    3.2382    3.3726 C.2       1 <0>        -0.0320
     11 N2         -2.6750    2.0615    3.3349 N.2       1 <0>        -0.4973
     12 C10        -2.5168    1.5223    2.1570 C.2       1 <0>         0.1815
     13 N3          3.6196   -0.6492   -0.0366 N.pl3     1 <0>        -0.8756
     14 H1          1.1513    3.1692    0.0078 H         1 <0>         0.1213
     15 H2          3.3034    1.9757   -0.0186 H         1 <0>         0.1226
     16 H3          1.2204   -1.7597   -0.0187 H         1 <0>         0.1230
     17 H4         -0.9261   -0.5561    0.0083 H         1 <0>         0.1226
     18 H5         -1.2191    3.0696   -0.4893 H         1 <0>         0.0971
     19 H6         -2.0861    1.5151   -0.4937 H         1 <0>         0.0995
     20 H7         -0.8558    4.2854    1.8784 H         1 <0>         0.1709
     21 H8         -1.9904    3.9116    4.2160 H         1 <0>         0.1675
     22 H9         -2.9266    0.5754    1.8380 H         1 <0>         0.2008
     23 H10         3.6341   -1.6190   -0.0423 H         1 <0>         0.4001
     24 H11         4.4523   -0.1517   -0.0419 H         1 <0>         0.4000
@<TRIPOS>BOND
     1    1    6 ar
     2    1    2 ar
     3    1   14 1
     4    2    3 ar
     5    2   15 1
     6    3    4 ar
     7    3   13 1
     8    4    5 ar
     9    4   16 1
    10    5    6 ar
    11    5   17 1
    12    6    7 1
    13    7    8 1
    14    7   18 1
    15    7   19 1
    16    8   12 1
    17    8    9 1
    18    9   10 2
    19    9   20 1
    20   10   11 1
    21   10   21 1
    22   11   12 2
    23   12   22 1
    24   13   23 1
    25   13   24 1
