@<TRIPOS>MOLECULE
ZINC01999850
   56    58     0     0     0
SMALL
USER_CHARGES
[10-chloro-6-(2-dimethylaminoethyl)-3-(4-methoxyphenyl)-5-oxo-2-thia-6-azabicyclo[5.4.0]undeca-8,10,12-trien-4-yl] acetate
@<TRIPOS>ATOM
      1 C1          4.4097   -0.0807    4.3764 C.3       1 <0>        -0.1464
      2 C2          3.5361    0.5922    3.3493 C.2       1 <0>         0.4595
      3 O1          2.4429    0.1428    3.0983 O.2       1 <0>        -0.5102
      4 O2          3.9724    1.6907    2.7132 O.3       1 <0>        -0.3094
      5 C3          3.0779    2.2859    1.7365 C.3       1 <0>         0.0760
      6 H1          2.0456    2.1024    2.0345 H         1 <0>         0.1123
      7 C4          3.3278    3.8027    1.6760 C.3       1 <0>        -0.0115
      8 H2          2.8444    4.2919    2.5216 H         1 <0>         0.1278
      9 S1          2.6091    4.4112    0.1136 S.3       1 <0>        -0.0866
     10 C5          1.0860    3.5291   -0.0003 C.ar      1 <0>        -0.1367
     11 C6         -0.1217    4.1761    0.2047 C.ar      1 <0>        -0.0354
     12 C7         -1.3048    3.4638    0.1074 C.ar      1 <0>        -0.0392
     13 C8         -1.2824    2.1140   -0.1979 C.ar      1 <0>        -0.0620
     14 C9         -0.0783    1.4626   -0.3974 C.ar      1 <0>        -0.1129
     15 C10         1.1092    2.1689   -0.3013 C.ar      1 <0>         0.1544
     16 N1          2.3417    1.5275   -0.5014 N.am      1 <0>        -0.5505
     17 C11         3.3259    1.6594    0.3964 C.2       1 <0>         0.5217
     18 O3          4.4393    1.2649    0.1210 O.2       1 <0>        -0.4812
     19 C12         2.5520    0.7097   -1.6986 C.3       1 <0>         0.0915
     20 C13         3.1138    1.5842   -2.8213 C.3       1 <0>        -0.0267
     21 C14         2.0462    0.2818   -4.5610 C.3       1 <0>        -0.0492
     22 C15         4.0792    1.5064   -5.0405 C.3       1 <0>        -0.0415
     23 Cl1        -2.8220    4.2678    0.3631 Cl        1 <0>        -0.0361
     24 C16         4.8086    4.0809    1.7013 C.ar      1 <0>        -0.1203
     25 C17         5.3840    4.6546    2.8201 C.ar      1 <0>        -0.0432
     26 C18         6.7422    4.9054    2.8480 C.ar      1 <0>        -0.2076
     27 C19         7.5270    4.5920    1.7478 C.ar      1 <0>         0.1473
     28 C20         6.9464    4.0217    0.6243 C.ar      1 <0>        -0.1528
     29 C21         5.5887    3.7672    0.6037 C.ar      1 <0>        -0.0428
     30 O4          8.8623    4.8438    1.7703 O.3       1 <0>        -0.3149
     31 C22         9.3916    5.4322    2.9602 C.3       1 <0>         0.0242
     32 H3          5.3500    0.4633    4.4661 H         1 <0>         0.0964
     33 H4          3.8997   -0.0861    5.3398 H         1 <0>         0.1129
     34 H5          4.6113   -1.1061    4.0664 H         1 <0>         0.1106
     35 H6         -0.1401    5.2301    0.4394 H         1 <0>         0.1580
     36 H7         -2.2095    1.5656   -0.2766 H         1 <0>         0.1526
     37 H8         -0.0646    0.4084   -0.6316 H         1 <0>         0.1462
     38 H9          3.2576   -0.0898   -1.4731 H         1 <0>         0.1129
     39 H10         1.6025    0.2779   -2.0149 H         1 <0>         0.1074
     40 H11         2.4082    2.3838   -3.0468 H         1 <0>         0.1366
     41 H12         4.0633    2.0161   -2.5049 H         1 <0>         0.1392
     42 H13         1.4188    1.1332   -4.8251 H         1 <0>         0.1254
     43 H14         2.2313   -0.3224   -5.4491 H         1 <0>         0.1272
     44 H15         1.5398   -0.3233   -3.8090 H         1 <0>         0.1201
     45 H16         5.0507    1.7917   -4.6370 H         1 <0>         0.1236
     46 H17         4.2212    0.8762   -5.9184 H         1 <0>         0.1258
     47 H18         3.5254    2.4022   -5.3219 H         1 <0>         0.1240
     48 H19         4.7718    4.9030    3.6744 H         1 <0>         0.1290
     49 H20         7.1918    5.3498    3.7237 H         1 <0>         0.1351
     50 H21         7.5553    3.7765   -0.2333 H         1 <0>         0.1314
     51 H22         5.1362    3.3233   -0.2707 H         1 <0>         0.1262
     52 H23         8.9093    6.3938    3.1355 H         1 <0>         0.0591
     53 H24         9.2037    4.7718    3.8067 H         1 <0>         0.0590
     54 H25        10.4655    5.5798    2.8458 H         1 <0>         0.1049
     55 N2          3.3402    0.7413   -4.0142 N.4       1 <0>        -0.3943
     56 H26         3.8974   -0.0775   -3.7432 H         1 <0>         0.4333
@<TRIPOS>BOND
     1    1    2 1
     2    1   32 1
     3    1   33 1
     4    1   34 1
     5    2    3 2
     6    2    4 1
     7    4    5 1
     8    5    6 1
     9    5   17 1
    10    5    7 1
    11    7    8 1
    12    7    9 1
    13    7   24 1
    14    9   10 1
    15   10   15 ar
    16   10   11 ar
    17   11   12 ar
    18   11   35 1
    19   12   13 ar
    20   12   23 1
    21   13   14 ar
    22   13   36 1
    23   14   15 ar
    24   14   37 1
    25   15   16 1
    26   16   17 am
    27   16   19 1
    28   17   18 2
    29   19   20 1
    30   19   38 1
    31   19   39 1
    32   20   40 1
    33   20   41 1
    34   20   55 1
    35   21   42 1
    36   21   43 1
    37   21   44 1
    38   21   55 1
    39   22   45 1
    40   22   46 1
    41   22   47 1
    42   22   55 1
    43   24   29 ar
    44   24   25 ar
    45   25   26 ar
    46   25   48 1
    47   26   27 ar
    48   26   49 1
    49   27   28 ar
    50   27   30 1
    51   28   29 ar
    52   28   50 1
    53   29   51 1
    54   30   31 1
    55   31   52 1
    56   31   53 1
    57   31   54 1
    58   55   56 1
@<TRIPOS>MOLECULE
ZINC11678447
   56    58     0     0     0
SMALL
USER_CHARGES
[(2S,3S)-8-chloro-5-(2-dimethylaminoethyl)-2-(4-methoxyphenyl)-4-oxo-2,3-dihydro-1,5-benzothiazepin-3-yl] acetate
@<TRIPOS>ATOM
      1 C1         -2.2399   -1.1981   -2.8073 C.3       1 <0>        -0.1464
      2 C2         -1.0615   -0.6889   -2.0178 C.2       1 <0>         0.4595
      3 O1         -0.0161   -0.4541   -2.5763 O.2       1 <0>        -0.5101
      4 O2         -1.1733   -0.4962   -0.6941 O.3       1 <0>        -0.3088
      5 C3          0.0021   -0.0041    0.0020 C.3       1 <0>         0.0751
      6 H1          0.8976   -0.3494   -0.5145 H         1 <0>         0.1131
      7 C4          0.0071   -0.5500    1.4403 C.3       1 <0>        -0.0105
      8 H2          0.3482   -1.5853    1.4426 H         1 <0>         0.1285
      9 S1          1.1550    0.4834    2.4110 S.3       1 <0>        -0.0901
     10 C5          2.5099    0.7262    1.3082 C.ar      1 <0>        -0.1356
     11 C6          3.7199    0.0874    1.5253 C.ar      1 <0>        -0.0355
     12 C7          4.7705    0.2951    0.6479 C.ar      1 <0>        -0.0386
     13 C8          4.6134    1.1352   -0.4407 C.ar      1 <0>        -0.0622
     14 C9          3.4065    1.7744   -0.6617 C.ar      1 <0>        -0.1125
     15 C10         2.3511    1.5710    0.2118 C.ar      1 <0>         0.1527
     16 N1          1.1166    2.2059    0.0032 N.am      1 <0>        -0.5489
     17 C11        -0.0183    1.4957    0.0103 C.2       1 <0>         0.5222
     18 O3         -1.0833    2.0762    0.0184 O.2       1 <0>        -0.4829
     19 C12         1.0698    3.6525   -0.2231 C.3       1 <0>         0.0910
     20 C13         0.9258    4.3742    1.1183 C.3       1 <0>        -0.0266
     21 C14         0.5055    6.5381    2.1200 C.3       1 <0>        -0.0415
     22 C15         2.1592    6.3170    0.3653 C.3       1 <0>        -0.0493
     23 Cl1         6.2898   -0.5017    0.9136 Cl        1 <0>        -0.0357
     24 C16        -1.3789   -0.4647    2.0256 C.ar      1 <0>        -0.1227
     25 C17        -2.0023    0.7635    2.1474 C.ar      1 <0>        -0.0460
     26 C18        -3.2751    0.8438    2.6784 C.ar      1 <0>        -0.2100
     27 C19        -3.9232   -0.3079    3.1005 C.ar      1 <0>         0.1471
     28 C20        -3.2933   -1.5384    2.9825 C.ar      1 <0>        -0.1519
     29 C21        -2.0229   -1.6140    2.4452 C.ar      1 <0>        -0.0467
     30 O4         -5.1728   -0.2309    3.6292 O.3       1 <0>        -0.3127
     31 C22        -5.7597    1.0688    3.7200 C.3       1 <0>         0.0262
     32 H3         -3.0867   -1.3510   -2.1382 H         1 <0>         0.0969
     33 H4         -2.5077   -0.4685   -3.5715 H         1 <0>         0.1104
     34 H5         -1.9774   -2.1430   -3.2830 H         1 <0>         0.1133
     35 H6          3.8432   -0.5680    2.3747 H         1 <0>         0.1582
     36 H7          5.4374    1.2929   -1.1209 H         1 <0>         0.1528
     37 H8          3.2879    2.4298   -1.5119 H         1 <0>         0.1462
     38 H9          1.9897    3.9737   -0.7116 H         1 <0>         0.1080
     39 H10         0.2177    3.8935   -0.8586 H         1 <0>         0.1132
     40 H11         0.0059    4.0530    1.6068 H         1 <0>         0.1386
     41 H12         1.7780    4.1332    1.7538 H         1 <0>         0.1369
     42 H13         1.2395    6.3297    2.8985 H         1 <0>         0.1242
     43 H14         0.4783    7.6100    1.9239 H         1 <0>         0.1261
     44 H15        -0.4783    6.2039    2.4494 H         1 <0>         0.1230
     45 H16         2.3776    5.8221   -0.5810 H         1 <0>         0.1203
     46 H17         2.0969    7.3935    0.2064 H         1 <0>         0.1273
     47 H18         2.9531    6.1006    1.0802 H         1 <0>         0.1256
     48 H19        -1.4953    1.6604    1.8233 H         1 <0>         0.1331
     49 H20        -3.7635    1.8028    2.7688 H         1 <0>         0.1284
     50 H21        -3.7959   -2.4364    3.3101 H         1 <0>         0.1380
     51 H22        -1.5322   -2.5717    2.3531 H         1 <0>         0.1336
     52 H23        -5.8360    1.5036    2.7234 H         1 <0>         0.0568
     53 H24        -6.7544    0.9885    4.1585 H         1 <0>         0.1047
     54 H25        -5.1364    1.7059    4.3476 H         1 <0>         0.0557
     55 N2          0.8588    5.8300    0.8716 N.4       1 <0>        -0.3943
     56 H26         0.1357    6.0159    0.1667 H         1 <0>         0.4331
@<TRIPOS>BOND
     1    1    2 1
     2    1   32 1
     3    1   33 1
     4    1   34 1
     5    2    3 2
     6    2    4 1
     7    4    5 1
     8    5    6 1
     9    5   17 1
    10    5    7 1
    11    7    8 1
    12    7    9 1
    13    7   24 1
    14    9   10 1
    15   10   15 ar
    16   10   11 ar
    17   11   12 ar
    18   11   35 1
    19   12   13 ar
    20   12   23 1
    21   13   14 ar
    22   13   36 1
    23   14   15 ar
    24   14   37 1
    25   15   16 1
    26   16   17 am
    27   16   19 1
    28   17   18 2
    29   19   20 1
    30   19   38 1
    31   19   39 1
    32   20   40 1
    33   20   41 1
    34   20   55 1
    35   21   42 1
    36   21   43 1
    37   21   44 1
    38   21   55 1
    39   22   45 1
    40   22   46 1
    41   22   47 1
    42   22   55 1
    43   24   29 ar
    44   24   25 ar
    45   25   26 ar
    46   25   48 1
    47   26   27 ar
    48   26   49 1
    49   27   28 ar
    50   27   30 1
    51   28   29 ar
    52   28   50 1
    53   29   51 1
    54   30   31 1
    55   31   52 1
    56   31   53 1
    57   31   54 1
    58   55   56 1
@<TRIPOS>MOLECULE
ZINC11678452
   56    58     0     0     0
SMALL
USER_CHARGES
[(2R,3S)-8-chloro-5-(2-dimethylaminoethyl)-2-(4-methoxyphenyl)-4-oxo-2,3-dihydro-1,5-benzothiazepin-3-yl] acetate
@<TRIPOS>ATOM
      1 C1         -0.6532    2.5728    6.1809 C.3       1 <0>        -0.1471
      2 C2         -0.7365    1.3240    5.3414 C.2       1 <0>         0.4565
      3 O1         -1.8091    0.8110    5.1264 O.2       1 <0>        -0.4955
      4 O2          0.3809    0.7817    4.8324 O.3       1 <0>        -0.3423
      5 C3          0.2253   -0.4207    4.0335 C.3       1 <0>         0.0704
      6 H1         -0.6371   -0.9826    4.3923 H         1 <0>         0.1391
      7 C4          1.4890   -1.2878    4.1681 C.3       1 <0>        -0.0047
      8 H2          1.8283   -1.2902    5.2039 H         1 <0>         0.1309
      9 S1          2.7702   -0.5530    3.0975 S.3       1 <0>        -0.1055
     10 C5          2.5756    1.1793    3.3661 C.ar      1 <0>        -0.1116
     11 C6          3.5141    1.8905    4.0959 C.ar      1 <0>        -0.0320
     12 C7          3.3434    3.2507    4.2889 C.ar      1 <0>        -0.0415
     13 C8          2.2415    3.8972    3.7565 C.ar      1 <0>        -0.0636
     14 C9          1.3008    3.1904    3.0288 C.ar      1 <0>        -0.1269
     15 C10         1.4651    1.8294    2.8320 C.ar      1 <0>         0.1776
     16 N1          0.5218    1.0932    2.0980 N.am      1 <0>        -0.5514
     17 C11         0.0006   -0.0316    2.6033 C.2       1 <0>         0.5295
     18 O3         -0.6637   -0.7526    1.8891 O.2       1 <0>        -0.4863
     19 C12         0.1011    1.5613    0.7751 C.3       1 <0>         0.0891
     20 C13         1.0200    0.9649   -0.2929 C.3       1 <0>        -0.0260
     21 C14         0.8003    2.8832   -1.7540 C.3       1 <0>        -0.0488
     22 C15         1.2992    0.7039   -2.6839 C.3       1 <0>        -0.0415
     23 Cl1         4.5159    4.1487    5.2014 Cl        1 <0>        -0.0414
     24 C16         1.1939   -2.6964    3.7212 C.ar      1 <0>        -0.1394
     25 C17         1.1445   -3.7192    4.6502 C.ar      1 <0>        -0.0457
     26 C18         0.8686   -5.0104    4.2438 C.ar      1 <0>        -0.2081
     27 C19         0.6525   -5.2823    2.9007 C.ar      1 <0>         0.1516
     28 C20         0.7082   -4.2552    1.9697 C.ar      1 <0>        -0.1526
     29 C21         0.9784   -2.9648    2.3820 C.ar      1 <0>        -0.0423
     30 O4          0.3872   -6.5527    2.4975 O.3       1 <0>        -0.3131
     31 C22         0.3454   -7.5595    3.5107 C.3       1 <0>         0.0231
     32 H3         -0.7389    3.4490    5.5382 H         1 <0>         0.1069
     33 H4         -1.4642    2.5757    6.9092 H         1 <0>         0.1115
     34 H5          0.3036    2.5968    6.7024 H         1 <0>         0.0987
     35 H6          4.3738    1.3865    4.5122 H         1 <0>         0.1537
     36 H7          2.1152    4.9587    3.9103 H         1 <0>         0.1491
     37 H8          0.4419    3.6982    2.6154 H         1 <0>         0.1407
     38 H9          0.1601    2.6491    0.7389 H         1 <0>         0.1067
     39 H10        -0.9256    1.2468    0.5879 H         1 <0>         0.1129
     40 H11         0.9610   -0.1229   -0.2568 H         1 <0>         0.1388
     41 H12         2.0467    1.2795   -0.1057 H         1 <0>         0.1367
     42 H13         1.8565    3.1166   -1.6202 H         1 <0>         0.1254
     43 H14         0.4799    3.2042   -2.7452 H         1 <0>         0.1270
     44 H15         0.2143    3.4036   -0.9965 H         1 <0>         0.1198
     45 H16         1.0761   -0.3599   -2.6023 H         1 <0>         0.1235
     46 H17         0.9683    1.0712   -3.6553 H         1 <0>         0.1258
     47 H18         2.3736    0.8585   -2.5838 H         1 <0>         0.1241
     48 H19         1.3179   -3.5079    5.6951 H         1 <0>         0.1321
     49 H20         0.8255   -5.8082    4.9705 H         1 <0>         0.1375
     50 H21         0.5400   -4.4643    0.9236 H         1 <0>         0.1342
     51 H22         1.0219   -2.1648    1.6577 H         1 <0>         0.1297
     52 H23         0.1250   -8.5248    3.0549 H         1 <0>         0.1063
     53 H24         1.3106   -7.6078    4.0150 H         1 <0>         0.0601
     54 H25        -0.4311   -7.3140    4.2351 H         1 <0>         0.0598
     55 N2          0.5701    1.4291   -1.6222 N.4       1 <0>        -0.3946
     56 H26        -0.4345    1.2404   -1.7189 H         1 <0>         0.4333
@<TRIPOS>BOND
     1    1    2 1
     2    1   32 1
     3    1   33 1
     4    1   34 1
     5    2    3 2
     6    2    4 1
     7    4    5 1
     8    5    6 1
     9    5   17 1
    10    5    7 1
    11    7    8 1
    12    7    9 1
    13    7   24 1
    14    9   10 1
    15   10   15 ar
    16   10   11 ar
    17   11   12 ar
    18   11   35 1
    19   12   13 ar
    20   12   23 1
    21   13   14 ar
    22   13   36 1
    23   14   15 ar
    24   14   37 1
    25   15   16 1
    26   16   17 am
    27   16   19 1
    28   17   18 2
    29   19   20 1
    30   19   38 1
    31   19   39 1
    32   20   40 1
    33   20   41 1
    34   20   55 1
    35   21   42 1
    36   21   43 1
    37   21   44 1
    38   21   55 1
    39   22   45 1
    40   22   46 1
    41   22   47 1
    42   22   55 1
    43   24   29 ar
    44   24   25 ar
    45   25   26 ar
    46   25   48 1
    47   26   27 ar
    48   26   49 1
    49   27   28 ar
    50   27   30 1
    51   28   29 ar
    52   28   50 1
    53   29   51 1
    54   30   31 1
    55   31   52 1
    56   31   53 1
    57   31   54 1
    58   55   56 1
@<TRIPOS>MOLECULE
ZINC11678458
   56    58     0     0     0
SMALL
USER_CHARGES
[(2S,3R)-8-chloro-5-(2-dimethylaminoethyl)-2-(4-methoxyphenyl)-4-oxo-2,3-dihydro-1,5-benzothiazepin-3-yl] acetate
@<TRIPOS>ATOM
      1 C1          0.0652    9.4274   -2.9825 C.3       1 <0>        -0.1490
      2 C2         -0.2963    7.9899   -2.7105 C.2       1 <0>         0.4563
      3 O1         -0.5161    7.2379   -3.6303 O.2       1 <0>        -0.4994
      4 O2         -0.3742    7.5450   -1.4465 O.3       1 <0>        -0.3408
      5 C3         -0.7274    6.1491   -1.2596 C.3       1 <0>         0.0713
      6 H1         -0.3604    5.5710   -2.1077 H         1 <0>         0.1392
      7 C4         -0.0743    5.6278    0.0320 C.3       1 <0>        -0.0082
      8 H2          0.9426    6.0116    0.1141 H         1 <0>         0.1304
      9 S1         -1.0783    6.2268    1.4324 S.3       1 <0>        -0.0951
     10 C5         -1.4643    7.8850    0.9718 C.ar      1 <0>        -0.1086
     11 C6         -0.8640    8.9545    1.6160 C.ar      1 <0>        -0.0288
     12 C7         -1.1845   10.2476    1.2396 C.ar      1 <0>        -0.0418
     13 C8         -2.0986   10.4716    0.2248 C.ar      1 <0>        -0.0649
     14 C9         -2.6996    9.4064   -0.4220 C.ar      1 <0>        -0.1345
     15 C10        -2.3836    8.1101   -0.0507 C.ar      1 <0>         0.1816
     16 N1         -2.9785    7.0150   -0.6969 N.am      1 <0>        -0.5517
     17 C11        -2.2215    6.0217   -1.1788 C.2       1 <0>         0.5283
     18 O3         -2.7524    4.9989   -1.5574 O.2       1 <0>        -0.4830
     19 C12        -4.4349    6.9592   -0.8449 C.3       1 <0>         0.0852
     20 C13        -4.8400    7.6295   -2.1592 C.3       1 <0>        -0.0328
     21 C14        -6.7478    8.4082   -3.4306 C.3       1 <0>        -0.0424
     22 C15        -6.7608    6.1875   -2.4658 C.3       1 <0>        -0.0490
     23 Cl1        -0.4372   11.5928    2.0432 Cl        1 <0>        -0.0405
     24 C16        -0.0539    4.1209    0.0237 C.ar      1 <0>        -0.1409
     25 C17        -1.2326    3.4139    0.1733 C.ar      1 <0>        -0.0413
     26 C18        -1.2166    2.0326    0.1656 C.ar      1 <0>        -0.1513
     27 C19        -0.0165    1.3548    0.0077 C.ar      1 <0>         0.1513
     28 C20         1.1656    2.0665   -0.1369 C.ar      1 <0>        -0.2093
     29 C21         1.1435    3.4478   -0.1338 C.ar      1 <0>        -0.0468
     30 O4          0.0020   -0.0041    0.0002 O.3       1 <0>        -0.3129
     31 C22         1.2733   -0.6347   -0.1668 C.3       1 <0>         0.0234
     32 H3          1.1473    9.5184   -3.0767 H         1 <0>         0.1146
     33 H4         -0.4088    9.7523   -3.9087 H         1 <0>         0.1079
     34 H5         -0.2815   10.0513   -2.1586 H         1 <0>         0.0950
     35 H6         -0.1508    8.7804    2.4082 H         1 <0>         0.1551
     36 H7         -2.3441   11.4830   -0.0635 H         1 <0>         0.1487
     37 H8         -3.4128    9.5851   -1.2131 H         1 <0>         0.1321
     38 H9         -4.7597    5.9187   -0.8525 H         1 <0>         0.1212
     39 H10        -4.9051    7.4805   -0.0111 H         1 <0>         0.1106
     40 H11        -4.5152    8.6700   -2.1517 H         1 <0>         0.1312
     41 H12        -4.3698    7.1081   -2.9930 H         1 <0>         0.1367
     42 H13        -6.2889    8.0526   -4.3531 H         1 <0>         0.1242
     43 H14        -7.8327    8.3486   -3.5181 H         1 <0>         0.1276
     44 H15        -6.4539    9.4429   -3.2540 H         1 <0>         0.1221
     45 H16        -6.4762    5.6077   -1.5878 H         1 <0>         0.1237
     46 H17        -7.8454    6.1749   -2.5737 H         1 <0>         0.1277
     47 H18        -6.3023    5.7514   -3.3534 H         1 <0>         0.1263
     48 H19        -2.1666    3.9420    0.2966 H         1 <0>         0.1334
     49 H20        -2.1376    1.4807    0.2828 H         1 <0>         0.1356
     50 H21         2.1017    1.5412   -0.2556 H         1 <0>         0.1369
     51 H22         2.0629    4.0023   -0.2504 H         1 <0>         0.1312
     52 H23         1.1464   -1.7172   -0.1543 H         1 <0>         0.1059
     53 H24         1.7074   -0.3307   -1.1193 H         1 <0>         0.0591
     54 H25         1.9360   -0.3373    0.6459 H         1 <0>         0.0599
     55 N2         -6.3121    7.5840   -2.2837 N.4       1 <0>        -0.3929
     56 H26        -6.7312    7.9596   -1.4248 H         1 <0>         0.4323
@<TRIPOS>BOND
     1    1    2 1
     2    1   32 1
     3    1   33 1
     4    1   34 1
     5    2    3 2
     6    2    4 1
     7    4    5 1
     8    5    6 1
     9    5   17 1
    10    5    7 1
    11    7    8 1
    12    7    9 1
    13    7   24 1
    14    9   10 1
    15   10   15 ar
    16   10   11 ar
    17   11   12 ar
    18   11   35 1
    19   12   13 ar
    20   12   23 1
    21   13   14 ar
    22   13   36 1
    23   14   15 ar
    24   14   37 1
    25   15   16 1
    26   16   17 am
    27   16   19 1
    28   17   18 2
    29   19   20 1
    30   19   38 1
    31   19   39 1
    32   20   40 1
    33   20   41 1
    34   20   55 1
    35   21   42 1
    36   21   43 1
    37   21   44 1
    38   21   55 1
    39   22   45 1
    40   22   46 1
    41   22   47 1
    42   22   55 1
    43   24   29 ar
    44   24   25 ar
    45   25   26 ar
    46   25   48 1
    47   26   27 ar
    48   26   49 1
    49   27   28 ar
    50   27   30 1
    51   28   29 ar
    52   28   50 1
    53   29   51 1
    54   30   31 1
    55   31   52 1
    56   31   53 1
    57   31   54 1
    58   55   56 1
@<TRIPOS>MOLECULE
ZINC19594578
   42    43     0     0     0
SMALL
USER_CHARGES

@<TRIPOS>ATOM
      1 C1          2.2963   -1.7884   -0.7145 C.3       1 <0>        -0.0923
      2 C2          1.4718   -3.0131   -0.4122 C.2       1 <0>         0.3012
      3 C3          0.0896   -2.9174   -0.4479 C.2       1 <0>        -0.3659
      4 C4         -0.7042   -4.1738   -0.1379 C.3       1 <0>         0.1078
      5 H1         -1.3383   -4.3964   -0.9961 H         1 <0>         0.0608
      6 C5          0.1142   -5.4119    0.1811 C.2       1 <0>        -0.3854
      7 C6         -0.4961   -6.6246    0.4812 C.2       1 <0>         0.4775
      8 O1         -1.8126   -6.7635    0.3291 O.3       1 <0>        -0.6205
      9 O2          0.2441   -7.6599    0.9261 O.3       1 <0>        -0.3341
     10 C7         -0.4487   -8.8759    1.2150 C.3       1 <0>         0.0364
     11 C8          1.4942   -5.2852    0.1607 C.2       1 <0>         0.2892
     12 N1          2.0880   -4.1435   -0.1272 N.2       1 <0>        -0.6421
     13 C9          2.3427   -6.4910    0.4723 C.3       1 <0>        -0.1054
     14 C10        -1.5971   -3.8874    1.0419 C.ar      1 <0>         0.0222
     15 C11        -1.0432   -3.6451    2.2853 C.ar      1 <0>        -0.1052
     16 C12        -1.8620   -3.3825    3.3673 C.ar      1 <0>        -0.0902
     17 C13        -3.2350   -3.3617    3.2062 C.ar      1 <0>        -0.1344
     18 C14        -3.7887   -3.6031    1.9630 C.ar      1 <0>        -0.0786
     19 C15        -2.9694   -3.8615    0.8798 C.ar      1 <0>        -0.0045
     20 N2         -3.5622   -4.1150   -0.4527 N.pl3     1 <0>         0.0414
     21 O3         -4.4639   -4.9114   -0.5715 O.2       1 <0>        -0.1804
     22 O4         -3.1445   -3.5256   -1.4221 O.3       1 <0>        -0.1243
     23 C16        -0.5445   -1.7188   -0.7549 C.2       1 <0>         0.4850
     24 O5          0.1786   -0.6320   -1.0224 O.2       1 <0>        -0.6277
     25 O6         -1.8910   -1.6562   -0.7820 O.3       1 <0>        -0.3126
     26 C17        -2.4753   -0.3927   -1.1050 C.3       1 <0>         0.0441
     27 H2          3.3553   -2.0378   -0.6477 H         1 <0>         0.0511
     28 H3          2.0687   -1.4364   -1.7207 H         1 <0>         0.0825
     29 H4          2.0613   -1.0052    0.0062 H         1 <0>         0.0805
     30 H5         -1.1939   -8.6944    1.9895 H         1 <0>         0.0514
     31 H6         -0.9429   -9.2357    0.3125 H         1 <0>         0.0531
     32 H7          0.2622   -9.6252    1.5632 H         1 <0>         0.0877
     33 H8          2.0952   -7.2976   -0.2177 H         1 <0>         0.0761
     34 H9          3.3960   -6.2316    0.3652 H         1 <0>         0.0659
     35 H10         2.1507   -6.8159    1.4949 H         1 <0>         0.0804
     36 H11         0.0294   -3.6613    2.4111 H         1 <0>         0.1319
     37 H12        -1.4294   -3.1939    4.3387 H         1 <0>         0.1296
     38 H13        -3.8749   -3.1572    4.0519 H         1 <0>         0.1333
     39 H14        -4.8612   -3.5872    1.8373 H         1 <0>         0.1319
     40 H15        -3.5617   -0.4808   -1.0919 H         1 <0>         0.0816
     41 H16        -2.1623    0.3504   -0.3716 H         1 <0>         0.0468
     42 H17        -2.1477   -0.0840   -2.0977 H         1 <0>         0.0541
@<TRIPOS>BOND
     1    1    2 1
     2    1   27 1
     3    1   28 1
     4    1   29 1
     5    2   12 1
     6    2    3 2
     7    3    4 1
     8    3   23 1
     9    4    5 1
    10    4    6 1
    11    4   14 1
    12    6    7 2
    13    6   11 1
    14    7    8 1
    15    7    9 1
    16    9   10 1
    17   10   30 1
    18   10   31 1
    19   10   32 1
    20   11   12 2
    21   11   13 1
    22   13   33 1
    23   13   34 1
    24   13   35 1
    25   14   19 ar
    26   14   15 ar
    27   15   16 ar
    28   15   36 1
    29   16   17 ar
    30   16   37 1
    31   17   18 ar
    32   17   38 1
    33   18   19 ar
    34   18   39 1
    35   19   20 1
    36   20   21 2
    37   20   22 1
    38   23   24 2
    39   23   25 1
    40   25   26 1
    41   26   40 1
    42   26   41 1
    43   26   42 1
@<TRIPOS>MOLECULE
ZINC00621893
   56    58     0     0     0
SMALL
USER_CHARGES

@<TRIPOS>ATOM
      1 C1         -1.8116    0.6359    0.1103 C.3       1 <0>        -0.1479
      2 C2         -1.2733   -0.7661   -0.0154 C.2       1 <0>         0.4603
      3 O1         -1.2365   -1.4881    0.9527 O.2       1 <0>        -0.5144
      4 O2         -0.8348   -1.2127   -1.2028 O.3       1 <0>        -0.3048
      5 C3         -0.3379   -2.5517   -1.2491 C.3       1 <0>         0.0768
      6 H1          0.0909   -2.8105   -0.2809 H         1 <0>         0.1106
      7 C4          0.7511   -2.6529   -2.3310 C.3       1 <0>        -0.0132
      8 H2          1.6870   -2.2400   -1.9546 H         1 <0>         0.1261
      9 S1          0.9666   -4.4216   -2.7229 S.3       1 <0>        -0.0909
     10 C5          0.8947   -5.1967   -1.1401 C.ar      1 <0>        -0.1433
     11 C6          2.0380   -5.7182   -0.5569 C.ar      1 <0>        -0.0397
     12 C7          1.9577   -6.3228    0.6848 C.ar      1 <0>        -0.1165
     13 C8          0.7434   -6.4072    1.3414 C.ar      1 <0>        -0.0700
     14 C9         -0.4015   -5.8878    0.7635 C.ar      1 <0>        -0.1354
     15 C10        -0.3288   -5.2803   -0.4790 C.ar      1 <0>         0.1556
     16 N1         -1.4766   -4.7426   -1.0813 N.am      1 <0>        -0.5515
     17 C11        -1.4672   -3.4893   -1.5578 C.2       1 <0>         0.5190
     18 O3         -2.3887   -3.1045   -2.2463 O.2       1 <0>        -0.4824
     19 C12        -2.6897   -5.5561   -1.1945 C.3       1 <0>         0.0897
     20 C13        -3.5576   -5.3533    0.0492 C.3       1 <0>        -0.0366
     21 N2         -4.7740   -6.1690   -0.0643 N.4       1 <0>        -0.3827
     22 C14        -4.4114   -7.5925   -0.0573 C.3       1 <0>        -0.0556
     23 C15        -5.6621   -5.8842    1.0707 C.3       1 <0>        -0.0469
     24 C16         0.3194   -1.9022   -3.5643 C.ar      1 <0>        -0.1214
     25 C17         0.9449   -0.7172   -3.9053 C.ar      1 <0>        -0.0467
     26 C18         0.5507   -0.0269   -5.0351 C.ar      1 <0>        -0.1520
     27 C19        -0.4735   -0.5239   -5.8281 C.ar      1 <0>         0.1455
     28 C20        -1.0992   -1.7133   -5.4841 C.ar      1 <0>        -0.2080
     29 C21        -0.6978   -2.4025   -4.3561 C.ar      1 <0>        -0.0400
     30 O4         -0.8634    0.1536   -6.9398 O.3       1 <0>        -0.3134
     31 C22        -1.9240   -0.4173   -7.7087 C.3       1 <0>         0.0257
     32 H3         -0.9977    1.3165    0.3603 H         1 <0>         0.1138
     33 H4         -2.2610    0.9387   -0.8354 H         1 <0>         0.1003
     34 H5         -2.5654    0.6665    0.8971 H         1 <0>         0.1073
     35 H6          2.9869   -5.6528   -1.0686 H         1 <0>         0.1489
     36 H7          2.8465   -6.7307    1.1431 H         1 <0>         0.1429
     37 H8          0.6884   -6.8814    2.3101 H         1 <0>         0.1405
     38 H9         -1.3480   -5.9562    1.2791 H         1 <0>         0.1259
     39 H10        -3.2482   -5.2542   -2.0805 H         1 <0>         0.1186
     40 H11        -2.4155   -6.6076   -1.2786 H         1 <0>         0.1094
     41 H12        -2.9990   -5.6551    0.9352 H         1 <0>         0.1342
     42 H13        -3.8318   -4.3017    0.1333 H         1 <0>         0.1346
     43 H14        -5.3140   -8.1978   -0.1414 H         1 <0>         0.1301
     44 H15        -3.7524   -7.8038   -0.8994 H         1 <0>         0.1243
     45 H16        -3.8988   -7.8323    0.8743 H         1 <0>         0.1244
     46 H17        -5.9312   -4.8280    1.0654 H         1 <0>         0.1241
     47 H18        -6.5647   -6.4895    0.9865 H         1 <0>         0.1291
     48 H19        -5.1495   -6.1240    2.0022 H         1 <0>         0.1230
     49 H20         1.7421   -0.3308   -3.2876 H         1 <0>         0.1322
     50 H21         1.0391    0.8990   -5.3006 H         1 <0>         0.1373
     51 H22        -1.8967   -2.1022   -6.0998 H         1 <0>         0.1296
     52 H23        -1.1816   -3.3308   -4.0903 H         1 <0>         0.1259
     53 H24        -1.6283   -1.4067   -8.0574 H         1 <0>         0.0572
     54 H25        -2.8169   -0.5022   -7.0893 H         1 <0>         0.0563
     55 H26        -2.1360    0.2217   -8.5660 H         1 <0>         0.1044
     56 H27        -5.2486   -5.9470   -0.9266 H         1 <0>         0.4300
@<TRIPOS>BOND
     1    1    2 1
     2    1   32 1
     3    1   33 1
     4    1   34 1
     5    2    3 2
     6    2    4 1
     7    4    5 1
     8    5    6 1
     9    5   17 1
    10    5    7 1
    11    7    8 1
    12    7    9 1
    13    7   24 1
    14    9   10 1
    15   10   15 ar
    16   10   11 ar
    17   11   12 ar
    18   11   35 1
    19   12   13 ar
    20   12   36 1
    21   13   14 ar
    22   13   37 1
    23   14   15 ar
    24   14   38 1
    25   15   16 1
    26   16   17 am
    27   16   19 1
    28   17   18 2
    29   19   20 1
    30   19   39 1
    31   19   40 1
    32   20   21 1
    33   20   41 1
    34   20   42 1
    35   21   22 1
    36   21   23 1
    37   21   56 1
    38   22   43 1
    39   22   44 1
    40   22   45 1
    41   23   46 1
    42   23   47 1
    43   23   48 1
    44   24   29 ar
    45   24   25 ar
    46   25   26 ar
    47   25   49 1
    48   26   27 ar
    49   26   50 1
    50   27   28 ar
    51   27   30 1
    52   28   29 ar
    53   28   51 1
    54   29   52 1
    55   30   31 1
    56   31   53 1
    57   31   54 1
    58   31   55 1
