@<TRIPOS>MOLECULE
ZINC19362693
   65    68     0     0     0
SMALL
USER_CHARGES

@<TRIPOS>ATOM
      1 C1          0.1921    1.4077   -0.4246 C.3       1 <0>         0.0181
      2 O1          0.3166   -0.0048   -0.6019 O.3       1 <0>        -0.2942
      3 C2          0.8515   -0.7118    0.4294 C.ar      1 <0>         0.1591
      4 C3          1.2424   -0.0597    1.5893 C.ar      1 <0>        -0.2013
      5 C4          1.7865   -0.7772    2.6378 C.ar      1 <0>        -0.0393
      6 C5          1.9434   -2.1469    2.5352 C.ar      1 <0>        -0.2114
      7 C6          1.5551   -2.8064    1.3791 C.ar      1 <0>         0.1374
      8 C7          1.0017   -2.0893    0.3247 C.ar      1 <0>         0.0515
      9 O2          0.6141   -2.7336   -0.8097 O.3       1 <0>        -0.3154
     10 C8          1.5927   -2.8766   -1.8411 C.3       1 <0>         0.0373
     11 O3          1.7106   -4.1537    1.2788 O.3       1 <0>        -0.3395
     12 C9          0.6213   -4.9671    1.7191 C.3       1 <0>         0.0321
     13 C10         2.5377   -2.9242    3.6813 C.3       1 <0>         0.0577
     14 N1          3.9541   -3.1984    3.4047 N.4       1 <0>        -0.3851
     15 C11         4.6986   -1.9329    3.3639 C.3       1 <0>        -0.0031
     16 C12         6.1707   -2.2166    3.0571 C.3       1 <0>         0.0256
     17 N2          6.7238   -3.0969    4.0960 N.3       1 <0>        -0.5307
     18 C13         5.9726   -4.3582    4.1656 C.3       1 <0>         0.0248
     19 C14         4.5021   -4.0569    4.4632 C.3       1 <0>        -0.0007
     20 C15         8.1532   -3.3474    3.8676 C.3       1 <0>         0.1821
     21 C16         8.8926   -2.0349    3.8247 C.ar      1 <0>        -0.1079
     22 C17         8.6156   -1.0553    4.7599 C.ar      1 <0>        -0.0654
     23 C18         9.2934    0.1485    4.7218 C.ar      1 <0>        -0.1561
     24 C19        10.2501    0.3732    3.7465 C.ar      1 <0>         0.1121
     25 C20        10.5266   -0.6088    2.8103 C.ar      1 <0>        -0.1509
     26 C21         9.8514   -1.8138    2.8536 C.ar      1 <0>        -0.0778
     27 F1         10.9130    1.5498    3.7081 F         1 <0>        -0.1332
     28 C22         8.6997   -4.1955    4.9869 C.ar      1 <0>        -0.1077
     29 C23         8.3667   -3.9077    6.2974 C.ar      1 <0>        -0.0644
     30 C24         8.8669   -4.6850    7.3247 C.ar      1 <0>        -0.1560
     31 C25         9.7020   -5.7525    7.0410 C.ar      1 <0>         0.1123
     32 C26        10.0348   -6.0397    5.7281 C.ar      1 <0>        -0.1509
     33 C27         9.5291   -5.2642    4.7021 C.ar      1 <0>        -0.0781
     34 F2         10.1919   -6.5128    8.0445 F         1 <0>        -0.1331
     35 H1          1.1776    1.8406   -0.2527 H         1 <0>         0.0635
     36 H2         -0.2475    1.8488   -1.3192 H         1 <0>         0.1135
     37 H3         -0.4488    1.6110    0.4333 H         1 <0>         0.0652
     38 H4          1.1219    1.0103    1.6732 H         1 <0>         0.1499
     39 H5          2.0904   -0.2664    3.5395 H         1 <0>         0.1450
     40 H6          1.1545   -3.4066   -2.6868 H         1 <0>         0.1022
     41 H7          1.9270   -1.8906   -2.1640 H         1 <0>         0.0499
     42 H8          2.4431   -3.4415   -1.4594 H         1 <0>         0.0484
     43 H9          0.8754   -6.0185    1.5846 H         1 <0>         0.1069
     44 H10         0.4256   -4.7725    2.7736 H         1 <0>         0.0502
     45 H11        -0.2680   -4.7306    1.1349 H         1 <0>         0.0647
     46 H12         2.4528   -2.3413    4.5984 H         1 <0>         0.1385
     47 H13         2.0015   -3.8659    3.7985 H         1 <0>         0.1328
     48 H14         4.2826   -1.2916    2.5868 H         1 <0>         0.1328
     49 H15         4.6184   -1.4328    4.3291 H         1 <0>         0.1382
     50 H16         6.2524   -2.7043    2.0858 H         1 <0>         0.0622
     51 H17         6.7262   -1.2789    3.0415 H         1 <0>         0.1262
     52 H18         6.0510   -4.8813    3.2125 H         1 <0>         0.0635
     53 H19         6.3835   -4.9830    4.9586 H         1 <0>         0.1271
     54 H20         4.4229   -3.5460    5.4228 H         1 <0>         0.1389
     55 H21         3.9404   -4.9902    4.5011 H         1 <0>         0.1356
     56 H22         8.2836   -3.8690    2.9194 H         1 <0>         0.0722
     57 H23         7.8691   -1.2306    5.5204 H         1 <0>         0.1385
     58 H24         9.0766    0.9139    5.4524 H         1 <0>         0.1390
     59 H25        11.2725   -0.4345    2.0489 H         1 <0>         0.1403
     60 H26        10.0701   -2.5815    2.1262 H         1 <0>         0.1328
     61 H27         7.7157   -3.0748    6.5185 H         1 <0>         0.1382
     62 H28         8.6069   -4.4598    8.3485 H         1 <0>         0.1389
     63 H29        10.6863   -6.8719    5.5057 H         1 <0>         0.1403
     64 H30         9.7850   -5.4908    3.6776 H         1 <0>         0.1326
     65 H31         4.0384   -3.6666    2.5149 H         1 <0>         0.4237
@<TRIPOS>BOND
     1    1    2 1
     2    1   35 1
     3    1   36 1
     4    1   37 1
     5    2    3 1
     6    3    8 ar
     7    3    4 ar
     8    4    5 ar
     9    4   38 1
    10    5    6 ar
    11    5   39 1
    12    6    7 ar
    13    6   13 1
    14    7    8 ar
    15    7   11 1
    16    8    9 1
    17    9   10 1
    18   10   40 1
    19   10   41 1
    20   10   42 1
    21   11   12 1
    22   12   43 1
    23   12   44 1
    24   12   45 1
    25   13   14 1
    26   13   46 1
    27   13   47 1
    28   14   19 1
    29   14   15 1
    30   14   65 1
    31   15   16 1
    32   15   48 1
    33   15   49 1
    34   16   17 1
    35   16   50 1
    36   16   51 1
    37   17   18 1
    38   17   20 1
    39   18   19 1
    40   18   52 1
    41   18   53 1
    42   19   54 1
    43   19   55 1
    44   20   21 1
    45   20   28 1
    46   20   56 1
    47   21   26 ar
    48   21   22 ar
    49   22   23 ar
    50   22   57 1
    51   23   24 ar
    52   23   58 1
    53   24   25 ar
    54   24   27 1
    55   25   26 ar
    56   25   59 1
    57   26   60 1
    58   28   33 ar
    59   28   29 ar
    60   29   30 ar
    61   29   61 1
    62   30   31 ar
    63   30   62 1
    64   31   32 ar
    65   31   34 1
    66   32   33 ar
    67   32   63 1
    68   33   64 1
@<TRIPOS>MOLECULE
ZINC19362693
   64    67     0     0     0
SMALL
USER_CHARGES

@<TRIPOS>ATOM
      1 C1          0.2704    1.4556    0.4791 C.3       1 <0>         0.0241
      2 O1          0.3870    0.0399    0.6348 O.3       1 <0>        -0.3048
      3 C2         -0.7596   -0.6868    0.5522 C.ar      1 <0>         0.1246
      4 C3         -1.9699   -0.0504    0.3206 C.ar      1 <0>        -0.2037
      5 C4         -3.1358   -0.7879    0.2371 C.ar      1 <0>        -0.0652
      6 C5         -3.1008   -2.1621    0.3839 C.ar      1 <0>        -0.1267
      7 C6         -1.8950   -2.8060    0.6157 C.ar      1 <0>         0.1435
      8 C7         -0.7194   -2.0685    0.6943 C.ar      1 <0>         0.0408
      9 O2          0.4670   -2.6973    0.9161 O.3       1 <0>        -0.3203
     10 C8          0.8635   -2.8729    2.2777 C.3       1 <0>         0.0391
     11 O3         -1.8618   -4.1578    0.7609 O.3       1 <0>        -0.3180
     12 C9         -1.6745   -4.9332   -0.4247 C.3       1 <0>         0.0390
     13 C10        -4.3752   -2.9613    0.2924 C.3       1 <0>         0.1081
     14 N1         -4.8487   -3.2844    1.6450 N.3       1 <0>        -0.5270
     15 C11        -5.2529   -2.0692    2.3658 C.3       1 <0>         0.0586
     16 C12        -5.6633   -2.4387    3.7932 C.3       1 <0>         0.0581
     17 N2         -6.7642   -3.4111    3.7474 N.3       1 <0>        -0.5290
     18 C13        -6.3600   -4.6263    3.0266 C.3       1 <0>         0.0583
     19 C14        -5.9496   -4.2568    1.5992 C.3       1 <0>         0.0612
     20 C15        -7.2377   -3.7342    5.0999 C.3       1 <0>         0.1707
     21 C16        -7.6653   -2.4690    5.7981 C.ar      1 <0>        -0.0893
     22 C17        -8.4250   -1.5311    5.1240 C.ar      1 <0>        -0.0614
     23 C18        -8.8180   -0.3707    5.7634 C.ar      1 <0>        -0.1565
     24 C19        -8.4507   -0.1476    7.0796 C.ar      1 <0>         0.1005
     25 C20        -7.6897   -1.0876    7.7537 C.ar      1 <0>        -0.1535
     26 C21        -7.3023   -2.2497    7.1139 C.ar      1 <0>        -0.0821
     27 F1         -8.8340    0.9867    7.7055 F         1 <0>        -0.1397
     28 C22        -8.4087   -4.6786    5.0100 C.ar      1 <0>        -0.0891
     29 C23        -9.4122   -4.4485    4.0874 C.ar      1 <0>        -0.0607
     30 C24       -10.4863   -5.3141    4.0036 C.ar      1 <0>        -0.1565
     31 C25       -10.5570   -6.4121    4.8442 C.ar      1 <0>         0.1006
     32 C26        -9.5514   -6.6415    5.7678 C.ar      1 <0>        -0.1536
     33 C27        -8.4756   -5.7774    5.8462 C.ar      1 <0>        -0.0821
     34 F2        -11.6068   -7.2587    4.7635 F         1 <0>        -0.1397
     35 H1          1.2559    1.9131    0.5666 H         1 <0>         0.1030
     36 H2         -0.1486    1.6800   -0.5018 H         1 <0>         0.0577
     37 H3         -0.3849    1.8536    1.2539 H         1 <0>         0.0568
     38 H4         -2.0014    1.0231    0.2057 H         1 <0>         0.1362
     39 H5         -4.0767   -0.2893    0.0570 H         1 <0>         0.1311
     40 H6          1.8245   -3.3861    2.3130 H         1 <0>         0.0927
     41 H7          0.9540   -1.8988    2.7583 H         1 <0>         0.0440
     42 H8          0.1145   -3.4678    2.8004 H         1 <0>         0.0488
     43 H9         -1.6673   -5.9927   -0.1685 H         1 <0>         0.0952
     44 H10        -2.4882   -4.7334   -1.1218 H         1 <0>         0.0441
     45 H11        -0.7250   -4.6650   -0.8880 H         1 <0>         0.0506
     46 H12        -5.1339   -2.3770   -0.2282 H         1 <0>         0.0443
     47 H13        -4.1869   -3.8839   -0.2567 H         1 <0>         0.0828
     48 H14        -4.4172   -1.3701    2.3971 H         1 <0>         0.0799
     49 H15        -6.0961   -1.6059    1.8533 H         1 <0>         0.0417
     50 H16        -4.8122   -2.8771    4.3143 H         1 <0>         0.0445
     51 H17        -5.9910   -1.5429    4.3207 H         1 <0>         0.0824
     52 H18        -5.5169   -5.0896    3.5390 H         1 <0>         0.0460
     53 H19        -7.1957   -5.3254    2.9953 H         1 <0>         0.0831
     54 H20        -6.8007   -3.8184    1.0781 H         1 <0>         0.0425
     55 H21        -5.6219   -5.1526    1.0717 H         1 <0>         0.0801
     56 H22        -6.4329   -4.2061    5.6636 H         1 <0>         0.0625
     57 H23        -8.7111   -1.7052    4.0973 H         1 <0>         0.1389
     58 H24        -9.4113    0.3620    5.2365 H         1 <0>         0.1354
     59 H25        -7.4023   -0.9145    8.7802 H         1 <0>         0.1358
     60 H26        -6.7125   -2.9852    7.6409 H         1 <0>         0.1309
     61 H27        -9.3570   -3.5918    3.4320 H         1 <0>         0.1386
     62 H28       -11.2703   -5.1340    3.2830 H         1 <0>         0.1353
     63 H29        -9.6057   -7.4974    6.4242 H         1 <0>         0.1358
     64 H30        -7.6889   -5.9586    6.5635 H         1 <0>         0.1309
@<TRIPOS>BOND
     1    1    2 1
     2    1   35 1
     3    1   36 1
     4    1   37 1
     5    2    3 1
     6    3    8 ar
     7    3    4 ar
     8    4    5 ar
     9    4   38 1
    10    5    6 ar
    11    5   39 1
    12    6    7 ar
    13    6   13 1
    14    7    8 ar
    15    7   11 1
    16    8    9 1
    17    9   10 1
    18   10   40 1
    19   10   41 1
    20   10   42 1
    21   11   12 1
    22   12   43 1
    23   12   44 1
    24   12   45 1
    25   13   14 1
    26   13   46 1
    27   13   47 1
    28   14   19 1
    29   14   15 1
    30   15   16 1
    31   15   48 1
    32   15   49 1
    33   16   17 1
    34   16   50 1
    35   16   51 1
    36   17   18 1
    37   17   20 1
    38   18   19 1
    39   18   52 1
    40   18   53 1
    41   19   54 1
    42   19   55 1
    43   20   21 1
    44   20   28 1
    45   20   56 1
    46   21   26 ar
    47   21   22 ar
    48   22   23 ar
    49   22   57 1
    50   23   24 ar
    51   23   58 1
    52   24   25 ar
    53   24   27 1
    54   25   26 ar
    55   25   59 1
    56   26   60 1
    57   28   33 ar
    58   28   29 ar
    59   29   30 ar
    60   29   61 1
    61   30   31 ar
    62   30   62 1
    63   31   32 ar
    64   31   34 1
    65   32   33 ar
    66   32   63 1
    67   33   64 1
@<TRIPOS>MOLECULE
ZINC19362693
   65    68     0     0     0
SMALL
USER_CHARGES

@<TRIPOS>ATOM
      1 C1         -0.0173    1.4248    0.0099 C.3       1 <0>         0.0222
      2 O1          0.0021   -0.0041    0.0020 O.3       1 <0>        -0.3011
      3 C2          0.6062   -0.6075   -1.0565 C.ar      1 <0>         0.1348
      4 C3          1.1731    0.1602   -2.0627 C.ar      1 <0>        -0.2036
      5 C4          1.7869   -0.4521   -3.1391 C.ar      1 <0>        -0.0662
      6 C5          1.8384   -1.8314   -3.2174 C.ar      1 <0>        -0.1466
      7 C6          1.2741   -2.6061   -2.2156 C.ar      1 <0>         0.1455
      8 C7          0.6613   -1.9942   -1.1284 C.ar      1 <0>         0.0441
      9 O2          0.1111   -2.7510   -0.1402 O.3       1 <0>        -0.3185
     10 C8         -1.2598   -3.1234   -0.2952 C.3       1 <0>         0.0397
     11 O3          1.3245   -3.9629   -2.2941 O.3       1 <0>        -0.3218
     12 C9          2.4563   -4.6053   -1.7037 C.3       1 <0>         0.0368
     13 C10         2.5085   -2.4938   -4.3936 C.3       1 <0>         0.1115
     14 N1          1.4883   -2.9312   -5.3559 N.3       1 <0>        -0.5265
     15 C11         0.8011   -1.7786   -5.9552 C.3       1 <0>         0.0255
     16 C12        -0.2911   -2.2767   -6.9043 C.3       1 <0>        -0.0035
     17 N2          0.3135   -3.1080   -7.9535 N.4       1 <0>        -0.3850
     18 C13         0.9748   -4.2679   -7.3413 C.3       1 <0>        -0.0039
     19 C14         2.0776   -3.7863   -6.3959 C.3       1 <0>         0.0298
     20 C15        -0.7330   -3.5711   -8.8746 C.3       1 <0>         0.1387
     21 C16        -1.4105   -2.3814   -9.5043 C.ar      1 <0>        -0.1475
     22 C17        -0.6613   -1.2884   -9.8983 C.ar      1 <0>        -0.0904
     23 C18        -1.2814   -0.1970  -10.4762 C.ar      1 <0>        -0.1396
     24 C19        -2.6537   -0.1984  -10.6605 C.ar      1 <0>         0.1328
     25 C20        -3.4031   -1.2936  -10.2654 C.ar      1 <0>        -0.1404
     26 C21        -2.7800   -2.3861   -9.6925 C.ar      1 <0>        -0.0533
     27 F1         -3.2611    0.8683  -11.2250 F         1 <0>        -0.1225
     28 C22        -0.1130   -4.4241   -9.9513 C.ar      1 <0>        -0.1472
     29 C23         1.1064   -4.0688  -10.4973 C.ar      1 <0>        -0.0909
     30 C24         1.6761   -4.8504  -11.4844 C.ar      1 <0>        -0.1392
     31 C25         1.0253   -5.9898  -11.9263 C.ar      1 <0>         0.1329
     32 C26        -0.1959   -6.3447  -11.3787 C.ar      1 <0>        -0.1401
     33 C27        -0.7612   -5.5643  -10.3880 C.ar      1 <0>        -0.0534
     34 F2          1.5811   -6.7545  -12.8915 F         1 <0>        -0.1224
     35 H1          1.0053    1.8021    0.0021 H         1 <0>         0.0605
     36 H2         -0.5445    1.7859   -0.8732 H         1 <0>         0.0581
     37 H3         -0.5275    1.7763    0.9067 H         1 <0>         0.1078
     38 H4          1.1346    1.2380   -2.0054 H         1 <0>         0.1396
     39 H5          2.2271    0.1485   -3.9213 H         1 <0>         0.1311
     40 H6         -1.5723   -3.7231    0.5597 H         1 <0>         0.0966
     41 H7         -1.8756   -2.2260   -0.3541 H         1 <0>         0.0456
     42 H8         -1.3771   -3.7052   -1.2095 H         1 <0>         0.0475
     43 H9          2.3721   -5.6839   -1.8364 H         1 <0>         0.0983
     44 H10         3.3676   -4.2500   -2.1848 H         1 <0>         0.0446
     45 H11         2.4925   -4.3719   -0.6396 H         1 <0>         0.0550
     46 H12         3.1817   -1.7845   -4.8750 H         1 <0>         0.0557
     47 H13         3.0769   -3.3577   -4.0488 H         1 <0>         0.0956
     48 H14         0.3508   -1.1739   -5.1680 H         1 <0>         0.1251
     49 H15         1.5191   -1.1760   -6.5115 H         1 <0>         0.0590
     50 H16        -1.0164   -2.8679   -6.3451 H         1 <0>         0.1413
     51 H17        -0.7927   -1.4234   -7.3608 H         1 <0>         0.1354
     52 H18         0.2431   -4.8489   -6.7799 H         1 <0>         0.1423
     53 H19         1.4118   -4.8908   -8.1218 H         1 <0>         0.1363
     54 H20         2.8166   -3.2168   -6.9594 H         1 <0>         0.0589
     55 H21         2.5586   -4.6464   -5.9302 H         1 <0>         0.1259
     56 H22        -1.4678   -4.1584   -8.3240 H         1 <0>         0.1541
     57 H23         0.4091   -1.2874   -9.7542 H         1 <0>         0.1249
     58 H24        -0.6959    0.6569  -10.7837 H         1 <0>         0.1492
     59 H25        -4.4735   -1.2956  -10.4084 H         1 <0>         0.1516
     60 H26        -3.3638   -3.2423   -9.3884 H         1 <0>         0.1456
     61 H27         1.6137   -3.1798  -10.1527 H         1 <0>         0.1247
     62 H28         2.6285   -4.5725  -11.9111 H         1 <0>         0.1492
     63 H29        -0.7046   -7.2330  -11.7229 H         1 <0>         0.1516
     64 H30        -1.7116   -5.8433   -9.9576 H         1 <0>         0.1456
     65 H31         0.9932   -2.5639   -8.4635 H         1 <0>         0.4125
@<TRIPOS>BOND
     1    1    2 1
     2    1   35 1
     3    1   36 1
     4    1   37 1
     5    2    3 1
     6    3    8 ar
     7    3    4 ar
     8    4    5 ar
     9    4   38 1
    10    5    6 ar
    11    5   39 1
    12    6    7 ar
    13    6   13 1
    14    7    8 ar
    15    7   11 1
    16    8    9 1
    17    9   10 1
    18   10   40 1
    19   10   41 1
    20   10   42 1
    21   11   12 1
    22   12   43 1
    23   12   44 1
    24   12   45 1
    25   13   14 1
    26   13   46 1
    27   13   47 1
    28   14   19 1
    29   14   15 1
    30   15   16 1
    31   15   48 1
    32   15   49 1
    33   16   17 1
    34   16   50 1
    35   16   51 1
    36   17   18 1
    37   17   20 1
    38   17   65 1
    39   18   19 1
    40   18   52 1
    41   18   53 1
    42   19   54 1
    43   19   55 1
    44   20   21 1
    45   20   28 1
    46   20   56 1
    47   21   26 ar
    48   21   22 ar
    49   22   23 ar
    50   22   57 1
    51   23   24 ar
    52   23   58 1
    53   24   25 ar
    54   24   27 1
    55   25   26 ar
    56   25   59 1
    57   26   60 1
    58   28   33 ar
    59   28   29 ar
    60   29   30 ar
    61   29   61 1
    62   30   31 ar
    63   30   62 1
    64   31   32 ar
    65   31   34 1
    66   32   33 ar
    67   32   63 1
    68   33   64 1
@<TRIPOS>MOLECULE
ZINC19360739
   57    60     0     0     0
SMALL
USER_CHARGES

@<TRIPOS>ATOM
      1 C1         -0.5652    1.2485    0.7222 C.ar      1 <0>        -0.0943
      2 C2          0.5404    2.0554    0.9232 C.ar      1 <0>        -0.1192
      3 C3          1.8064    1.5069    0.9299 C.ar      1 <0>        -0.0897
      4 C4          1.9702    0.1352    0.7340 C.ar      1 <0>        -0.1001
      5 C5          0.8509   -0.6733    0.5323 C.ar      1 <0>        -0.0995
      6 C6         -0.4096   -0.1123    0.5274 C.ar      1 <0>        -0.1213
      7 C7          3.3236   -0.4590    0.7395 C.2       1 <0>        -0.0129
      8 C8          3.4760   -1.7626    0.5530 C.2       1 <0>        -0.2547
      9 C9          4.8559   -2.3684    0.5587 C.3       1 <0>         0.0399
     10 N1          4.9108   -3.4522    1.5488 N.4       1 <0>        -0.3851
     11 C10         4.0101   -4.5370    1.1373 C.3       1 <0>        -0.0024
     12 C11         4.0527   -5.6581    2.1781 C.3       1 <0>         0.0240
     13 N2          5.4291   -6.1596    2.2975 N.3       1 <0>        -0.5314
     14 C12         6.3467   -5.0788    2.6848 C.3       1 <0>         0.0243
     15 C13         6.2851   -3.9625    1.6399 C.3       1 <0>        -0.0015
     16 C14         5.5014   -7.2775    3.2479 C.3       1 <0>         0.1826
     17 C15         4.5657   -8.3733    2.8066 C.ar      1 <0>        -0.1088
     18 C16         4.5143   -8.7433    1.4756 C.ar      1 <0>        -0.0655
     19 C17         3.6570   -9.7484    1.0699 C.ar      1 <0>        -0.1560
     20 C18         2.8492  -10.3848    1.9971 C.ar      1 <0>         0.1127
     21 C19         2.9015  -10.0133    3.3299 C.ar      1 <0>        -0.1509
     22 C20         3.7634   -9.0115    3.7341 C.ar      1 <0>        -0.0777
     23 F1          2.0103  -11.3671    1.6015 F         1 <0>        -0.1328
     24 C21         6.9111   -7.8084    3.2926 C.ar      1 <0>        -0.1084
     25 C22         7.6132   -8.0036    2.1178 C.ar      1 <0>        -0.0645
     26 C23         8.9061   -8.4900    2.1575 C.ar      1 <0>        -0.1560
     27 C24         9.4983   -8.7818    3.3746 C.ar      1 <0>         0.1126
     28 C25         8.7941   -8.5859    4.5506 C.ar      1 <0>        -0.1509
     29 C26         7.5032   -8.0944    4.5086 C.ar      1 <0>        -0.0782
     30 F2         10.7620   -9.2578    3.4147 F         1 <0>        -0.1329
     31 H1         -1.5544    1.6820    0.7219 H         1 <0>         0.1310
     32 H2          0.4123    3.1170    1.0747 H         1 <0>         0.1321
     33 H3          2.6688    2.1380    1.0862 H         1 <0>         0.1292
     34 H4          0.9711   -1.7357    0.3797 H         1 <0>         0.1229
     35 H5         -1.2767   -0.7369    0.3711 H         1 <0>         0.1300
     36 H6          4.1884    0.1689    0.8954 H         1 <0>         0.1304
     37 H7          2.6112   -2.3905    0.3971 H         1 <0>         0.1361
     38 H8          5.0814   -2.7678   -0.4301 H         1 <0>         0.1357
     39 H9          5.5877   -1.6029    0.8169 H         1 <0>         0.1303
     40 H10         2.9927   -4.1539    1.0575 H         1 <0>         0.1348
     41 H11         4.3285   -4.9266    0.1704 H         1 <0>         0.1381
     42 H12         3.7213   -5.2722    3.1421 H         1 <0>         0.0629
     43 H13         3.3957   -6.4697    1.8655 H         1 <0>         0.1264
     44 H14         6.0531   -4.6834    3.6572 H         1 <0>         0.0632
     45 H15         7.3633   -5.4679    2.7419 H         1 <0>         0.1267
     46 H16         6.5919   -4.3551    0.6704 H         1 <0>         0.1386
     47 H17         6.9545   -3.1536    1.9326 H         1 <0>         0.1357
     48 H18         5.2123   -6.9303    4.2398 H         1 <0>         0.0722
     49 H19         5.1443   -8.2466    0.7526 H         1 <0>         0.1382
     50 H20         3.6168  -10.0371    0.0300 H         1 <0>         0.1392
     51 H21         2.2716  -10.5087    4.0539 H         1 <0>         0.1406
     52 H22         3.8076   -8.7246    4.7744 H         1 <0>         0.1329
     53 H23         7.1509   -7.7762    1.1685 H         1 <0>         0.1380
     54 H24         9.4543   -8.6427    1.2396 H         1 <0>         0.1391
     55 H25         9.2549   -8.8135    5.5005 H         1 <0>         0.1405
     56 H26         6.9553   -7.9373    5.4260 H         1 <0>         0.1327
     57 H27         4.6228   -3.0997    2.4493 H         1 <0>         0.4211
@<TRIPOS>BOND
     1    1    6 ar
     2    1    2 ar
     3    1   31 1
     4    2    3 ar
     5    2   32 1
     6    3    4 ar
     7    3   33 1
     8    4    5 ar
     9    4    7 1
    10    5    6 ar
    11    5   34 1
    12    6   35 1
    13    7    8 2
    14    7   36 1
    15    8    9 1
    16    8   37 1
    17    9   10 1
    18    9   38 1
    19    9   39 1
    20   10   15 1
    21   10   11 1
    22   10   57 1
    23   11   12 1
    24   11   40 1
    25   11   41 1
    26   12   13 1
    27   12   42 1
    28   12   43 1
    29   13   14 1
    30   13   16 1
    31   14   15 1
    32   14   44 1
    33   14   45 1
    34   15   46 1
    35   15   47 1
    36   16   17 1
    37   16   24 1
    38   16   48 1
    39   17   22 ar
    40   17   18 ar
    41   18   19 ar
    42   18   49 1
    43   19   20 ar
    44   19   50 1
    45   20   21 ar
    46   20   23 1
    47   21   22 ar
    48   21   51 1
    49   22   52 1
    50   24   29 ar
    51   24   25 ar
    52   25   26 ar
    53   25   53 1
    54   26   27 ar
    55   26   54 1
    56   27   28 ar
    57   27   30 1
    58   28   29 ar
    59   28   55 1
    60   29   56 1
@<TRIPOS>MOLECULE
ZINC19360739
   57    60     0     0     0
SMALL
USER_CHARGES

@<TRIPOS>ATOM
      1 C1         -0.0167    1.3792    0.0096 C.ar      1 <0>        -0.1111
      2 C2          1.1683    2.0931    0.0021 C.ar      1 <0>        -0.1174
      3 C3          2.3774    1.4286   -0.0134 C.ar      1 <0>        -0.1032
      4 C4          2.4032    0.0335   -0.0212 C.ar      1 <0>        -0.0719
      5 C5          1.2045   -0.6806   -0.0131 C.ar      1 <0>        -0.1113
      6 C6          0.0021   -0.0041    0.0020 C.ar      1 <0>        -0.1199
      7 C7          3.6950   -0.6848   -0.0384 C.2       1 <0>        -0.0777
      8 C8          3.7162   -2.0103   -0.0457 C.2       1 <0>        -0.1693
      9 C9          5.0332   -2.7426   -0.0633 C.3       1 <0>         0.0894
     10 N1          5.0868   -3.6810    1.0657 N.3       1 <0>        -0.5336
     11 C10         4.0942   -4.7533    0.9069 C.3       1 <0>         0.0249
     12 C11         4.1414   -5.6730    2.1290 C.3       1 <0>        -0.0045
     13 N2          5.4882   -6.2444    2.2603 N.4       1 <0>        -0.3853
     14 C12         6.4652   -5.1629    2.4428 C.3       1 <0>        -0.0043
     15 C13         6.4373   -4.2389    1.2233 C.3       1 <0>         0.0273
     16 C14         5.5281   -7.1413    3.4231 C.3       1 <0>         0.1390
     17 C15         4.5271   -8.2520    3.2353 C.ar      1 <0>        -0.1483
     18 C16         4.3690   -8.8365    1.9925 C.ar      1 <0>        -0.0905
     19 C17         3.4516   -9.8555    1.8192 C.ar      1 <0>        -0.1395
     20 C18         2.6908  -10.2910    2.8909 C.ar      1 <0>         0.1333
     21 C19         2.8500   -9.7049    4.1352 C.ar      1 <0>        -0.1404
     22 C20         3.7717   -8.6896    4.3073 C.ar      1 <0>        -0.0532
     23 F1          1.7934  -11.2868    2.7225 F         1 <0>        -0.1222
     24 C21         6.9097   -7.7277    3.5580 C.ar      1 <0>        -0.1479
     25 C22         7.6094   -8.1138    2.4299 C.ar      1 <0>        -0.0911
     26 C23         8.8766   -8.6513    2.5523 C.ar      1 <0>        -0.1392
     27 C24         9.4456   -8.8030    3.8055 C.ar      1 <0>         0.1332
     28 C25         8.7439   -8.4159    4.9346 C.ar      1 <0>        -0.1401
     29 C26         7.4789   -7.8738    4.8093 C.ar      1 <0>        -0.0534
     30 F2         10.6842   -9.3287    3.9264 F         1 <0>        -0.1221
     31 H1         -0.9604    1.9041    0.0260 H         1 <0>         0.1259
     32 H2          1.1469    3.1729    0.0082 H         1 <0>         0.1273
     33 H3          3.3018    1.9870   -0.0200 H         1 <0>         0.1256
     34 H4          1.2178   -1.7605   -0.0194 H         1 <0>         0.1202
     35 H5         -0.9265   -0.5556    0.0079 H         1 <0>         0.1249
     36 H6          4.6214   -0.1298   -0.0450 H         1 <0>         0.1212
     37 H7          2.7898   -2.5653   -0.0392 H         1 <0>         0.1156
     38 H8          5.1300   -3.2938   -0.9987 H         1 <0>         0.0564
     39 H9          5.8492   -2.0250    0.0217 H         1 <0>         0.0932
     40 H10         3.0991   -4.3175    0.8179 H         1 <0>         0.1259
     41 H11         4.3212   -5.3289    0.0096 H         1 <0>         0.0604
     42 H12         3.9011   -5.0999    3.0245 H         1 <0>         0.1416
     43 H13         3.4159   -6.4772    2.0068 H         1 <0>         0.1365
     44 H14         6.2129   -4.5924    3.3367 H         1 <0>         0.1418
     45 H15         7.4624   -5.5889    2.5531 H         1 <0>         0.1369
     46 H16         6.7029   -4.8061    0.3311 H         1 <0>         0.0602
     47 H17         7.1516   -3.4279    1.3651 H         1 <0>         0.1261
     48 H18         5.2824   -6.5792    4.3241 H         1 <0>         0.1543
     49 H19         4.9623   -8.4964    1.1566 H         1 <0>         0.1248
     50 H20         3.3280  -10.3117    0.8481 H         1 <0>         0.1494
     51 H21         2.2569  -10.0435    4.9717 H         1 <0>         0.1518
     52 H22         3.8993   -8.2353    5.2787 H         1 <0>         0.1457
     53 H23         7.1652   -7.9958    1.4525 H         1 <0>         0.1247
     54 H24         9.4229   -8.9532    1.6709 H         1 <0>         0.1494
     55 H25         9.1866   -8.5340    5.9126 H         1 <0>         0.1518
     56 H26         6.9332   -7.5676    5.6896 H         1 <0>         0.1457
     57 H27         5.7151   -6.7652    1.4264 H         1 <0>         0.4130
@<TRIPOS>BOND
     1    1    6 ar
     2    1    2 ar
     3    1   31 1
     4    2    3 ar
     5    2   32 1
     6    3    4 ar
     7    3   33 1
     8    4    5 ar
     9    4    7 1
    10    5    6 ar
    11    5   34 1
    12    6   35 1
    13    7    8 2
    14    7   36 1
    15    8    9 1
    16    8   37 1
    17    9   10 1
    18    9   38 1
    19    9   39 1
    20   10   15 1
    21   10   11 1
    22   11   12 1
    23   11   40 1
    24   11   41 1
    25   12   13 1
    26   12   42 1
    27   12   43 1
    28   13   14 1
    29   13   16 1
    30   13   57 1
    31   14   15 1
    32   14   44 1
    33   14   45 1
    34   15   46 1
    35   15   47 1
    36   16   17 1
    37   16   24 1
    38   16   48 1
    39   17   22 ar
    40   17   18 ar
    41   18   19 ar
    42   18   49 1
    43   19   20 ar
    44   19   50 1
    45   20   21 ar
    46   20   23 1
    47   21   22 ar
    48   21   51 1
    49   22   52 1
    50   24   29 ar
    51   24   25 ar
    52   25   26 ar
    53   25   53 1
    54   26   27 ar
    55   26   54 1
    56   27   28 ar
    57   27   30 1
    58   28   29 ar
    59   28   55 1
    60   29   56 1
@<TRIPOS>MOLECULE
ZINC19360739
   56    59     0     0     0
SMALL
USER_CHARGES

@<TRIPOS>ATOM
      1 C1         -0.6450    1.2067    0.7385 C.ar      1 <0>        -0.1212
      2 C2          0.4537    2.0253    0.9303 C.ar      1 <0>        -0.1188
      3 C3          1.7253    1.4899    0.9286 C.ar      1 <0>        -0.1101
      4 C4          1.9018    0.1196    0.7332 C.ar      1 <0>        -0.0554
      5 C5          0.7895   -0.7006    0.5408 C.ar      1 <0>        -0.1151
      6 C6         -0.4768   -0.1527    0.5444 C.ar      1 <0>        -0.1183
      7 C7          3.2613   -0.4606    0.7297 C.2       1 <0>        -0.1106
      8 C8          3.4257   -1.7628    0.5439 C.2       1 <0>        -0.1355
      9 C9          4.8118   -2.3544    0.5403 C.3       1 <0>         0.0846
     10 N1          4.8851   -3.4361    1.5314 N.3       1 <0>        -0.5355
     11 C10         4.0261   -4.5640    1.1446 C.3       1 <0>         0.0568
     12 C11         4.0688   -5.6331    2.2389 C.3       1 <0>         0.0566
     13 N2          5.4567   -6.0748    2.4347 N.3       1 <0>        -0.5294
     14 C12         6.3157   -4.9470    2.8216 C.3       1 <0>         0.0574
     15 C13         6.2730   -3.8778    1.7272 C.3       1 <0>         0.0585
     16 C14         5.5300   -7.1566    3.4259 C.3       1 <0>         0.1710
     17 C15         4.6571   -8.3028    2.9839 C.ar      1 <0>        -0.0902
     18 C16         4.6784   -8.7188    1.6657 C.ar      1 <0>        -0.0616
     19 C17         3.8787   -9.7702    1.2594 C.ar      1 <0>        -0.1564
     20 C18         3.0561  -10.4069    2.1731 C.ar      1 <0>         0.1011
     21 C19         3.0356   -9.9894    3.4931 C.ar      1 <0>        -0.1535
     22 C20         3.8401   -8.9412    3.8983 C.ar      1 <0>        -0.0820
     23 F1          2.2736  -11.4345    1.7769 F         1 <0>        -0.1394
     24 C21         6.9556   -7.6292    3.5490 C.ar      1 <0>        -0.0900
     25 C22         7.7154   -7.8360    2.4127 C.ar      1 <0>        -0.0609
     26 C23         9.0230   -8.2690    2.5245 C.ar      1 <0>        -0.1564
     27 C24         9.5721   -8.4957    3.7751 C.ar      1 <0>         0.1010
     28 C25         8.8102   -8.2884    4.9125 C.ar      1 <0>        -0.1536
     29 C26         7.5045   -7.8503    4.7985 C.ar      1 <0>        -0.0822
     30 F2         10.8502   -8.9195    3.8855 F         1 <0>        -0.1394
     31 H1         -1.6385    1.6300    0.7449 H         1 <0>         0.1219
     32 H2          0.3157    3.0857    1.0814 H         1 <0>         0.1233
     33 H3          2.5822    2.1300    1.0777 H         1 <0>         0.1236
     34 H4          0.9195   -1.7619    0.3888 H         1 <0>         0.1224
     35 H5         -1.3385   -0.7864    0.3952 H         1 <0>         0.1228
     36 H6          4.1206    0.1764    0.8785 H         1 <0>         0.1188
     37 H7          2.5664   -2.3998    0.3951 H         1 <0>         0.1136
     38 H8          5.0342   -2.7529   -0.4496 H         1 <0>         0.0473
     39 H9          5.5375   -1.5811    0.7921 H         1 <0>         0.0809
     40 H10         3.0016   -4.2141    1.0178 H         1 <0>         0.0804
     41 H11         4.3842   -4.9889    0.2069 H         1 <0>         0.0440
     42 H12         3.6851   -5.2160    3.1700 H         1 <0>         0.0452
     43 H13         3.4552   -6.4833    1.9409 H         1 <0>         0.0839
     44 H14         5.9575   -4.5220    3.7593 H         1 <0>         0.0455
     45 H15         7.3402   -5.2969    2.9483 H         1 <0>         0.0841
     46 H16         6.6566   -4.2950    0.7961 H         1 <0>         0.0443
     47 H17         6.8865   -3.0277    2.0252 H         1 <0>         0.0807
     48 H18         5.1846   -6.7883    4.3919 H         1 <0>         0.0629
     49 H19         5.3199   -8.2218    0.9531 H         1 <0>         0.1388
     50 H20         3.8952  -10.0948    0.2295 H         1 <0>         0.1357
     51 H21         2.3941  -10.4851    4.2066 H         1 <0>         0.1360
     52 H22         3.8276   -8.6183    4.9288 H         1 <0>         0.1311
     53 H23         7.2867   -7.6593    1.4373 H         1 <0>         0.1386
     54 H24         9.6162   -8.4307    1.6366 H         1 <0>         0.1356
     55 H25         9.2374   -8.4652    5.8885 H         1 <0>         0.1360
     56 H26         6.9114   -7.6842    5.6856 H         1 <0>         0.1310
@<TRIPOS>BOND
     1    1    6 ar
     2    1    2 ar
     3    1   31 1
     4    2    3 ar
     5    2   32 1
     6    3    4 ar
     7    3   33 1
     8    4    5 ar
     9    4    7 1
    10    5    6 ar
    11    5   34 1
    12    6   35 1
    13    7    8 2
    14    7   36 1
    15    8    9 1
    16    8   37 1
    17    9   10 1
    18    9   38 1
    19    9   39 1
    20   10   15 1
    21   10   11 1
    22   11   12 1
    23   11   40 1
    24   11   41 1
    25   12   13 1
    26   12   42 1
    27   12   43 1
    28   13   14 1
    29   13   16 1
    30   14   15 1
    31   14   44 1
    32   14   45 1
    33   15   46 1
    34   15   47 1
    35   16   17 1
    36   16   24 1
    37   16   48 1
    38   17   22 ar
    39   17   18 ar
    40   18   19 ar
    41   18   49 1
    42   19   20 ar
    43   19   50 1
    44   20   21 ar
    45   20   23 1
    46   21   22 ar
    47   21   51 1
    48   22   52 1
    49   24   29 ar
    50   24   25 ar
    51   25   26 ar
    52   25   53 1
    53   26   27 ar
    54   26   54 1
    55   27   28 ar
    56   27   30 1
    57   28   29 ar
    58   28   55 1
    59   29   56 1
@<TRIPOS>MOLECULE
ZINC03782486
   75    78     0     0     0
SMALL
USER_CHARGES

@<TRIPOS>ATOM
      1 C1          0.5287   -1.3298    1.3705 C.3       1 <0>        -0.1645
      2 C2          0.2576   -0.1526    0.4316 C.3       1 <0>        -0.0948
      3 C3          0.8599   -0.4479   -0.9435 C.3       1 <0>        -0.1421
      4 C4         -1.2524    0.0524    0.2936 C.3       1 <0>        -0.0310
      5 H1         -1.6967    0.1299    1.2859 H         1 <0>         0.0986
      6 C5         -1.5132    1.3255   -0.4683 C.ar      1 <0>        -0.0914
      7 C6         -0.7302    2.4322   -0.1648 C.ar      1 <0>        -0.0835
      8 C7         -0.9224    3.6290   -0.8221 C.ar      1 <0>        -0.1523
      9 C8         -1.9049    3.7297   -1.7930 C.ar      1 <0>         0.1111
     10 C9         -2.6825    2.6289   -2.0971 C.ar      1 <0>        -0.1551
     11 C10        -2.4863    1.4227   -1.4375 C.ar      1 <0>        -0.0398
     12 C11        -3.3589    0.2592   -1.8298 C.3       1 <0>        -0.0800
     13 C12        -3.3240   -0.8251   -0.7547 C.3       1 <0>        -0.1506
     14 C13        -1.8583   -1.1438   -0.4376 C.3       1 <0>         0.1473
     15 C14        -1.7830   -2.3849    0.4540 C.3       1 <0>        -0.2170
     16 C15        -2.4267   -2.0800    1.8080 C.3       1 <0>        -0.0176
     17 N1         -2.3149   -3.2572    2.6796 N.4       1 <0>        -0.3835
     18 C16        -3.1024   -4.3612    2.1147 C.3       1 <0>        -0.0591
     19 C17        -2.8245   -2.9265    4.0171 C.3       1 <0>        -0.0111
     20 C18        -2.5940   -4.1108    4.9579 C.3       1 <0>        -0.1425
     21 C19        -3.1248   -3.7663    6.3509 C.3       1 <0>        -0.0320
     22 C20        -2.8978   -4.9328    7.2776 C.2       1 <0>         0.2643
     23 N2         -2.2376   -4.8677    8.4652 N.pl3     1 <0>        -0.5958
     24 H2         -1.8374   -4.0761    8.8578 H         1 <0>         0.4237
     25 C21        -2.2432   -6.1369    9.0083 C.ar      1 <0>         0.0516
     26 C22        -1.7394   -6.6905   10.1776 C.ar      1 <0>        -0.1145
     27 C23        -1.9201   -8.0335   10.4303 C.ar      1 <0>        -0.0902
     28 C24        -2.6011   -8.8343    9.5242 C.ar      1 <0>        -0.1216
     29 C25        -3.1037   -8.3069    8.3686 C.ar      1 <0>        -0.0637
     30 C26        -2.9330   -6.9479    8.0915 C.ar      1 <0>         0.0430
     31 N3         -3.3096   -6.1479    7.0611 N.2       1 <0>        -0.4831
     32 O1         -1.1426   -1.3786   -1.6520 O.3       1 <0>        -0.3090
     33 C27        -1.4862   -2.4650   -2.3615 C.2       1 <0>         0.4592
     34 O2         -2.3931   -3.1697   -1.9863 O.2       1 <0>        -0.4841
     35 C28        -0.7407   -2.8058   -3.6261 C.3       1 <0>         0.0629
     36 O3         -1.2881   -3.9967   -4.1955 O.3       1 <0>        -0.3710
     37 C29        -0.6490   -4.4096   -5.4051 C.3       1 <0>         0.0296
     38 F1         -2.1025    4.8993   -2.4395 F         1 <0>        -0.1336
     39 H3          1.4855   -1.1823    1.8713 H         1 <0>         0.0691
     40 H4         -0.2652   -1.3913    2.1148 H         1 <0>         0.0441
     41 H5          0.5589   -2.2546    0.7944 H         1 <0>         0.0682
     42 H6          0.7109    0.7503    0.8406 H         1 <0>         0.0874
     43 H7          0.7715   -1.5129   -1.1579 H         1 <0>         0.0605
     44 H8          0.3255    0.1214   -1.7041 H         1 <0>         0.0726
     45 H9          1.9119   -0.1624   -0.9483 H         1 <0>         0.0524
     46 H10         0.0355    2.3546    0.5929 H         1 <0>         0.1345
     47 H11        -0.3093    4.4847   -0.5806 H         1 <0>         0.1393
     48 H12        -3.4489    2.7071   -2.8540 H         1 <0>         0.1369
     49 H13        -4.3844    0.6060   -1.9572 H         1 <0>         0.0883
     50 H14        -3.0012   -0.1568   -2.7716 H         1 <0>         0.0816
     51 H15        -3.8251   -0.4667    0.1445 H         1 <0>         0.0824
     52 H16        -3.8237   -1.7217   -1.1213 H         1 <0>         0.0974
     53 H17        -2.3141   -3.2082   -0.0237 H         1 <0>         0.1246
     54 H18        -0.7395   -2.6630    0.6021 H         1 <0>         0.1198
     55 H19        -1.9163   -1.2354    2.2710 H         1 <0>         0.1376
     56 H20        -3.4786   -1.8338    1.6631 H         1 <0>         0.1361
     57 H21        -4.1478   -4.0614    2.0414 H         1 <0>         0.1261
     58 H22        -2.7242   -4.6066    1.1223 H         1 <0>         0.1276
     59 H23        -3.0194   -5.2347    2.7614 H         1 <0>         0.1290
     60 H24        -2.2997   -2.0511    4.3996 H         1 <0>         0.1319
     61 H25        -3.8916   -2.7127    3.9567 H         1 <0>         0.1357
     62 H26        -3.1189   -4.9862    4.5754 H         1 <0>         0.1052
     63 H27        -1.5269   -4.3245    5.0183 H         1 <0>         0.0893
     64 H28        -2.6000   -2.8909    6.7335 H         1 <0>         0.0937
     65 H29        -4.1919   -3.5525    6.2905 H         1 <0>         0.1074
     66 H30        -1.2081   -6.0719   10.8857 H         1 <0>         0.1265
     67 H31        -1.5288   -8.4656   11.3394 H         1 <0>         0.1360
     68 H32        -2.7348   -9.8851    9.7347 H         1 <0>         0.1350
     69 H33        -3.6318   -8.9393    7.6703 H         1 <0>         0.1315
     70 H34        -0.8375   -1.9854   -4.3372 H         1 <0>         0.0969
     71 H35         0.3127   -2.9643   -3.3954 H         1 <0>         0.0955
     72 H36        -1.1220   -5.3199   -5.7735 H         1 <0>         0.0993
     73 H37        -0.7439   -3.6224   -6.1531 H         1 <0>         0.0510
     74 H38         0.4063   -4.6013   -5.2113 H         1 <0>         0.0498
     75 H39        -1.3472   -3.5347    2.7475 H         1 <0>         0.4230
@<TRIPOS>BOND
     1    1    2 1
     2    1   39 1
     3    1   40 1
     4    1   41 1
     5    2    3 1
     6    2    4 1
     7    2   42 1
     8    3   43 1
     9    3   44 1
    10    3   45 1
    11    4    5 1
    12    4   14 1
    13    4    6 1
    14    6   11 ar
    15    6    7 ar
    16    7    8 ar
    17    7   46 1
    18    8    9 ar
    19    8   47 1
    20    9   10 ar
    21    9   38 1
    22   10   11 ar
    23   10   48 1
    24   11   12 1
    25   12   13 1
    26   12   49 1
    27   12   50 1
    28   13   14 1
    29   13   51 1
    30   13   52 1
    31   14   15 1
    32   14   32 1
    33   15   16 1
    34   15   53 1
    35   15   54 1
    36   16   17 1
    37   16   55 1
    38   16   56 1
    39   17   18 1
    40   17   19 1
    41   17   75 1
    42   18   57 1
    43   18   58 1
    44   18   59 1
    45   19   20 1
    46   19   60 1
    47   19   61 1
    48   20   21 1
    49   20   62 1
    50   20   63 1
    51   21   22 1
    52   21   64 1
    53   21   65 1
    54   22   31 2
    55   22   23 1
    56   23   24 1
    57   23   25 1
    58   25   30 ar
    59   25   26 ar
    60   26   27 ar
    61   26   66 1
    62   27   28 ar
    63   27   67 1
    64   28   29 ar
    65   28   68 1
    66   29   30 ar
    67   29   69 1
    68   30   31 1
    69   32   33 1
    70   33   34 2
    71   33   35 1
    72   35   36 1
    73   35   70 1
    74   35   71 1
    75   36   37 1
    76   37   72 1
    77   37   73 1
    78   37   74 1
