@<TRIPOS>MOLECULE
ZINC19361055
   64    68     0     0     0
SMALL
USER_CHARGES

@<TRIPOS>ATOM
      1 C1         -0.9467    0.1313   -0.9819 C.3       1 <0>         0.0256
      2 O1         -0.5538   -1.2133   -0.6997 O.3       1 <0>        -0.3241
      3 C2         -1.5433   -2.1413   -0.6194 C.ar      1 <0>         0.1300
      4 C3         -2.8650   -1.7665   -0.8140 C.ar      1 <0>        -0.2074
      5 C4         -3.8689   -2.7116   -0.7323 C.ar      1 <0>        -0.0718
      6 C5         -3.5576   -4.0306   -0.4568 C.ar      1 <0>        -0.1546
      7 C6         -2.2416   -4.4065   -0.2620 C.ar      1 <0>        -0.0537
      8 C7         -1.2333   -3.4659   -0.3483 C.ar      1 <0>        -0.1206
      9 C8          0.2017   -3.8775   -0.1421 C.3       1 <0>         0.1126
     10 N1          0.6164   -3.5390    1.2259 N.3       1 <0>        -0.6601
     11 C9          2.0132   -3.9268    1.4637 C.3       1 <0>         0.0857
     12 H1          2.2033   -4.9015    1.0143 H         1 <0>         0.1168
     13 C10         2.2770   -3.9961    2.9695 C.3       1 <0>         0.0405
     14 H2          2.5883   -5.0061    3.2360 H         1 <0>         0.1391
     15 N2          3.3320   -3.0491    3.3380 N.4       1 <0>        -0.3734
     16 C11         2.9249   -1.6769    3.0267 C.3       1 <0>        -0.0127
     17 C12         2.6825   -1.5305    1.5228 C.3       1 <0>        -0.1377
     18 C13         2.9497   -2.8825    0.8418 C.3       1 <0>        -0.1333
     19 C14         4.3979   -3.2940    1.1379 C.3       1 <0>        -0.1316
     20 C15         4.5852   -3.3826    2.6569 C.3       1 <0>        -0.0072
     21 C16         0.9948   -3.6438    3.7262 C.3       1 <0>         0.0059
     22 C17        -0.0483   -4.7000    3.4662 C.ar      1 <0>        -0.0395
     23 C18         0.2639   -6.0360    3.6346 C.ar      1 <0>        -0.1264
     24 C19        -0.6928   -7.0048    3.3961 C.ar      1 <0>        -0.1155
     25 C20        -1.9620   -6.6375    2.9896 C.ar      1 <0>        -0.1153
     26 C21        -2.2745   -5.3014    2.8220 C.ar      1 <0>        -0.1105
     27 C22        -1.3190   -4.3324    3.0647 C.ar      1 <0>        -0.0668
     28 C23         1.2853   -3.5778    5.2035 C.ar      1 <0>        -0.1274
     29 C24         0.9386   -2.4517    5.9264 C.ar      1 <0>        -0.1107
     30 C25         1.2051   -2.3911    7.2815 C.ar      1 <0>        -0.1084
     31 C26         1.8180   -3.4568    7.9137 C.ar      1 <0>        -0.1043
     32 C27         2.1640   -4.5832    7.1909 C.ar      1 <0>        -0.1090
     33 C28         1.8935   -4.6455    5.8367 C.ar      1 <0>        -0.1238
     34 H3         -0.0628    0.7681   -1.0185 H         1 <0>         0.1002
     35 H4         -1.4594    0.1659   -1.9432 H         1 <0>         0.0589
     36 H5         -1.6177    0.4856   -0.1994 H         1 <0>         0.0573
     37 H6         -3.1087   -0.7365   -1.0288 H         1 <0>         0.1280
     38 H7         -4.8978   -2.4203   -0.8833 H         1 <0>         0.1264
     39 H8         -4.3440   -4.7681   -0.3933 H         1 <0>         0.1257
     40 H9         -2.0011   -5.4371   -0.0466 H         1 <0>         0.1282
     41 H10         0.2969   -4.9525   -0.2952 H         1 <0>         0.0843
     42 H11         0.8366   -3.3514   -0.8549 H         1 <0>         0.0482
     43 H12         0.4766   -2.5576    1.4138 H         1 <0>         0.3456
     44 H13         2.0073   -1.4408    3.5655 H         1 <0>         0.1280
     45 H14         3.7110   -0.9876    3.3351 H         1 <0>         0.1305
     46 H15         1.6493   -1.2314    1.3467 H         1 <0>         0.0985
     47 H16         3.3573   -0.7775    1.1156 H         1 <0>         0.1028
     48 H17         2.7744   -2.8096   -0.2315 H         1 <0>         0.1182
     49 H18         4.6007   -4.2660    0.6883 H         1 <0>         0.1002
     50 H19         5.0803   -2.5499    0.7271 H         1 <0>         0.1006
     51 H20         5.3625   -2.6844    2.9674 H         1 <0>         0.1305
     52 H21         4.8838   -4.3961    2.9247 H         1 <0>         0.1291
     53 H22         0.6255   -2.6767    3.3850 H         1 <0>         0.1036
     54 H23         1.2555   -6.3230    3.9522 H         1 <0>         0.1094
     55 H24        -0.4487   -8.0487    3.5269 H         1 <0>         0.1193
     56 H25        -2.7093   -7.3945    2.8025 H         1 <0>         0.1201
     57 H26        -3.2660   -5.0145    2.5041 H         1 <0>         0.1195
     58 H27        -1.5642   -3.2883    2.9374 H         1 <0>         0.1121
     59 H28         0.4597   -1.6191    5.4325 H         1 <0>         0.1255
     60 H29         0.9349   -1.5111    7.8462 H         1 <0>         0.1306
     61 H30         2.0269   -3.4091    8.9722 H         1 <0>         0.1304
     62 H31         2.6431   -5.4156    7.6848 H         1 <0>         0.1302
     63 H32         2.1604   -5.5270    5.2727 H         1 <0>         0.1249
     64 H33         3.4834   -3.1113    4.3336 H         1 <0>         0.4228
@<TRIPOS>BOND
     1    1    2 1
     2    1   34 1
     3    1   35 1
     4    1   36 1
     5    2    3 1
     6    3    8 ar
     7    3    4 ar
     8    4    5 ar
     9    4   37 1
    10    5    6 ar
    11    5   38 1
    12    6    7 ar
    13    6   39 1
    14    7    8 ar
    15    7   40 1
    16    8    9 1
    17    9   10 1
    18    9   41 1
    19    9   42 1
    20   10   11 1
    21   10   43 1
    22   11   12 1
    23   11   18 1
    24   11   13 1
    25   13   14 1
    26   13   15 1
    27   13   21 1
    28   15   20 1
    29   15   16 1
    30   15   64 1
    31   16   17 1
    32   16   44 1
    33   16   45 1
    34   17   18 1
    35   17   46 1
    36   17   47 1
    37   18   19 1
    38   18   48 1
    39   19   20 1
    40   19   49 1
    41   19   50 1
    42   20   51 1
    43   20   52 1
    44   21   22 1
    45   21   28 1
    46   21   53 1
    47   22   27 ar
    48   22   23 ar
    49   23   24 ar
    50   23   54 1
    51   24   25 ar
    52   24   55 1
    53   25   26 ar
    54   25   56 1
    55   26   27 ar
    56   26   57 1
    57   27   58 1
    58   28   33 ar
    59   28   29 ar
    60   29   30 ar
    61   29   59 1
    62   30   31 ar
    63   30   60 1
    64   31   32 ar
    65   31   61 1
    66   32   33 ar
    67   32   62 1
    68   33   63 1
@<TRIPOS>MOLECULE
ZINC19361055
   64    68     0     0     0
SMALL
USER_CHARGES

@<TRIPOS>ATOM
      1 C1         -0.7272    0.0235   -0.8992 C.3       1 <0>         0.0215
      2 O1         -0.2937   -1.3085   -0.6164 O.3       1 <0>        -0.3280
      3 C2         -1.2509   -2.2722   -0.5708 C.ar      1 <0>         0.1490
      4 C3         -2.5794   -1.9436   -0.7995 C.ar      1 <0>        -0.2025
      5 C4         -3.5502   -2.9250   -0.7532 C.ar      1 <0>        -0.0445
      6 C5         -3.1991   -4.2341   -0.4791 C.ar      1 <0>        -0.1484
      7 C6         -1.8762   -4.5641   -0.2504 C.ar      1 <0>        -0.0511
      8 C7         -0.9006   -3.5870   -0.3013 C.ar      1 <0>        -0.1934
      9 C8          0.5421   -3.9485   -0.0581 C.3       1 <0>         0.0449
     10 N1          0.9062   -3.6071    1.3235 N.4       1 <0>        -0.5103
     11 C9          2.3125   -3.9594    1.5606 C.3       1 <0>        -0.0043
     12 H1          2.4507   -5.0304    1.4121 H         1 <0>         0.1418
     13 C10         2.7005   -3.5857    2.9941 C.3       1 <0>         0.0806
     14 H2          3.0227   -4.4795    3.5284 H         1 <0>         0.1238
     15 N2          3.7988   -2.6106    2.9632 N.3       1 <0>        -0.4995
     16 C11         3.3857   -1.3713    2.2903 C.3       1 <0>         0.0375
     17 C12         3.0163   -1.6818    0.8371 C.3       1 <0>        -0.1685
     18 C13         3.2078   -3.1855    0.5848 C.3       1 <0>        -0.1027
     19 C14         4.6707   -3.5463    0.8720 C.3       1 <0>        -0.1468
     20 C15         4.9938   -3.1814    2.3265 C.3       1 <0>         0.0451
     21 C16         1.4931   -2.9728    3.7064 C.3       1 <0>        -0.0158
     22 C17         0.4319   -4.0263    3.8932 C.ar      1 <0>        -0.1306
     23 C18         0.7836   -5.2939    4.3181 C.ar      1 <0>        -0.1081
     24 C19        -0.1899   -6.2603    4.4894 C.ar      1 <0>        -0.1029
     25 C20        -1.5150   -5.9590    4.2364 C.ar      1 <0>        -0.1015
     26 C21        -1.8668   -4.6912    3.8124 C.ar      1 <0>        -0.1020
     27 C22        -0.8939   -3.7236    3.6451 C.ar      1 <0>        -0.1374
     28 C23         1.9186   -2.4443    5.0520 C.ar      1 <0>        -0.0590
     29 C24         1.6492   -1.1329    5.3962 C.ar      1 <0>        -0.1127
     30 C25         2.0396   -0.6481    6.6305 C.ar      1 <0>        -0.1123
     31 C26         2.6989   -1.4749    7.5208 C.ar      1 <0>        -0.1112
     32 C27         2.9675   -2.7866    7.1769 C.ar      1 <0>        -0.1118
     33 C28         2.5733   -3.2726    5.9443 C.ar      1 <0>        -0.0986
     34 H3          0.1337    0.6920   -0.9062 H         1 <0>         0.1104
     35 H4         -1.2139    0.0478   -1.8742 H         1 <0>         0.0668
     36 H5         -1.4320    0.3466   -0.1331 H         1 <0>         0.0646
     37 H6         -2.8541   -0.9212   -1.0133 H         1 <0>         0.1407
     38 H7         -4.5844   -2.6696   -0.9308 H         1 <0>         0.1385
     39 H8         -3.9597   -5.0001   -0.4433 H         1 <0>         0.1382
     40 H9         -1.6046   -5.5872   -0.0362 H         1 <0>         0.1378
     41 H10         0.6804   -5.0180   -0.2166 H         1 <0>         0.1348
     42 H11         1.1770   -3.3937   -0.7488 H         1 <0>         0.1378
     43 H12         0.7781   -2.6171    1.4702 H         1 <0>         0.4191
     44 H13         2.5212   -0.9498    2.8033 H         1 <0>         0.0837
     45 H14         4.2067   -0.6547    2.3117 H         1 <0>         0.0963
     46 H15         1.9753   -1.4120    0.6593 H         1 <0>         0.0678
     47 H16         3.6621   -1.1145    0.1669 H         1 <0>         0.0954
     48 H17         2.9434   -3.4330   -0.4433 H         1 <0>         0.1046
     49 H18         4.8191   -4.6158    0.7230 H         1 <0>         0.0800
     50 H19         5.3231   -2.9881    0.2005 H         1 <0>         0.0894
     51 H20         5.8017   -2.4500    2.3478 H         1 <0>         0.0941
     52 H21         5.3001   -4.0779    2.8656 H         1 <0>         0.0884
     53 H22         1.0926   -2.1563    3.1055 H         1 <0>         0.0798
     54 H23         1.8189   -5.5293    4.5158 H         1 <0>         0.1326
     55 H24         0.0850   -7.2508    4.8207 H         1 <0>         0.1358
     56 H25        -2.2755   -6.7143    4.3696 H         1 <0>         0.1350
     57 H26        -2.9021   -4.4560    3.6143 H         1 <0>         0.1344
     58 H27        -1.1692   -2.7320    3.3174 H         1 <0>         0.1268
     59 H28         1.1341   -0.4869    4.7007 H         1 <0>         0.1148
     60 H29         1.8298    0.3767    6.8992 H         1 <0>         0.1242
     61 H30         3.0045   -1.0960    8.4849 H         1 <0>         0.1246
     62 H31         3.4829   -3.4324    7.8724 H         1 <0>         0.1241
     63 H32         2.7799   -4.2984    5.6771 H         1 <0>         0.1156
     64 H33         0.3184   -4.1207    1.9629 H         1 <0>         0.4234
@<TRIPOS>BOND
     1    1    2 1
     2    1   34 1
     3    1   35 1
     4    1   36 1
     5    2    3 1
     6    3    8 ar
     7    3    4 ar
     8    4    5 ar
     9    4   37 1
    10    5    6 ar
    11    5   38 1
    12    6    7 ar
    13    6   39 1
    14    7    8 ar
    15    7   40 1
    16    8    9 1
    17    9   10 1
    18    9   41 1
    19    9   42 1
    20   10   11 1
    21   10   43 1
    22   10   64 1
    23   11   12 1
    24   11   18 1
    25   11   13 1
    26   13   14 1
    27   13   15 1
    28   13   21 1
    29   15   20 1
    30   15   16 1
    31   16   17 1
    32   16   44 1
    33   16   45 1
    34   17   18 1
    35   17   46 1
    36   17   47 1
    37   18   19 1
    38   18   48 1
    39   19   20 1
    40   19   49 1
    41   19   50 1
    42   20   51 1
    43   20   52 1
    44   21   22 1
    45   21   28 1
    46   21   53 1
    47   22   27 ar
    48   22   23 ar
    49   23   24 ar
    50   23   54 1
    51   24   25 ar
    52   24   55 1
    53   25   26 ar
    54   25   56 1
    55   26   27 ar
    56   26   57 1
    57   27   58 1
    58   28   33 ar
    59   28   29 ar
    60   29   30 ar
    61   29   59 1
    62   30   31 ar
    63   30   60 1
    64   31   32 ar
    65   31   61 1
    66   32   33 ar
    67   32   62 1
    68   33   63 1
@<TRIPOS>MOLECULE
ZINC03812888
   72    73     0     0     0
SMALL
USER_CHARGES

@<TRIPOS>ATOM
      1 C1          0.4643    1.3329   -0.2411 C.3       1 <0>        -0.1747
      2 C2          0.0733   -0.1223    0.0241 C.3       1 <0>        -0.0830
      3 C3          0.8761   -0.6579    1.2114 C.3       1 <0>        -0.1834
      4 C4         -1.4212   -0.1988    0.3430 C.3       1 <0>         0.1004
      5 C5         -2.2237    0.3455   -0.8405 C.3       1 <0>        -0.1048
      6 C6         -1.9247   -0.4899   -2.0868 C.3       1 <0>        -0.1606
      7 C7         -2.7272    0.0544   -3.2703 C.3       1 <0>        -0.0091
      8 N1         -2.4402   -0.7477   -4.4670 N.4       1 <0>        -0.3873
      9 C8         -1.0302   -0.5789   -4.8430 C.3       1 <0>        -0.0587
     10 C9         -3.2986   -0.3021   -5.5727 C.3       1 <0>        -0.0075
     11 C10        -3.0896   -1.2169   -6.7811 C.3       1 <0>        -0.0949
     12 C11        -3.9702   -0.7598   -7.9154 C.ar      1 <0>        -0.1088
     13 C12        -5.2517   -1.2635   -8.0399 C.ar      1 <0>        -0.1027
     14 C13        -6.0634   -0.8473   -9.0787 C.ar      1 <0>        -0.1717
     15 C14        -5.5933    0.0770   -9.9977 C.ar      1 <0>         0.1180
     16 C15        -4.3036    0.5843   -9.8722 C.ar      1 <0>         0.1059
     17 C16        -3.4969    0.1666   -8.8259 C.ar      1 <0>        -0.1655
     18 O1         -3.8377    1.4917  -10.7717 O.3       1 <0>        -0.3008
     19 C17        -2.5044    1.9690  -10.5804 C.3       1 <0>         0.0253
     20 O2         -6.3903    0.4871  -11.0204 O.3       1 <0>        -0.3014
     21 C18        -7.7019   -0.0764  -11.0869 C.3       1 <0>         0.0227
     22 C19        -1.7993   -1.6000    0.5892 C.1       1 <0>         0.2041
     23 N2         -2.0910   -2.6813    0.7792 N.1       1 <0>        -0.4101
     24 C20        -1.7157    0.6241    1.5707 C.ar      1 <0>        -0.0960
     25 C21        -0.6924    1.2978    2.2112 C.ar      1 <0>        -0.1135
     26 C22        -0.9573    2.0540    3.3377 C.ar      1 <0>        -0.1756
     27 C23        -2.2510    2.1383    3.8270 C.ar      1 <0>         0.1175
     28 C24        -3.2811    1.4605    3.1820 C.ar      1 <0>         0.1030
     29 C25        -3.0094    0.7082    2.0505 C.ar      1 <0>        -0.1606
     30 O3         -4.5524    1.5402    3.6584 O.3       1 <0>        -0.3010
     31 C26        -5.5587    0.8184    2.9454 C.3       1 <0>         0.0257
     32 O4         -2.5133    2.8814    4.9353 O.3       1 <0>        -0.3026
     33 C27        -1.4070    3.5493    5.5454 C.3       1 <0>         0.0232
     34 H1          1.5417    1.4471   -0.1220 H         1 <0>         0.0714
     35 H2          0.1801    1.6060   -1.2573 H         1 <0>         0.0573
     36 H3         -0.0504    1.9823    0.4671 H         1 <0>         0.0866
     37 H4          0.2874   -0.7230   -0.8599 H         1 <0>         0.0818
     38 H5          1.8959   -0.2762    1.1621 H         1 <0>         0.0724
     39 H6          0.4106   -0.3318    2.1415 H         1 <0>         0.0837
     40 H7          0.8938   -1.7472    1.1763 H         1 <0>         0.0565
     41 H8         -3.2884    0.2910   -0.6133 H         1 <0>         0.0854
     42 H9         -1.9437    1.3831   -1.0228 H         1 <0>         0.1040
     43 H10        -0.8600   -0.4354   -2.3140 H         1 <0>         0.0984
     44 H11        -2.2047   -1.5275   -1.9045 H         1 <0>         0.0867
     45 H12        -3.7919   -0.0001   -3.0431 H         1 <0>         0.1322
     46 H13        -2.4473    1.0920   -3.4526 H         1 <0>         0.1347
     47 H14        -0.8339    0.4722   -5.0545 H         1 <0>         0.1249
     48 H15        -0.3932   -0.9095   -4.0226 H         1 <0>         0.1255
     49 H16        -0.8172   -1.1741   -5.7310 H         1 <0>         0.1260
     50 H17        -4.3424   -0.3437   -5.2617 H         1 <0>         0.1327
     51 H18        -3.0405    0.7218   -5.8431 H         1 <0>         0.1319
     52 H19        -2.0457   -1.1754   -7.0921 H         1 <0>         0.0944
     53 H20        -3.3477   -2.2408   -6.5107 H         1 <0>         0.0957
     54 H21        -5.6193   -1.9840   -7.3242 H         1 <0>         0.1290
     55 H22        -7.0638   -1.2429   -9.1741 H         1 <0>         0.1420
     56 H23        -2.4969    0.5616   -8.7240 H         1 <0>         0.1364
     57 H24        -2.2588    2.6850  -11.3647 H         1 <0>         0.1070
     58 H25        -2.4286    2.4553   -9.6078 H         1 <0>         0.0539
     59 H26        -1.8088    1.1309  -10.6227 H         1 <0>         0.0563
     60 H27        -7.6275   -1.1590  -11.1896 H         1 <0>         0.0592
     61 H28        -8.2478    0.1654  -10.1750 H         1 <0>         0.0584
     62 H29        -8.2308    0.3347  -11.9468 H         1 <0>         0.1080
     63 H30         0.3164    1.2329    1.8308 H         1 <0>         0.1604
     64 H31        -0.1560    2.5788    3.8366 H         1 <0>         0.1426
     65 H32        -3.8077    0.1843    1.5459 H         1 <0>         0.1325
     66 H33        -6.5240    0.9669    3.4294 H         1 <0>         0.1055
     67 H34        -5.6074    1.1811    1.9187 H         1 <0>         0.0536
     68 H35        -5.3123   -0.2434    2.9444 H         1 <0>         0.0538
     69 H36        -0.6644    2.8139    5.8548 H         1 <0>         0.0583
     70 H37        -0.9593    4.2388    4.8297 H         1 <0>         0.0585
     71 H38        -1.7536    4.1046    6.4169 H         1 <0>         0.1058
     72 H39        -2.6218   -1.7207   -4.2712 H         1 <0>         0.4250
@<TRIPOS>BOND
     1    1    2 1
     2    1   34 1
     3    1   35 1
     4    1   36 1
     5    2    3 1
     6    2    4 1
     7    2   37 1
     8    3   38 1
     9    3   39 1
    10    3   40 1
    11    4    5 1
    12    4   22 1
    13    4   24 1
    14    5    6 1
    15    5   41 1
    16    5   42 1
    17    6    7 1
    18    6   43 1
    19    6   44 1
    20    7    8 1
    21    7   45 1
    22    7   46 1
    23    8    9 1
    24    8   10 1
    25    8   72 1
    26    9   47 1
    27    9   48 1
    28    9   49 1
    29   10   11 1
    30   10   50 1
    31   10   51 1
    32   11   12 1
    33   11   52 1
    34   11   53 1
    35   12   17 ar
    36   12   13 ar
    37   13   14 ar
    38   13   54 1
    39   14   15 ar
    40   14   55 1
    41   15   16 ar
    42   15   20 1
    43   16   17 ar
    44   16   18 1
    45   17   56 1
    46   18   19 1
    47   19   57 1
    48   19   58 1
    49   19   59 1
    50   20   21 1
    51   21   60 1
    52   21   61 1
    53   21   62 1
    54   22   23 3
    55   24   29 ar
    56   24   25 ar
    57   25   26 ar
    58   25   63 1
    59   26   27 ar
    60   26   64 1
    61   27   28 ar
    62   27   32 1
    63   28   29 ar
    64   28   30 1
    65   29   65 1
    66   30   31 1
    67   31   66 1
    68   31   67 1
    69   31   68 1
    70   32   33 1
    71   33   69 1
    72   33   70 1
    73   33   71 1
@<TRIPOS>MOLECULE
ZINC00621893
   56    58     0     0     0
SMALL
USER_CHARGES

@<TRIPOS>ATOM
      1 C1         -1.8116    0.6359    0.1103 C.3       1 <0>        -0.1479
      2 C2         -1.2733   -0.7661   -0.0154 C.2       1 <0>         0.4603
      3 O1         -1.2365   -1.4881    0.9527 O.2       1 <0>        -0.5144
      4 O2         -0.8348   -1.2127   -1.2028 O.3       1 <0>        -0.3048
      5 C3         -0.3379   -2.5517   -1.2491 C.3       1 <0>         0.0768
      6 H1          0.0909   -2.8105   -0.2809 H         1 <0>         0.1106
      7 C4          0.7511   -2.6529   -2.3310 C.3       1 <0>        -0.0132
      8 H2          1.6870   -2.2400   -1.9546 H         1 <0>         0.1261
      9 S1          0.9666   -4.4216   -2.7229 S.3       1 <0>        -0.0909
     10 C5          0.8947   -5.1967   -1.1401 C.ar      1 <0>        -0.1433
     11 C6          2.0380   -5.7182   -0.5569 C.ar      1 <0>        -0.0397
     12 C7          1.9577   -6.3228    0.6848 C.ar      1 <0>        -0.1165
     13 C8          0.7434   -6.4072    1.3414 C.ar      1 <0>        -0.0700
     14 C9         -0.4015   -5.8878    0.7635 C.ar      1 <0>        -0.1354
     15 C10        -0.3288   -5.2803   -0.4790 C.ar      1 <0>         0.1556
     16 N1         -1.4766   -4.7426   -1.0813 N.am      1 <0>        -0.5515
     17 C11        -1.4672   -3.4893   -1.5578 C.2       1 <0>         0.5190
     18 O3         -2.3887   -3.1045   -2.2463 O.2       1 <0>        -0.4824
     19 C12        -2.6897   -5.5561   -1.1945 C.3       1 <0>         0.0897
     20 C13        -3.5576   -5.3533    0.0492 C.3       1 <0>        -0.0366
     21 N2         -4.7740   -6.1690   -0.0643 N.4       1 <0>        -0.3827
     22 C14        -4.4114   -7.5925   -0.0573 C.3       1 <0>        -0.0556
     23 C15        -5.6621   -5.8842    1.0707 C.3       1 <0>        -0.0469
     24 C16         0.3194   -1.9022   -3.5643 C.ar      1 <0>        -0.1214
     25 C17         0.9449   -0.7172   -3.9053 C.ar      1 <0>        -0.0467
     26 C18         0.5507   -0.0269   -5.0351 C.ar      1 <0>        -0.1520
     27 C19        -0.4735   -0.5239   -5.8281 C.ar      1 <0>         0.1455
     28 C20        -1.0992   -1.7133   -5.4841 C.ar      1 <0>        -0.2080
     29 C21        -0.6978   -2.4025   -4.3561 C.ar      1 <0>        -0.0400
     30 O4         -0.8634    0.1536   -6.9398 O.3       1 <0>        -0.3134
     31 C22        -1.9240   -0.4173   -7.7087 C.3       1 <0>         0.0257
     32 H3         -0.9977    1.3165    0.3603 H         1 <0>         0.1138
     33 H4         -2.2610    0.9387   -0.8354 H         1 <0>         0.1003
     34 H5         -2.5654    0.6665    0.8971 H         1 <0>         0.1073
     35 H6          2.9869   -5.6528   -1.0686 H         1 <0>         0.1489
     36 H7          2.8465   -6.7307    1.1431 H         1 <0>         0.1429
     37 H8          0.6884   -6.8814    2.3101 H         1 <0>         0.1405
     38 H9         -1.3480   -5.9562    1.2791 H         1 <0>         0.1259
     39 H10        -3.2482   -5.2542   -2.0805 H         1 <0>         0.1186
     40 H11        -2.4155   -6.6076   -1.2786 H         1 <0>         0.1094
     41 H12        -2.9990   -5.6551    0.9352 H         1 <0>         0.1342
     42 H13        -3.8318   -4.3017    0.1333 H         1 <0>         0.1346
     43 H14        -5.3140   -8.1978   -0.1414 H         1 <0>         0.1301
     44 H15        -3.7524   -7.8038   -0.8994 H         1 <0>         0.1243
     45 H16        -3.8988   -7.8323    0.8743 H         1 <0>         0.1244
     46 H17        -5.9312   -4.8280    1.0654 H         1 <0>         0.1241
     47 H18        -6.5647   -6.4895    0.9865 H         1 <0>         0.1291
     48 H19        -5.1495   -6.1240    2.0022 H         1 <0>         0.1230
     49 H20         1.7421   -0.3308   -3.2876 H         1 <0>         0.1322
     50 H21         1.0391    0.8990   -5.3006 H         1 <0>         0.1373
     51 H22        -1.8967   -2.1022   -6.0998 H         1 <0>         0.1296
     52 H23        -1.1816   -3.3308   -4.0903 H         1 <0>         0.1259
     53 H24        -1.6283   -1.4067   -8.0574 H         1 <0>         0.0572
     54 H25        -2.8169   -0.5022   -7.0893 H         1 <0>         0.0563
     55 H26        -2.1360    0.2217   -8.5660 H         1 <0>         0.1044
     56 H27        -5.2486   -5.9470   -0.9266 H         1 <0>         0.4300
@<TRIPOS>BOND
     1    1    2 1
     2    1   32 1
     3    1   33 1
     4    1   34 1
     5    2    3 2
     6    2    4 1
     7    4    5 1
     8    5    6 1
     9    5   17 1
    10    5    7 1
    11    7    8 1
    12    7    9 1
    13    7   24 1
    14    9   10 1
    15   10   15 ar
    16   10   11 ar
    17   11   12 ar
    18   11   35 1
    19   12   13 ar
    20   12   36 1
    21   13   14 ar
    22   13   37 1
    23   14   15 ar
    24   14   38 1
    25   15   16 1
    26   16   17 am
    27   16   19 1
    28   17   18 2
    29   19   20 1
    30   19   39 1
    31   19   40 1
    32   20   21 1
    33   20   41 1
    34   20   42 1
    35   21   22 1
    36   21   23 1
    37   21   56 1
    38   22   43 1
    39   22   44 1
    40   22   45 1
    41   23   46 1
    42   23   47 1
    43   23   48 1
    44   24   29 ar
    45   24   25 ar
    46   25   26 ar
    47   25   49 1
    48   26   27 ar
    49   26   50 1
    50   27   28 ar
    51   27   30 1
    52   28   29 ar
    53   28   51 1
    54   29   52 1
    55   30   31 1
    56   31   53 1
    57   31   54 1
    58   31   55 1
@<TRIPOS>MOLECULE
ZINC26384919
   85    89     0     0     0
SMALL
USER_CHARGES

@<TRIPOS>ATOM
      1 C1          0.5619    1.1913   -1.4119 C.3       1 <0>        -0.1207
      2 C2          0.1555   -0.0775   -0.7076 C.2       1 <0>         0.2445
      3 C3          0.2932   -0.1696    0.6264 C.2       1 <0>        -0.2596
      4 C4         -0.1064   -1.4117    1.3712 C.3       1 <0>         0.0892
      5 H1          0.6627   -1.6533    2.1048 H         1 <0>         0.1017
      6 C5         -0.2703   -2.5687    0.4269 C.2       1 <0>        -0.2446
      7 C6         -0.3854   -2.3803   -0.8991 C.2       1 <0>         0.2020
      8 N1         -0.3544   -1.1195   -1.4331 N.pl3     1 <0>        -0.6292
      9 C7         -0.5564   -3.5702   -1.8078 C.3       1 <0>        -0.1340
     10 C8         -0.3038   -3.8844    0.9442 C.2       1 <0>         0.5420
     11 O1          0.7206   -4.4091    1.3393 O.2       1 <0>        -0.4840
     12 O2         -1.4718   -4.5582    0.9996 O.3       1 <0>        -0.3471
     13 C9         -1.4318   -5.8829    1.5338 C.3       1 <0>         0.0643
     14 C10        -2.8393   -6.4826    1.5161 C.3       1 <0>        -0.1492
     15 C11        -2.7965   -7.9010    2.0881 C.3       1 <0>        -0.0075
     16 N2         -4.1478   -8.4768    2.0712 N.4       1 <0>        -0.3776
     17 C12        -5.0157   -7.7111    2.9739 C.3       1 <0>        -0.0137
     18 C13        -6.4436   -8.2559    2.8988 C.3       1 <0>        -0.1369
     19 C14        -6.4445   -9.7295    3.3154 C.3       1 <0>         0.0259
     20 C15        -5.4792  -10.5051    2.4144 C.3       1 <0>        -0.1360
     21 C16        -4.0870   -9.8770    2.5075 C.3       1 <0>        -0.0201
     22 C17        -7.8341  -10.2938    3.1689 C.ar      1 <0>        -0.0850
     23 C18        -8.8551   -9.4991    2.6822 C.ar      1 <0>        -0.1210
     24 C19       -10.1298  -10.0167    2.5478 C.ar      1 <0>        -0.1133
     25 C20       -10.3835  -11.3292    2.8997 C.ar      1 <0>        -0.1094
     26 C21        -9.3623  -12.1242    3.3856 C.ar      1 <0>        -0.1120
     27 C22        -8.0867  -11.6079    3.5160 C.ar      1 <0>        -0.1046
     28 C23        -5.9995   -9.8478    4.7504 C.ar      1 <0>        -0.0905
     29 C24        -6.6101   -9.0851    5.7284 C.ar      1 <0>        -0.1071
     30 C25        -6.2019   -9.1936    7.0446 C.ar      1 <0>        -0.1062
     31 C26        -5.1835  -10.0650    7.3829 C.ar      1 <0>        -0.1095
     32 C27        -4.5736  -10.8283    6.4051 C.ar      1 <0>        -0.1103
     33 C28        -4.9847  -10.7230    5.0894 C.ar      1 <0>        -0.1387
     34 C29        -1.4114   -1.1650    2.0834 C.ar      1 <0>        -0.0735
     35 C30        -2.5416   -0.8323    1.3600 C.ar      1 <0>        -0.0498
     36 C31        -3.7384   -0.6060    2.0133 C.ar      1 <0>        -0.1162
     37 C32        -3.8055   -0.7127    3.3901 C.ar      1 <0>        -0.0571
     38 C33        -2.6757   -1.0462    4.1132 C.ar      1 <0>        -0.0464
     39 C34        -1.4796   -1.2767    3.4594 C.ar      1 <0>        -0.0404
     40 N3         -2.7474   -1.1599    5.5873 N.pl3     1 <0>         0.0316
     41 O3         -3.7940   -0.9611    6.1588 O.2       1 <0>        -0.1572
     42 O4         -1.7592   -1.4516    6.2198 O.3       1 <0>        -0.1547
     43 C35         0.8261    0.9261    1.3441 C.2       1 <0>         0.5164
     44 O5          1.1544    1.9383    0.7539 O.2       1 <0>        -0.5131
     45 O6          0.9706    0.8492    2.6837 O.3       1 <0>        -0.3523
     46 C36         1.5154    1.9932    3.3442 C.3       1 <0>         0.0356
     47 H2          0.3769    1.0885   -2.4812 H         1 <0>         0.0674
     48 H3         -0.0198    2.0261   -1.0211 H         1 <0>         0.1057
     49 H4          1.6226    1.3769   -1.2429 H         1 <0>         0.1083
     50 H5         -0.6910   -0.9646   -2.3295 H         1 <0>         0.4271
     51 H6         -1.6141   -3.8237   -1.8795 H         1 <0>         0.0969
     52 H7         -0.1728   -3.3285   -2.7990 H         1 <0>         0.0895
     53 H8         -0.0060   -4.4192   -1.4023 H         1 <0>         0.0851
     54 H9         -0.7668   -6.4989    0.9284 H         1 <0>         0.0799
     55 H10        -1.0636   -5.8502    2.5592 H         1 <0>         0.0791
     56 H11        -3.5043   -5.8667    2.1215 H         1 <0>         0.0984
     57 H12        -3.2074   -6.5153    0.4907 H         1 <0>         0.0999
     58 H13        -2.1315   -8.5170    1.4828 H         1 <0>         0.1372
     59 H14        -2.4283   -7.8683    3.1135 H         1 <0>         0.1345
     60 H15        -4.6463   -7.8010    3.9954 H         1 <0>         0.1324
     61 H16        -5.0115   -6.6620    2.6781 H         1 <0>         0.1341
     62 H17        -7.0860   -7.6872    3.5711 H         1 <0>         0.1180
     63 H18        -6.8142   -8.1662    1.8776 H         1 <0>         0.0979
     64 H19        -5.4323  -11.5442    2.7405 H         1 <0>         0.1181
     65 H20        -5.8297  -10.4621    1.3832 H         1 <0>         0.0972
     66 H21        -3.3972  -10.4269    1.8673 H         1 <0>         0.1348
     67 H22        -3.7374   -9.9208    3.5389 H         1 <0>         0.1400
     68 H23        -8.6569   -8.4736    2.4072 H         1 <0>         0.1240
     69 H24       -10.9276   -9.3956    2.1682 H         1 <0>         0.1268
     70 H25       -11.3795  -11.7334    2.7954 H         1 <0>         0.1271
     71 H26        -9.5606  -13.1496    3.6609 H         1 <0>         0.1268
     72 H27        -7.2881  -12.2301    3.8921 H         1 <0>         0.1204
     73 H28        -7.4057   -8.4043    5.4641 H         1 <0>         0.1236
     74 H29        -6.6784   -8.5972    7.8086 H         1 <0>         0.1289
     75 H30        -4.8642  -10.1492    8.4112 H         1 <0>         0.1286
     76 H31        -3.7777  -11.5088    6.6693 H         1 <0>         0.1279
     77 H32        -4.5107  -11.3220    4.3260 H         1 <0>         0.1259
     78 H33        -2.4893   -0.7490    0.2845 H         1 <0>         0.1328
     79 H34        -4.6212   -0.3455    1.4483 H         1 <0>         0.1473
     80 H35        -4.7405   -0.5352    3.9006 H         1 <0>         0.1532
     81 H36        -0.5977   -1.5409    4.0241 H         1 <0>         0.1529
     82 H37         1.5778    1.7992    4.4149 H         1 <0>         0.1027
     83 H38         2.5121    2.1981    2.9534 H         1 <0>         0.0631
     84 H39         0.8719    2.8552    3.1681 H         1 <0>         0.0603
     85 H40        -4.5191   -8.4335    1.1339 H         1 <0>         0.4220
@<TRIPOS>BOND
     1    1    2 1
     2    1   47 1
     3    1   48 1
     4    1   49 1
     5    2    8 1
     6    2    3 2
     7    3    4 1
     8    3   43 1
     9    4    5 1
    10    4    6 1
    11    4   34 1
    12    6    7 2
    13    6   10 1
    14    7    8 1
    15    7    9 1
    16    8   50 1
    17    9   51 1
    18    9   52 1
    19    9   53 1
    20   10   11 2
    21   10   12 1
    22   12   13 1
    23   13   14 1
    24   13   54 1
    25   13   55 1
    26   14   15 1
    27   14   56 1
    28   14   57 1
    29   15   16 1
    30   15   58 1
    31   15   59 1
    32   16   21 1
    33   16   17 1
    34   16   85 1
    35   17   18 1
    36   17   60 1
    37   17   61 1
    38   18   19 1
    39   18   62 1
    40   18   63 1
    41   19   20 1
    42   19   22 1
    43   19   28 1
    44   20   21 1
    45   20   64 1
    46   20   65 1
    47   21   66 1
    48   21   67 1
    49   22   27 ar
    50   22   23 ar
    51   23   24 ar
    52   23   68 1
    53   24   25 ar
    54   24   69 1
    55   25   26 ar
    56   25   70 1
    57   26   27 ar
    58   26   71 1
    59   27   72 1
    60   28   33 ar
    61   28   29 ar
    62   29   30 ar
    63   29   73 1
    64   30   31 ar
    65   30   74 1
    66   31   32 ar
    67   31   75 1
    68   32   33 ar
    69   32   76 1
    70   33   77 1
    71   34   39 ar
    72   34   35 ar
    73   35   36 ar
    74   35   78 1
    75   36   37 ar
    76   36   79 1
    77   37   38 ar
    78   37   80 1
    79   38   39 ar
    80   38   40 1
    81   39   81 1
    82   40   41 2
    83   40   42 1
    84   43   44 2
    85   43   45 1
    86   45   46 1
    87   46   82 1
    88   46   83 1
    89   46   84 1
@<TRIPOS>MOLECULE
ZINC26384919
   84    88     0     0     0
SMALL
USER_CHARGES

@<TRIPOS>ATOM
      1 C1         -0.4058    0.6649   -0.2560 C.3       1 <0>        -0.1000
      2 C2         -0.3874   -0.8418   -0.2749 C.2       1 <0>         0.2940
      3 C3         -1.5758   -1.5141   -0.2592 C.2       1 <0>        -0.3886
      4 C4         -1.5250   -3.0308   -0.2795 C.3       1 <0>         0.1314
      5 H1         -2.0744   -3.3784   -1.1543 H         1 <0>         0.0459
      6 C5         -0.1372   -3.6462   -0.3154 C.2       1 <0>        -0.3945
      7 C6          0.0434   -5.0118   -0.3368 C.2       1 <0>         0.4744
      8 O1         -1.0167   -5.8338   -0.2081 O.3       1 <0>        -0.6402
      9 O2          1.2801   -5.5257   -0.4865 O.3       1 <0>        -0.3323
     10 C7          1.3936   -6.9501   -0.4998 C.3       1 <0>         0.0372
     11 C8          0.9476   -2.7676   -0.3264 C.2       1 <0>         0.2993
     12 N1          0.7807   -1.4648   -0.3115 N.2       1 <0>        -0.6402
     13 C9          2.3460   -3.3282   -0.3619 C.3       1 <0>        -0.1087
     14 C10        -2.2308   -3.5420    0.9500 C.ar      1 <0>        -0.0224
     15 C11        -1.7764   -3.1859    2.2062 C.ar      1 <0>        -0.0562
     16 C12        -2.4237   -3.6548    3.3338 C.ar      1 <0>        -0.1261
     17 C13        -3.5259   -4.4795    3.2055 C.ar      1 <0>        -0.0800
     18 C14        -3.9807   -4.8348    1.9496 C.ar      1 <0>        -0.0600
     19 C15        -3.3358   -4.3623    0.8216 C.ar      1 <0>        -0.0105
     20 N2         -5.1604   -5.7182    1.8122 N.pl3     1 <0>         0.0455
     21 O3         -5.7262   -6.1290    2.7985 O.2       1 <0>        -0.1828
     22 O4         -5.5582   -6.0289    0.7136 O.3       1 <0>        -0.1762
     23 C16        -2.8015   -0.8264   -0.2252 C.2       1 <0>         0.5279
     24 O5         -2.8164    0.3913   -0.2091 O.2       1 <0>        -0.5542
     25 O6         -3.9627   -1.5162   -0.2103 O.3       1 <0>        -0.3570
     26 C17        -5.1703   -0.7530   -0.1757 C.3       1 <0>         0.0758
     27 C18        -6.3719   -1.7000   -0.1633 C.3       1 <0>        -0.1510
     28 C19        -7.6649   -0.8829   -0.1262 C.3       1 <0>        -0.0042
     29 N3         -8.8187   -1.7921   -0.1144 N.4       1 <0>        -0.3790
     30 C20        -8.8604   -2.5437   -1.3745 C.3       1 <0>        -0.0140
     31 C21       -10.0124   -3.5500   -1.3347 C.3       1 <0>        -0.1379
     32 C22       -11.3329   -2.7986   -1.1427 C.3       1 <0>         0.0240
     33 C23       -11.2504   -1.9600    0.1360 C.3       1 <0>        -0.1356
     34 C24       -10.0525   -1.0126    0.0417 C.3       1 <0>        -0.0191
     35 C25       -12.4633   -3.7883   -1.0242 C.ar      1 <0>        -0.0824
     36 C26       -12.1945   -5.1439   -0.9915 C.ar      1 <0>        -0.1183
     37 C27       -13.2313   -6.0516   -0.8828 C.ar      1 <0>        -0.1128
     38 C28       -14.5369   -5.6038   -0.8064 C.ar      1 <0>        -0.1118
     39 C29       -14.8056   -4.2482   -0.8382 C.ar      1 <0>        -0.1151
     40 C30       -13.7685   -3.3403   -0.9426 C.ar      1 <0>        -0.1050
     41 C31       -11.5745   -1.8943   -2.3237 C.ar      1 <0>        -0.0855
     42 C32       -11.5075   -2.4017   -3.6078 C.ar      1 <0>        -0.1060
     43 C33       -11.7291   -1.5721   -4.6912 C.ar      1 <0>        -0.1075
     44 C34       -12.0181   -0.2353   -4.4904 C.ar      1 <0>        -0.1124
     45 C35       -12.0860    0.2718   -3.2062 C.ar      1 <0>        -0.1117
     46 C36       -11.8687   -0.5586   -2.1227 C.ar      1 <0>        -0.1378
     47 H2          0.6170    1.0411   -0.2767 H         1 <0>         0.0588
     48 H3         -0.9460    1.0327   -1.1284 H         1 <0>         0.0779
     49 H4         -0.9018    1.0109    0.6509 H         1 <0>         0.0770
     50 H5          0.8069   -7.3537   -1.3250 H         1 <0>         0.0532
     51 H6          2.4394   -7.2301   -0.6264 H         1 <0>         0.0890
     52 H7          1.0211   -7.3530    0.4420 H         1 <0>         0.0517
     53 H8          2.4984   -3.8654   -1.2980 H         1 <0>         0.0822
     54 H9          3.0661   -2.5132   -0.2892 H         1 <0>         0.0671
     55 H10         2.4849   -4.0115    0.4759 H         1 <0>         0.0793
     56 H11        -0.9154   -2.5417    2.3065 H         1 <0>         0.1295
     57 H12        -2.0684   -3.3772    4.3152 H         1 <0>         0.1366
     58 H13        -4.0313   -4.8465    4.0866 H         1 <0>         0.1402
     59 H14        -3.6934   -4.6369   -0.1598 H         1 <0>         0.1388
     60 H15        -5.1846   -0.1362    0.7229 H         1 <0>         0.0662
     61 H16        -5.2211   -0.1131   -1.0566 H         1 <0>         0.0683
     62 H17        -6.3576   -2.3169   -1.0619 H         1 <0>         0.0987
     63 H18        -6.3212   -2.3400    0.7176 H         1 <0>         0.0912
     64 H19        -7.6792   -0.2660    0.7723 H         1 <0>         0.1336
     65 H20        -7.7157   -0.2429   -1.0071 H         1 <0>         0.1330
     66 H21        -9.0105   -1.8529   -2.2042 H         1 <0>         0.1305
     67 H22        -7.9187   -3.0753   -1.5113 H         1 <0>         0.1390
     68 H23       -10.0428   -4.1058   -2.2719 H         1 <0>         0.1178
     69 H24        -9.8632   -4.2415   -0.5054 H         1 <0>         0.1004
     70 H25       -12.1657   -1.3792    0.2501 H         1 <0>         0.1156
     71 H26       -11.1269   -2.6185    0.9958 H         1 <0>         0.0974
     72 H27        -9.9910   -0.4139    0.9505 H         1 <0>         0.1327
     73 H28       -10.1772   -0.3545   -0.8182 H         1 <0>         0.1380
     74 H29       -11.1744   -5.4937   -1.0511 H         1 <0>         0.1277
     75 H30       -13.0213   -7.1107   -0.8579 H         1 <0>         0.1271
     76 H31       -15.3470   -6.3131   -0.7222 H         1 <0>         0.1252
     77 H32       -15.8256   -3.8984   -0.7789 H         1 <0>         0.1244
     78 H33       -13.9781   -2.2810   -0.9637 H         1 <0>         0.1195
     79 H34       -11.2817   -3.4461   -3.7647 H         1 <0>         0.1246
     80 H35       -11.6761   -1.9684   -5.6945 H         1 <0>         0.1274
     81 H36       -12.1906    0.4129   -5.3368 H         1 <0>         0.1265
     82 H37       -12.3115    1.3163   -3.0494 H         1 <0>         0.1264
     83 H38       -11.9254   -0.1632   -1.1193 H         1 <0>         0.1264
     84 H39        -8.7296   -2.4369    0.6566 H         1 <0>         0.4228
@<TRIPOS>BOND
     1    1    2 1
     2    1   47 1
     3    1   48 1
     4    1   49 1
     5    2   12 1
     6    2    3 2
     7    3    4 1
     8    3   23 1
     9    4    5 1
    10    4    6 1
    11    4   14 1
    12    6    7 2
    13    6   11 1
    14    7    8 1
    15    7    9 1
    16    9   10 1
    17   10   50 1
    18   10   51 1
    19   10   52 1
    20   11   12 2
    21   11   13 1
    22   13   53 1
    23   13   54 1
    24   13   55 1
    25   14   19 ar
    26   14   15 ar
    27   15   16 ar
    28   15   56 1
    29   16   17 ar
    30   16   57 1
    31   17   18 ar
    32   17   58 1
    33   18   19 ar
    34   18   20 1
    35   19   59 1
    36   20   21 2
    37   20   22 1
    38   23   24 2
    39   23   25 1
    40   25   26 1
    41   26   27 1
    42   26   60 1
    43   26   61 1
    44   27   28 1
    45   27   62 1
    46   27   63 1
    47   28   29 1
    48   28   64 1
    49   28   65 1
    50   29   34 1
    51   29   30 1
    52   29   84 1
    53   30   31 1
    54   30   66 1
    55   30   67 1
    56   31   32 1
    57   31   68 1
    58   31   69 1
    59   32   33 1
    60   32   35 1
    61   32   41 1
    62   33   34 1
    63   33   70 1
    64   33   71 1
    65   34   72 1
    66   34   73 1
    67   35   40 ar
    68   35   36 ar
    69   36   37 ar
    70   36   74 1
    71   37   38 ar
    72   37   75 1
    73   38   39 ar
    74   38   76 1
    75   39   40 ar
    76   39   77 1
    77   40   78 1
    78   41   46 ar
    79   41   42 ar
    80   42   43 ar
    81   42   79 1
    82   43   44 ar
    83   43   80 1
    84   44   45 ar
    85   44   81 1
    86   45   46 ar
    87   45   82 1
    88   46   83 1
@<TRIPOS>MOLECULE
ZINC26384924
   85    89     0     0     0
SMALL
USER_CHARGES

@<TRIPOS>ATOM
      1 C1          0.0666    1.2900    1.6655 C.3       1 <0>        -0.1206
      2 C2         -0.0872   -0.0355    0.9652 C.2       1 <0>         0.2446
      3 C3         -0.0091   -0.0909   -0.3756 C.2       1 <0>        -0.2601
      4 C4         -0.1654   -1.3886   -1.1164 C.3       1 <0>         0.0893
      5 H1          0.5943   -1.4509   -1.8955 H         1 <0>         0.1006
      6 C5         -0.0133   -2.5558   -0.1827 C.2       1 <0>        -0.2453
      7 C6         -0.0912   -2.4017    1.1504 C.2       1 <0>         0.2009
      8 N1         -0.2990   -1.1686    1.7023 N.pl3     1 <0>        -0.6273
      9 C7          0.0583   -3.6026    2.0484 C.3       1 <0>        -0.1359
     10 C8          0.2163   -3.8445   -0.7179 C.2       1 <0>         0.5431
     11 O1          1.3363   -4.1675   -1.0672 O.2       1 <0>        -0.4830
     12 O2         -0.8066   -4.7160   -0.8412 O.3       1 <0>        -0.3473
     13 C9         -0.5024   -6.0000   -1.3897 C.3       1 <0>         0.0639
     14 C10        -1.7775   -6.8434   -1.4513 C.3       1 <0>        -0.1496
     15 C11        -1.4518   -8.2181   -2.0385 C.3       1 <0>        -0.0073
     16 N2         -2.6761   -9.0279   -2.0976 N.4       1 <0>        -0.3785
     17 C12        -3.1586   -9.2828   -0.7350 C.3       1 <0>        -0.0130
     18 C13        -4.4773  -10.0567   -0.7933 C.3       1 <0>        -0.1374
     19 C14        -4.2496  -11.3889   -1.5135 C.3       1 <0>         0.0258
     20 C15        -3.6764  -11.1134   -2.9065 C.3       1 <0>        -0.1366
     21 C16        -2.3873  -10.3003   -2.7700 C.3       1 <0>        -0.0200
     22 C17        -5.5600  -12.1218   -1.6436 C.ar      1 <0>        -0.0857
     23 C18        -6.7311  -11.5252   -1.2152 C.ar      1 <0>        -0.1211
     24 C19        -7.9331  -12.1975   -1.3346 C.ar      1 <0>        -0.1133
     25 C20        -7.9640  -13.4661   -1.8829 C.ar      1 <0>        -0.1092
     26 C21        -6.7930  -14.0622   -2.3122 C.ar      1 <0>        -0.1120
     27 C22        -5.5916  -13.3883   -2.1967 C.ar      1 <0>        -0.1043
     28 C23        -3.2772  -12.2281   -0.7253 C.ar      1 <0>        -0.0893
     29 C24        -3.4932  -12.4552    0.6210 C.ar      1 <0>        -0.1072
     30 C25        -2.6013  -13.2250    1.3440 C.ar      1 <0>        -0.1073
     31 C26        -1.4934  -13.7680    0.7205 C.ar      1 <0>        -0.1103
     32 C27        -1.2779  -13.5417   -0.6260 C.ar      1 <0>        -0.1102
     33 C28        -2.1722  -12.7755   -1.3500 C.ar      1 <0>        -0.1382
     34 C29        -1.5316   -1.4365   -1.7507 C.ar      1 <0>        -0.0727
     35 C30        -2.6636   -1.3545   -0.9612 C.ar      1 <0>        -0.0491
     36 C31        -3.9165   -1.3984   -1.5429 C.ar      1 <0>        -0.1161
     37 C32        -4.0379   -1.5238   -2.9144 C.ar      1 <0>        -0.0569
     38 C33        -2.9062   -1.6049   -3.7038 C.ar      1 <0>        -0.0469
     39 C34        -1.6528   -1.5567   -3.1222 C.ar      1 <0>        -0.0401
     40 N3         -3.0362   -1.7397   -5.1721 N.pl3     1 <0>         0.0318
     41 O3         -4.1322   -1.7789   -5.6809 O.2       1 <0>        -0.1574
     42 O4         -2.0463   -1.8106   -5.8625 O.3       1 <0>        -0.1552
     43 C35         0.2247    1.0980   -1.1047 C.2       1 <0>         0.5164
     44 O5          0.3529    2.1563   -0.5179 O.2       1 <0>        -0.5131
     45 O6          0.3057    1.0589   -2.4512 O.3       1 <0>        -0.3525
     46 C36         0.5436    2.2974   -3.1231 C.3       1 <0>         0.0355
     47 H2         -0.0198    1.1443    2.7423 H         1 <0>         0.0675
     48 H3          1.0442    1.7124    1.4333 H         1 <0>         0.1088
     49 H4         -0.7136    1.9722    1.3275 H         1 <0>         0.1054
     50 H5         -0.6023   -1.0974    2.6209 H         1 <0>         0.4266
     51 H6          1.1049   -3.7172    2.3307 H         1 <0>         0.0970
     52 H7         -0.5466   -3.4638    2.9445 H         1 <0>         0.0895
     53 H8         -0.2752   -4.4955    1.5197 H         1 <0>         0.0863
     54 H9         -0.0978   -5.8792   -2.3946 H         1 <0>         0.0800
     55 H10         0.2334   -6.4993   -0.7593 H         1 <0>         0.0797
     56 H11        -2.1821   -6.9641   -0.4464 H         1 <0>         0.0993
     57 H12        -2.5133   -6.3440   -2.0816 H         1 <0>         0.0989
     58 H13        -1.0472   -8.0973   -3.0434 H         1 <0>         0.1372
     59 H14        -0.7160   -8.7174   -1.4082 H         1 <0>         0.1348
     60 H15        -2.4176   -9.8688   -0.1914 H         1 <0>         0.1320
     61 H16        -3.3171   -8.3338   -0.2227 H         1 <0>         0.1342
     62 H17        -4.8330  -10.2466    0.2194 H         1 <0>         0.1178
     63 H18        -5.2192   -9.4714   -1.3365 H         1 <0>         0.0982
     64 H19        -3.4596  -12.0585   -3.4044 H         1 <0>         0.1182
     65 H20        -4.4016  -10.5500   -3.4937 H         1 <0>         0.0977
     66 H21        -1.9764  -10.1025   -3.7600 H         1 <0>         0.1352
     67 H22        -1.6628  -10.8646   -2.1830 H         1 <0>         0.1398
     68 H23        -6.7069  -10.5341   -0.7868 H         1 <0>         0.1240
     69 H24        -8.8479  -11.7317   -0.9992 H         1 <0>         0.1269
     70 H25        -8.9030  -13.9916   -1.9755 H         1 <0>         0.1273
     71 H26        -6.8171  -15.0535   -2.7402 H         1 <0>         0.1268
     72 H27        -4.6773  -13.8526   -2.5355 H         1 <0>         0.1204
     73 H28        -4.3588  -12.0309    1.1082 H         1 <0>         0.1235
     74 H29        -2.7697  -13.4018    2.3960 H         1 <0>         0.1281
     75 H30        -0.7962  -14.3688    1.2855 H         1 <0>         0.1281
     76 H31        -0.4122  -13.9657   -1.1131 H         1 <0>         0.1280
     77 H32        -2.0058  -12.6017   -2.4028 H         1 <0>         0.1265
     78 H33        -2.5688   -1.2565    0.1102 H         1 <0>         0.1325
     79 H34        -4.8008   -1.3351   -0.9261 H         1 <0>         0.1472
     80 H35        -5.0170   -1.5588   -3.3689 H         1 <0>         0.1531
     81 H36        -0.7685   -1.6163   -3.7394 H         1 <0>         0.1525
     82 H37         0.5861    2.1251   -4.1985 H         1 <0>         0.1027
     83 H38        -0.2644    2.9937   -2.8984 H         1 <0>         0.0604
     84 H39         1.4905    2.7183   -2.7848 H         1 <0>         0.0631
     85 H40        -3.3839   -8.5283   -2.6149 H         1 <0>         0.4228
@<TRIPOS>BOND
     1    1    2 1
     2    1   47 1
     3    1   48 1
     4    1   49 1
     5    2    8 1
     6    2    3 2
     7    3    4 1
     8    3   43 1
     9    4    5 1
    10    4    6 1
    11    4   34 1
    12    6    7 2
    13    6   10 1
    14    7    8 1
    15    7    9 1
    16    8   50 1
    17    9   51 1
    18    9   52 1
    19    9   53 1
    20   10   11 2
    21   10   12 1
    22   12   13 1
    23   13   14 1
    24   13   54 1
    25   13   55 1
    26   14   15 1
    27   14   56 1
    28   14   57 1
    29   15   16 1
    30   15   58 1
    31   15   59 1
    32   16   21 1
    33   16   17 1
    34   16   85 1
    35   17   18 1
    36   17   60 1
    37   17   61 1
    38   18   19 1
    39   18   62 1
    40   18   63 1
    41   19   20 1
    42   19   22 1
    43   19   28 1
    44   20   21 1
    45   20   64 1
    46   20   65 1
    47   21   66 1
    48   21   67 1
    49   22   27 ar
    50   22   23 ar
    51   23   24 ar
    52   23   68 1
    53   24   25 ar
    54   24   69 1
    55   25   26 ar
    56   25   70 1
    57   26   27 ar
    58   26   71 1
    59   27   72 1
    60   28   33 ar
    61   28   29 ar
    62   29   30 ar
    63   29   73 1
    64   30   31 ar
    65   30   74 1
    66   31   32 ar
    67   31   75 1
    68   32   33 ar
    69   32   76 1
    70   33   77 1
    71   34   39 ar
    72   34   35 ar
    73   35   36 ar
    74   35   78 1
    75   36   37 ar
    76   36   79 1
    77   37   38 ar
    78   37   80 1
    79   38   39 ar
    80   38   40 1
    81   39   81 1
    82   40   41 2
    83   40   42 1
    84   43   44 2
    85   43   45 1
    86   45   46 1
    87   46   82 1
    88   46   83 1
    89   46   84 1
@<TRIPOS>MOLECULE
ZINC26384924
   84    88     0     0     0
SMALL
USER_CHARGES

@<TRIPOS>ATOM
      1 C1         -0.0200    1.0054    0.4352 C.3       1 <0>        -0.0999
      2 C2          0.0723   -0.4971    0.3643 C.2       1 <0>         0.2940
      3 C3         -1.0808   -1.2232    0.2772 C.2       1 <0>        -0.3885
      4 C4         -0.9556   -2.7342    0.2068 C.3       1 <0>         0.1312
      5 H1         -1.5071   -3.1610    1.0445 H         1 <0>         0.0481
      6 C5          0.4597   -3.2835    0.2413 C.2       1 <0>        -0.3941
      7 C6          0.7070   -4.6375    0.1837 C.2       1 <0>         0.4746
      8 O1         -0.3179   -5.5118    0.2197 O.3       1 <0>        -0.6405
      9 O2          1.9738   -5.0878    0.0914 O.3       1 <0>        -0.3324
     10 C7          2.1565   -6.5039    0.0359 C.3       1 <0>         0.0371
     11 C8          1.4992   -2.3562    0.3335 C.2       1 <0>         0.2992
     12 N1          1.2690   -1.0640    0.3833 N.2       1 <0>        -0.6403
     13 C9          2.9224   -2.8503    0.3712 C.3       1 <0>        -0.1087
     14 C10        -1.6070   -3.2017   -1.0692 C.ar      1 <0>        -0.0283
     15 C11        -1.1348   -2.7561   -2.2899 C.ar      1 <0>        -0.0550
     16 C12        -1.7322   -3.1848   -3.4602 C.ar      1 <0>        -0.1264
     17 C13        -2.8017   -4.0597   -3.4102 C.ar      1 <0>        -0.0789
     18 C14        -3.2731   -4.5058   -2.1899 C.ar      1 <0>        -0.0612
     19 C15        -2.6727   -4.0803   -1.0194 C.ar      1 <0>        -0.0141
     20 N2         -4.4184   -5.4420   -2.1364 N.pl3     1 <0>         0.0450
     21 O3         -4.9415   -5.8164   -3.1600 O.2       1 <0>        -0.1820
     22 O4         -4.8307   -5.8322   -1.0690 O.3       1 <0>        -0.1749
     23 C16        -2.3379   -0.5943    0.2541 C.2       1 <0>         0.5279
     24 O5         -2.4126    0.6199    0.3122 O.2       1 <0>        -0.5544
     25 O6         -3.4630   -1.3367    0.1674 O.3       1 <0>        -0.3569
     26 C17        -4.7057   -0.6316    0.1487 C.3       1 <0>         0.0758
     27 C18        -5.8585   -1.6325    0.0478 C.3       1 <0>        -0.1509
     28 C19        -7.1891   -0.8775    0.0278 C.3       1 <0>        -0.0042
     29 N3         -8.2960   -1.8385   -0.0691 N.4       1 <0>        -0.3789
     30 C20        -8.3289   -2.6683    1.1411 C.3       1 <0>        -0.0141
     31 C21        -9.4286   -3.7243    1.0104 C.3       1 <0>        -0.1379
     32 C22       -10.7800   -3.0265    0.8311 C.3       1 <0>         0.0240
     33 C23       -10.7102   -2.1067   -0.3913 C.3       1 <0>        -0.1356
     34 C24        -9.5630   -1.1107   -0.2086 C.3       1 <0>        -0.0189
     35 C25       -11.0924   -2.2103    2.0588 C.ar      1 <0>        -0.0856
     36 C26       -11.4521   -0.8815    1.9322 C.ar      1 <0>        -0.1377
     37 C27       -11.7387   -0.1328    3.0583 C.ar      1 <0>        -0.1116
     38 C28       -11.6661   -0.7129    4.3110 C.ar      1 <0>        -0.1124
     39 C29       -11.3073   -2.0419    4.4374 C.ar      1 <0>        -0.1075
     40 C30       -11.0249   -2.7918    3.3110 C.ar      1 <0>        -0.1060
     41 C31       -11.8570   -4.0598    0.6234 C.ar      1 <0>        -0.0825
     42 C32       -11.5218   -5.3973    0.5240 C.ar      1 <0>        -0.1182
     43 C33       -12.5098   -6.3451    0.3336 C.ar      1 <0>        -0.1128
     44 C34       -13.8331   -5.9556    0.2429 C.ar      1 <0>        -0.1117
     45 C35       -14.1684   -4.6183    0.3433 C.ar      1 <0>        -0.1152
     46 C36       -13.1808   -3.6709    0.5380 C.ar      1 <0>        -0.1050
     47 H2          0.9826    1.4286    0.4957 H         1 <0>         0.0588
     48 H3         -0.5198    1.3812   -0.4576 H         1 <0>         0.0772
     49 H4         -0.5897    1.2931    1.3188 H         1 <0>         0.0776
     50 H5          1.6395   -6.9030   -0.8368 H         1 <0>         0.0512
     51 H6          3.2202   -6.7304   -0.0369 H         1 <0>         0.0891
     52 H7          1.7492   -6.9586    0.9389 H         1 <0>         0.0536
     53 H8          3.1625   -3.3389   -0.5731 H         1 <0>         0.0811
     54 H9          3.5958   -2.0072    0.5255 H         1 <0>         0.0671
     55 H10         3.0383   -3.5623    1.1884 H         1 <0>         0.0803
     56 H11        -0.2994   -2.0727   -2.3289 H         1 <0>         0.1309
     57 H12        -1.3639   -2.8362   -4.4137 H         1 <0>         0.1375
     58 H13        -3.2689   -4.3941   -4.3246 H         1 <0>         0.1410
     59 H14        -3.0387   -4.4318   -0.0661 H         1 <0>         0.1412
     60 H15        -4.8079   -0.0510    1.0656 H         1 <0>         0.0683
     61 H16        -4.7303    0.0388   -0.7104 H         1 <0>         0.0661
     62 H17        -5.7564   -2.2130   -0.8691 H         1 <0>         0.0910
     63 H18        -5.8340   -2.3028    0.9069 H         1 <0>         0.0989
     64 H19        -7.2913   -0.2969    0.9447 H         1 <0>         0.1330
     65 H20        -7.2137   -0.2072   -0.8313 H         1 <0>         0.1336
     66 H21        -7.3654   -3.1618    1.2691 H         1 <0>         0.1391
     67 H22        -8.5315   -2.0387    2.0075 H         1 <0>         0.1306
     68 H23        -9.2268   -4.3547    0.1444 H         1 <0>         0.1004
     69 H24        -9.4526   -4.3382    1.9107 H         1 <0>         0.1179
     70 H25       -10.5350   -2.7036   -1.2864 H         1 <0>         0.0974
     71 H26       -11.6503   -1.5645   -0.4929 H         1 <0>         0.1156
     72 H27        -9.7394   -0.5143    0.6865 H         1 <0>         0.1379
     73 H28        -9.5107   -0.4542   -1.0771 H         1 <0>         0.1327
     74 H29       -11.5088   -0.4283    0.9536 H         1 <0>         0.1263
     75 H30       -12.0190    0.9055    2.9595 H         1 <0>         0.1264
     76 H31       -11.8893   -0.1278    5.1908 H         1 <0>         0.1265
     77 H32       -11.2503   -2.4950    5.4161 H         1 <0>         0.1274
     78 H33       -10.7482   -3.8311    3.4096 H         1 <0>         0.1246
     79 H34       -10.4880   -5.7015    0.5948 H         1 <0>         0.1277
     80 H35       -12.2479   -7.3899    0.2552 H         1 <0>         0.1271
     81 H36       -14.6049   -6.6961    0.0934 H         1 <0>         0.1252
     82 H37       -15.2022   -4.3140    0.2721 H         1 <0>         0.1244
     83 H38       -13.4431   -2.6264    0.6201 H         1 <0>         0.1195
     84 H39        -8.1578   -2.4288   -0.8756 H         1 <0>         0.4228
@<TRIPOS>BOND
     1    1    2 1
     2    1   47 1
     3    1   48 1
     4    1   49 1
     5    2   12 1
     6    2    3 2
     7    3    4 1
     8    3   23 1
     9    4    5 1
    10    4    6 1
    11    4   14 1
    12    6    7 2
    13    6   11 1
    14    7    8 1
    15    7    9 1
    16    9   10 1
    17   10   50 1
    18   10   51 1
    19   10   52 1
    20   11   12 2
    21   11   13 1
    22   13   53 1
    23   13   54 1
    24   13   55 1
    25   14   19 ar
    26   14   15 ar
    27   15   16 ar
    28   15   56 1
    29   16   17 ar
    30   16   57 1
    31   17   18 ar
    32   17   58 1
    33   18   19 ar
    34   18   20 1
    35   19   59 1
    36   20   21 2
    37   20   22 1
    38   23   24 2
    39   23   25 1
    40   25   26 1
    41   26   27 1
    42   26   60 1
    43   26   61 1
    44   27   28 1
    45   27   62 1
    46   27   63 1
    47   28   29 1
    48   28   64 1
    49   28   65 1
    50   29   34 1
    51   29   30 1
    52   29   84 1
    53   30   31 1
    54   30   66 1
    55   30   67 1
    56   31   32 1
    57   31   68 1
    58   31   69 1
    59   32   33 1
    60   32   35 1
    61   32   41 1
    62   33   34 1
    63   33   70 1
    64   33   71 1
    65   34   72 1
    66   34   73 1
    67   35   40 ar
    68   35   36 ar
    69   36   37 ar
    70   36   74 1
    71   37   38 ar
    72   37   75 1
    73   38   39 ar
    74   38   76 1
    75   39   40 ar
    76   39   77 1
    77   40   78 1
    78   41   46 ar
    79   41   42 ar
    80   42   43 ar
    81   42   79 1
    82   43   44 ar
    83   43   80 1
    84   44   45 ar
    85   44   81 1
    86   45   46 ar
    87   45   82 1
    88   46   83 1
