@<TRIPOS>MOLECULE
ZINC13449627
   31    32     0     0     0
SMALL
USER_CHARGES
[(R)-benzylsulfinyl]sulfanylmethylbenzene
@<TRIPOS>ATOM
      1 C1          3.9849    3.2886   -0.0183 C.ar      1 <0>        -0.1111
      2 C2          3.3250    3.0559   -1.2105 C.ar      1 <0>        -0.1143
      3 C3          2.0283    2.5770   -1.2007 C.ar      1 <0>        -0.0887
      4 C4          1.3913    2.3314    0.0013 C.ar      1 <0>        -0.0968
      5 C5          2.0492    2.5695    1.1935 C.ar      1 <0>        -0.1238
      6 C6          3.3479    3.0430    1.1837 C.ar      1 <0>        -0.1127
      7 C7         -0.0225    1.8097    0.0120 C.3       1 <0>         0.0462
      8 S1          0.0021   -0.0041    0.0020 S.3       1 <0>        -0.6547
      9 S2          0.7069   -0.5007    1.8619 S.o       1 <0>         1.2892
     10 O1         -0.3076   -0.0457    2.7468 O.2       1 <0>        -0.7538
     11 C8          0.7315   -2.3145    1.8519 C.3       1 <0>        -0.3803
     12 C9          1.2369   -2.8174    3.1796 C.ar      1 <0>        -0.0809
     13 C10         2.5890   -3.0359    3.3666 C.ar      1 <0>        -0.1109
     14 C11         3.0532   -3.4921    4.5862 C.ar      1 <0>        -0.1154
     15 C12         2.1641   -3.7402    5.6152 C.ar      1 <0>        -0.1120
     16 C13         0.8114   -3.5271    5.4263 C.ar      1 <0>        -0.1142
     17 C14         0.3478   -3.0655    4.2086 C.ar      1 <0>        -0.1082
     18 H1          4.9982    3.6621   -0.0260 H         1 <0>         0.1262
     19 H2          3.8227    3.2478   -2.1496 H         1 <0>         0.1273
     20 H3          1.5127    2.3952   -2.1321 H         1 <0>         0.1279
     21 H4          1.5499    2.3818    2.1326 H         1 <0>         0.1171
     22 H5          3.8635    3.2245    2.1151 H         1 <0>         0.1277
     23 H6         -0.5497    2.1708   -0.8711 H         1 <0>         0.1233
     24 H7         -0.5327    2.1613    0.9088 H         1 <0>         0.0967
     25 H8         -0.2772   -2.6906    1.6811 H         1 <0>         0.1139
     26 H9          1.3894   -2.6646    1.0565 H         1 <0>         0.1416
     27 H10         3.2831   -2.8462    2.5613 H         1 <0>         0.1327
     28 H11         4.1101   -3.6582    4.7338 H         1 <0>         0.1303
     29 H12         2.5264   -4.1002    6.5668 H         1 <0>         0.1275
     30 H13         0.1168   -3.7210    6.2303 H         1 <0>         0.1275
     31 H14        -0.7090   -2.8990    4.0610 H         1 <0>         0.1228
@<TRIPOS>BOND
     1    1    6 ar
     2    1    2 ar
     3    1   18 1
     4    2    3 ar
     5    2   19 1
     6    3    4 ar
     7    3   20 1
     8    4    5 ar
     9    4    7 1
    10    5    6 ar
    11    5   21 1
    12    6   22 1
    13    7    8 1
    14    7   23 1
    15    7   24 1
    16    8    9 1
    17    9   10 2
    18    9   11 1
    19   11   12 1
    20   11   25 1
    21   11   26 1
    22   12   17 ar
    23   12   13 ar
    24   13   14 ar
    25   13   27 1
    26   14   15 ar
    27   14   28 1
    28   15   16 ar
    29   15   29 1
    30   16   17 ar
    31   16   30 1
    32   17   31 1
@<TRIPOS>MOLECULE
ZINC13449631
   31    32     0     0     0
SMALL
USER_CHARGES
[(S)-benzylsulfinyl]sulfanylmethylbenzene
@<TRIPOS>ATOM
      1 C1          7.6248    1.4400   -5.0941 C.ar      1 <0>        -0.1105
      2 C2          8.5744    0.6763   -4.4416 C.ar      1 <0>        -0.1243
      3 C3          8.2151   -0.5259   -3.8614 C.ar      1 <0>        -0.0913
      4 C4          6.9062   -0.9645   -3.9341 C.ar      1 <0>        -0.1117
      5 C5          5.9577   -0.2035   -4.5915 C.ar      1 <0>        -0.0806
      6 C6          6.3159    1.0014   -5.1668 C.ar      1 <0>        -0.1139
      7 C7          6.5146   -2.2752   -3.3019 C.3       1 <0>         0.0514
      8 S1          6.0043   -1.9898   -1.5848 S.3       1 <0>        -0.6635
      9 S2          4.2215   -0.9925   -1.7564 S.o       1 <0>         1.2841
     10 O1          4.5765    0.2454   -2.3570 O.2       1 <0>        -0.7350
     11 C8          3.7112   -0.7071   -0.0392 C.3       1 <0>        -0.3792
     12 C9          2.3960    0.0285   -0.0217 C.ar      1 <0>        -0.0797
     13 C10         1.2084   -0.6789   -0.0136 C.ar      1 <0>        -0.1121
     14 C11         0.0021   -0.0041    0.0020 C.ar      1 <0>        -0.1157
     15 C12        -0.0167    1.3781    0.0096 C.ar      1 <0>        -0.1127
     16 C13         1.1709    2.0855    0.0021 C.ar      1 <0>        -0.1144
     17 C14         2.3773    1.4107   -0.0141 C.ar      1 <0>        -0.1071
     18 H1          7.9054    2.3795   -5.5468 H         1 <0>         0.1223
     19 H2          9.5971    1.0189   -4.3848 H         1 <0>         0.1236
     20 H3          8.9571   -1.1226   -3.3516 H         1 <0>         0.1237
     21 H4          4.9361   -0.5483   -4.6521 H         1 <0>         0.1131
     22 H5          5.5738    1.5982   -5.6763 H         1 <0>         0.1219
     23 H6          7.3658   -2.9559   -3.3197 H         1 <0>         0.1224
     24 H7          5.6867   -2.7142   -3.8588 H         1 <0>         0.0986
     25 H8          4.4679   -0.1107    0.4703 H         1 <0>         0.1127
     26 H9          3.5990   -1.6641    0.4703 H         1 <0>         0.1396
     27 H10         1.2231   -1.7587   -0.0199 H         1 <0>         0.1323
     28 H11        -0.9258   -0.5567    0.0079 H         1 <0>         0.1297
     29 H12        -0.9592    1.9054    0.0170 H         1 <0>         0.1269
     30 H13         1.1563    3.1654    0.0077 H         1 <0>         0.1266
     31 H14         3.3051    1.9634   -0.0207 H         1 <0>         0.1224
@<TRIPOS>BOND
     1    1    6 ar
     2    1    2 ar
     3    1   18 1
     4    2    3 ar
     5    2   19 1
     6    3    4 ar
     7    3   20 1
     8    4    5 ar
     9    4    7 1
    10    5    6 ar
    11    5   21 1
    12    6   22 1
    13    7    8 1
    14    7   23 1
    15    7   24 1
    16    8    9 1
    17    9   10 2
    18    9   11 1
    19   11   12 1
    20   11   25 1
    21   11   26 1
    22   12   17 ar
    23   12   13 ar
    24   13   14 ar
    25   13   27 1
    26   14   15 ar
    27   14   28 1
    28   15   16 ar
    29   15   29 1
    30   16   17 ar
    31   16   30 1
    32   17   31 1
@<TRIPOS>MOLECULE
ZINC34635639
   49    50     0     0     0
SMALL
USER_CHARGES

@<TRIPOS>ATOM
      1 C1         -0.0187    1.5258    0.0104 C.3       1 <0>        -0.1766
      2 C2          0.0021   -0.0041    0.0020 C.3       1 <0>         0.0443
      3 C3          0.7421   -0.5109    1.2415 C.3       1 <0>        -0.1690
      4 C4         -1.4117   -0.5257    0.0127 C.2       1 <0>         0.5070
      5 O1         -1.9390   -0.8271    1.0625 O.2       1 <0>        -0.4731
      6 N1         -2.0902   -0.6573   -1.1443 N.am      1 <0>        -0.8493
      7 N2          0.6897   -0.4778   -1.2066 N.4       1 <0>        -0.5059
      8 C5          2.0678    0.0307   -1.2170 C.3       1 <0>        -0.0204
      9 C6          2.7840   -0.4628   -2.4758 C.3       1 <0>        -0.1463
     10 C7          4.2193    0.0668   -2.4867 C.3       1 <0>        -0.0638
     11 C8          4.9247   -0.4192   -3.7266 C.ar      1 <0>         0.1804
     12 C9          5.5280    0.4827   -4.5880 C.ar      1 <0>        -0.1918
     13 C10         6.1715   -0.0123   -5.7269 C.ar      1 <0>         0.2445
     14 N3          6.1816   -1.3244   -5.9419 N.ar      1 <0>        -0.4790
     15 C11         5.5920   -2.1520   -5.0920 C.ar      1 <0>         0.4285
     16 N4          4.9792   -1.7111   -4.0013 N.ar      1 <0>        -0.4906
     17 C12         5.6216   -3.5594   -5.3547 C.1       1 <0>         0.2677
     18 N5          5.6451   -4.6759   -5.5631 N.1       1 <0>        -0.3326
     19 C13         6.8319    0.9121   -6.6803 C.ar      1 <0>        -0.0780
     20 C14         6.8210    2.2859   -6.4442 C.ar      1 <0>        -0.0550
     21 C15         7.4375    3.1412   -7.3344 C.ar      1 <0>        -0.1203
     22 C16         8.0656    2.6377   -8.4595 C.ar      1 <0>        -0.0422
     23 C17         8.0796    1.2755   -8.6989 C.ar      1 <0>        -0.1844
     24 C18         7.4707    0.4101   -7.8126 C.ar      1 <0>        -0.0168
     25 C19         8.7658    0.7347   -9.9268 C.3       1 <0>         0.5082
     26 F1          9.3087    1.7938  -10.6622 F         1 <0>        -0.1727
     27 F2          9.7888   -0.1389   -9.5426 F         1 <0>        -0.1720
     28 F3          7.8371    0.0472  -10.7154 F         1 <0>        -0.1725
     29 H1          1.0039    1.9031    0.0027 H         1 <0>         0.1008
     30 H2         -0.5459    1.8868   -0.8726 H         1 <0>         0.0879
     31 H3         -0.5289    1.8773    0.9072 H         1 <0>         0.1160
     32 H4          0.2319   -0.1594    2.1383 H         1 <0>         0.1189
     33 H5          0.7568   -1.6008    1.2356 H         1 <0>         0.0886
     34 H6          1.7647   -0.1336    1.2338 H         1 <0>         0.0956
     35 H7         -1.6686   -0.4162   -1.9840 H         1 <0>         0.3955
     36 H8         -3.0003   -0.9930   -1.1375 H         1 <0>         0.4275
     37 H9          0.7033   -1.4867   -1.2121 H         1 <0>         0.4338
     38 H10         2.0530    1.1205   -1.2110 H         1 <0>         0.1417
     39 H11         2.5950   -0.3304   -0.3340 H         1 <0>         0.1438
     40 H12         2.7987   -1.5526   -2.4818 H         1 <0>         0.1038
     41 H13         2.2568   -0.1017   -3.3589 H         1 <0>         0.0915
     42 H14         4.2046    1.1567   -2.4807 H         1 <0>         0.1040
     43 H15         4.7465   -0.2943   -1.6036 H         1 <0>         0.1085
     44 H16         5.5018    1.5431   -4.3850 H         1 <0>         0.1641
     45 H17         6.3307    2.6801   -5.5664 H         1 <0>         0.1400
     46 H18         7.4294    4.2058   -7.1526 H         1 <0>         0.1479
     47 H19         8.5465    3.3108   -9.1538 H         1 <0>         0.1489
     48 H20         7.4858   -0.6537   -7.9983 H         1 <0>         0.1499
     49 H21         0.2017   -0.1436   -2.0240 H         1 <0>         0.4229
@<TRIPOS>BOND
     1    1    2 1
     2    1   29 1
     3    1   30 1
     4    1   31 1
     5    2    3 1
     6    2    4 1
     7    2    7 1
     8    3   32 1
     9    3   33 1
    10    3   34 1
    11    4    5 2
    12    4    6 am
    13    6   35 1
    14    6   36 1
    15    7    8 1
    16    7   37 1
    17    7   49 1
    18    8    9 1
    19    8   38 1
    20    8   39 1
    21    9   10 1
    22    9   40 1
    23    9   41 1
    24   10   11 1
    25   10   42 1
    26   10   43 1
    27   11   16 ar
    28   11   12 ar
    29   12   13 ar
    30   12   44 1
    31   13   14 ar
    32   13   19 1
    33   14   15 ar
    34   15   16 ar
    35   15   17 1
    36   17   18 3
    37   19   24 ar
    38   19   20 ar
    39   20   21 ar
    40   20   45 1
    41   21   22 ar
    42   21   46 1
    43   22   23 ar
    44   22   47 1
    45   23   24 ar
    46   23   25 1
    47   24   48 1
    48   25   26 1
    49   25   27 1
    50   25   28 1
@<TRIPOS>MOLECULE
ZINC13493521
   50    50     0     0     0
SMALL
USER_CHARGES

@<TRIPOS>ATOM
      1 C1          1.0377   -1.4079   -2.5341 C.3       1 <0>        -0.1531
      2 C2          1.5174   -2.7000   -1.8698 C.3       1 <0>        -0.0940
      3 C3          0.5092   -3.8182   -2.1422 C.3       1 <0>        -0.1496
      4 C4          2.8810   -3.0921   -2.4424 C.3       1 <0>        -0.1176
      5 C5          3.9174   -2.0327   -2.0625 C.3       1 <0>         0.0768
      6 H1          3.5730   -1.0526   -2.3925 H         1 <0>         0.1234
      7 C6          5.2310   -2.3537   -2.7277 C.2       1 <0>         0.3264
      8 O1          6.2146   -2.5542   -2.0565 O.2       1 <0>        -0.4390
      9 N1          4.0958   -2.0235   -0.6084 N.am      1 <0>        -0.7130
     10 C7          4.5336   -0.9088    0.0098 C.2       1 <0>         0.5094
     11 O2          4.8646    0.0572   -0.6445 O.2       1 <0>        -0.5199
     12 C8          4.6119   -0.8627    1.5141 C.3       1 <0>         0.1430
     13 H2          4.9556   -1.8265    1.8897 H         1 <0>         0.1101
     14 C9          3.2270   -0.5561    2.0877 C.3       1 <0>        -0.0925
     15 C10         3.2768   -0.6426    3.6144 C.3       1 <0>        -0.1500
     16 C11         2.8027    0.8533    1.6702 C.3       1 <0>        -0.1524
     17 N2          5.5522    0.1839    1.9223 N.pl3     1 <0>        -1.0915
     18 S1          6.9536   -0.2217    2.7059 S.o2      1 <0>         2.6937
     19 O3          7.6671    0.9893    2.9149 O.2       1 <0>        -0.9501
     20 O4          6.5866   -1.0838    3.7742 O.2       1 <0>        -0.9470
     21 C12         7.9151   -1.1862    1.5880 C.ar      1 <0>        -0.6951
     22 C13         7.7683   -2.5606    1.5589 C.ar      1 <0>         0.0065
     23 C14         8.5216   -3.3181    0.6822 C.ar      1 <0>        -0.1659
     24 C15         9.4236   -2.7001   -0.1673 C.ar      1 <0>         0.1667
     25 C16         9.5697   -1.3235   -0.1373 C.ar      1 <0>        -0.1718
     26 C17         8.8115   -0.5676    0.7366 C.ar      1 <0>         0.0177
     27 F1         10.1608   -3.4396   -1.0244 F         1 <0>        -0.1288
     28 H3          1.7560   -0.6113   -2.3401 H         1 <0>         0.0560
     29 H4          0.9492   -1.5633   -3.6093 H         1 <0>         0.0576
     30 H5          0.0663   -1.1286   -2.1261 H         1 <0>         0.0574
     31 H6          1.6060   -2.5446   -0.7946 H         1 <0>         0.0735
     32 H7          0.4207   -3.9736   -3.2174 H         1 <0>         0.0567
     33 H8          0.8510   -4.7387   -1.6689 H         1 <0>         0.0555
     34 H9         -0.4622   -3.5389   -1.7342 H         1 <0>         0.0578
     35 H10         3.1820   -4.0574   -2.0354 H         1 <0>         0.0752
     36 H11         2.8129   -3.1609   -3.5281 H         1 <0>         0.0891
     37 H12         5.2926   -2.4046   -3.8047 H         1 <0>         0.1009
     38 H13         3.8988   -2.8197   -0.0905 H         1 <0>         0.4039
     39 H14         2.5073   -1.2803    1.7060 H         1 <0>         0.0879
     40 H15         3.9335    0.1366    4.0012 H         1 <0>         0.0602
     41 H16         2.2739   -0.5064    4.0189 H         1 <0>         0.0635
     42 H17         3.6585   -1.6196    3.9107 H         1 <0>         0.0655
     43 H18         2.7240    0.9024    0.5842 H         1 <0>         0.0595
     44 H19         1.8361    1.0886    2.1156 H         1 <0>         0.0643
     45 H20         3.5458    1.5731    2.0135 H         1 <0>         0.0608
     46 H21         5.3539    1.1145    1.7336 H         1 <0>         0.4274
     47 H22         7.0650   -3.0425    2.2219 H         1 <0>         0.1468
     48 H23         8.4071   -4.3918    0.6600 H         1 <0>         0.1443
     49 H24        10.2732   -0.8404   -0.7992 H         1 <0>         0.1453
     50 H25         8.9221    0.5065    0.7570 H         1 <0>         0.1489
@<TRIPOS>BOND
     1    1    2 1
     2    1   28 1
     3    1   29 1
     4    1   30 1
     5    2    3 1
     6    2    4 1
     7    2   31 1
     8    3   32 1
     9    3   33 1
    10    3   34 1
    11    4    5 1
    12    4   35 1
    13    4   36 1
    14    5    6 1
    15    5    7 1
    16    5    9 1
    17    7    8 2
    18    7   37 1
    19    9   10 am
    20    9   38 1
    21   10   11 2
    22   10   12 1
    23   12   13 1
    24   12   14 1
    25   12   17 1
    26   14   15 1
    27   14   16 1
    28   14   39 1
    29   15   40 1
    30   15   41 1
    31   15   42 1
    32   16   43 1
    33   16   44 1
    34   16   45 1
    35   17   18 1
    36   17   46 1
    37   18   19 2
    38   18   20 2
    39   18   21 1
    40   21   26 ar
    41   21   22 ar
    42   22   23 ar
    43   22   47 1
    44   23   24 ar
    45   23   48 1
    46   24   25 ar
    47   24   27 1
    48   25   26 ar
    49   25   49 1
    50   26   50 1
@<TRIPOS>MOLECULE
ZINC03813507
   59    61     0     0     0
SMALL
USER_CHARGES
benzyl [1-[[1-formyl-2-(4-hydroxyphenyl)-ethyl]carbamoyl]-2-phenyl-ethyl]aminoformate
@<TRIPOS>ATOM
      1 C1         -4.6442   -0.1623   -1.3844 C.ar      1 <0>        -0.1171
      2 C2         -4.4522    1.0367   -0.7239 C.ar      1 <0>        -0.1141
      3 C3         -3.1929    1.6046   -0.6743 C.ar      1 <0>        -0.1077
      4 C4         -2.1255    0.9734   -1.2852 C.ar      1 <0>        -0.0679
      5 C5         -2.3185   -0.2230   -1.9502 C.ar      1 <0>        -0.1037
      6 C6         -3.5769   -0.7935   -1.9953 C.ar      1 <0>        -0.1121
      7 C7         -0.7527    1.5927   -1.2315 C.3       1 <0>        -0.0892
      8 C8         -0.0127    1.0858    0.0080 C.3       1 <0>         0.1577
      9 H1          0.0021   -0.0041    0.0020 H         1 <0>         0.1206
     10 C9          1.4011    1.6074   -0.0027 C.2       1 <0>         0.5223
     11 O1          1.7969    2.3051    0.9069 O.2       1 <0>        -0.5264
     12 N1          2.2256    1.2986   -1.0231 N.am      1 <0>        -0.7086
     13 C10         3.6000    1.8057   -1.0335 C.3       1 <0>         0.0957
     14 H2          3.9501    1.8389   -0.0974 H         1 <0>         0.1108
     15 C11         4.4795    0.8781   -1.8743 C.3       1 <0>        -0.0817
     16 C12         4.5585   -0.4742   -1.2139 C.ar      1 <0>        -0.0977
     17 C13         5.5623   -0.7387   -0.3006 C.ar      1 <0>        -0.0947
     18 C14         5.6335   -1.9756    0.3104 C.ar      1 <0>        -0.1419
     19 C15         4.7034   -2.9566   -0.0016 C.ar      1 <0>         0.1076
     20 C16         3.7006   -2.6906   -0.9226 C.ar      1 <0>        -0.1418
     21 C17         3.6304   -1.4502   -1.5266 C.ar      1 <0>        -0.0954
     22 O2          4.7744   -4.1760    0.5942 O.3       1 <0>        -0.4996
     23 C18         3.6199    3.1909   -1.6267 C.2       1 <0>         0.3279
     24 O3          2.5921    3.7018   -2.0021 O.2       1 <0>        -0.4381
     25 N2         -0.6984    1.5583    1.2133 N.am      1 <0>        -0.6956
     26 C19        -1.7412    0.8645    1.7111 C.2       1 <0>         0.6520
     27 O4         -2.1126   -0.1528    1.1601 O.2       1 <0>        -0.5516
     28 O5         -2.3714    1.2987    2.8188 O.3       1 <0>        -0.3635
     29 C20        -3.4862    0.5014    3.2983 C.3       1 <0>         0.1336
     30 C21        -4.0624    1.1374    4.5371 C.ar      1 <0>        -0.1008
     31 C22        -3.5805    0.7839    5.7836 C.ar      1 <0>        -0.0932
     32 C23        -4.1058    1.3708    6.9196 C.ar      1 <0>        -0.1232
     33 C24        -5.1198    2.3038    6.8098 C.ar      1 <0>        -0.1074
     34 C25        -5.6056    2.6531    5.5636 C.ar      1 <0>        -0.1237
     35 C26        -5.0768    2.0701    4.4273 C.ar      1 <0>        -0.0928
     36 H3         -5.6282   -0.6058   -1.4235 H         1 <0>         0.1167
     37 H4         -5.2862    1.5300   -0.2469 H         1 <0>         0.1148
     38 H5         -3.0430    2.5415   -0.1585 H         1 <0>         0.1107
     39 H6         -1.4855   -0.7140   -2.4313 H         1 <0>         0.1157
     40 H7         -3.7269   -1.7301   -2.5117 H         1 <0>         0.1177
     41 H8         -0.8452    2.6775   -1.1811 H         1 <0>         0.0855
     42 H9         -0.1944    1.3168   -2.1261 H         1 <0>         0.0886
     43 H10         1.9090    0.7406   -1.7506 H         1 <0>         0.4051
     44 H11         4.0479    0.7718   -2.8696 H         1 <0>         0.0879
     45 H12         5.4805    1.3017   -1.9557 H         1 <0>         0.1027
     46 H13         6.2887    0.0239   -0.0613 H         1 <0>         0.1295
     47 H14         6.4151   -2.1803    1.0270 H         1 <0>         0.1301
     48 H15         2.9752   -3.4526   -1.1669 H         1 <0>         0.1301
     49 H16         2.8497   -1.2425   -2.2434 H         1 <0>         0.1243
     50 H17         5.3170   -4.8170    0.1149 H         1 <0>         0.3925
     51 H18         4.5534    3.7266   -1.7162 H         1 <0>         0.1090
     52 H19        -0.4019    2.3704    1.6532 H         1 <0>         0.4152
     53 H20        -4.2538    0.4487    2.5263 H         1 <0>         0.0806
     54 H21        -3.1386   -0.5043    3.5343 H         1 <0>         0.0790
     55 H22        -2.7911    0.0519    5.8696 H         1 <0>         0.1244
     56 H23        -3.7265    1.0976    7.8932 H         1 <0>         0.1261
     57 H24        -5.5328    2.7596    7.6975 H         1 <0>         0.1250
     58 H25        -6.3981    3.3818    5.4778 H         1 <0>         0.1260
     59 H26        -5.4563    2.3430    3.4537 H         1 <0>         0.1241
@<TRIPOS>BOND
     1    1    6 ar
     2    1    2 ar
     3    1   36 1
     4    2    3 ar
     5    2   37 1
     6    3    4 ar
     7    3   38 1
     8    4    5 ar
     9    4    7 1
    10    5    6 ar
    11    5   39 1
    12    6   40 1
    13    7    8 1
    14    7   41 1
    15    7   42 1
    16    8    9 1
    17    8   10 1
    18    8   25 1
    19   10   11 2
    20   10   12 am
    21   12   13 1
    22   12   43 1
    23   13   14 1
    24   13   15 1
    25   13   23 1
    26   15   16 1
    27   15   44 1
    28   15   45 1
    29   16   21 ar
    30   16   17 ar
    31   17   18 ar
    32   17   46 1
    33   18   19 ar
    34   18   47 1
    35   19   20 ar
    36   19   22 1
    37   20   21 ar
    38   20   48 1
    39   21   49 1
    40   22   50 1
    41   23   24 2
    42   23   51 1
    43   25   26 am
    44   25   52 1
    45   26   27 2
    46   26   28 1
    47   28   29 1
    48   29   30 1
    49   29   53 1
    50   29   54 1
    51   30   35 ar
    52   30   31 ar
    53   31   32 ar
    54   31   55 1
    55   32   33 ar
    56   32   56 1
    57   33   34 ar
    58   33   57 1
    59   34   35 ar
    60   34   58 1
    61   35   59 1
@<TRIPOS>MOLECULE
ZINC04095645
   52    52     0     0     0
SMALL
USER_CHARGES

@<TRIPOS>ATOM
      1 C1         -0.7138   -2.5640   -0.4210 C.3       1 <0>        -0.1550
      2 C2         -1.5731   -1.7628    0.5591 C.3       1 <0>        -0.1020
      3 C3         -1.0752   -2.0006    1.9862 C.3       1 <0>        -0.1465
      4 C4         -1.4727   -0.2730    0.2255 C.3       1 <0>        -0.1272
      5 C5         -2.1217   -0.0102   -1.1349 C.3       1 <0>         0.1280
      6 H1         -1.6692   -0.6591   -1.8847 H         1 <0>         0.1152
      7 C6         -3.5991   -0.2948   -1.0500 C.2       1 <0>         0.5162
      8 O1         -4.3871    0.6198   -0.9329 O.2       1 <0>        -0.5177
      9 N1         -4.0448   -1.5655   -1.1042 N.am      1 <0>        -0.7340
     10 C7         -5.4844   -1.8364   -1.1291 C.3       1 <0>         0.1167
     11 C8         -5.7180   -3.3472   -1.1906 C.3       1 <0>        -0.1305
     12 C9         -7.2214   -3.6302   -1.2165 C.3       1 <0>        -0.1313
     13 C10        -7.4550   -5.1410   -1.2780 C.3       1 <0>         0.0931
     14 N2         -8.8945   -5.4119   -1.3029 N.pl3     1 <0>        -0.6928
     15 C11        -9.3469   -6.7016   -1.3579 C.cat     1 <0>         0.7409
     16 N3        -10.6557   -6.9479   -1.3805 N.pl3     1 <0>        -0.7959
     17 N4         -8.4786   -7.7112   -1.3889 N.pl3     1 <0>        -0.7940
     18 N5         -1.9150    1.3902   -1.5121 N.am      1 <0>        -0.7100
     19 C12        -0.8081    1.7485   -2.1925 C.2       1 <0>         0.5464
     20 O2         -0.0284    0.9005   -2.5718 O.2       1 <0>        -0.5314
     21 C13        -0.5393    3.2028   -2.4820 C.3       1 <0>        -0.0416
     22 H2         -1.0786    3.6237   -3.3306 H         1 <0>         0.1494
     23 C14        -0.2465    4.1236   -1.2957 C.3       1 <0>        -0.0276
     24 H3         -0.2465    3.6830   -0.2987 H         1 <0>         0.1137
     25 O3          0.7708    3.7047   -2.2104 O.3       1 <0>        -0.3182
     26 C15        -0.7234    5.5507   -1.3799 C.2       1 <0>         0.5091
     27 O4         -1.9177    5.7932   -1.4162 O.co2     1 <0>        -0.6728
     28 O5          0.0851    6.4627   -1.4118 O.co2     1 <0>        -0.6670
     29 H4         -0.7071   -3.6130   -0.1249 H         1 <0>         0.0565
     30 H5         -1.1272   -2.4726   -1.4254 H         1 <0>         0.0534
     31 H6          0.3052   -2.1772   -0.4109 H         1 <0>         0.0656
     32 H7         -2.6116   -2.0841    0.4784 H         1 <0>         0.0707
     33 H8         -0.0367   -1.6793    2.0669 H         1 <0>         0.0600
     34 H9         -1.6874   -1.4298    2.6844 H         1 <0>         0.0559
     35 H10        -1.1467   -3.0619    2.2239 H         1 <0>         0.0551
     36 H11        -1.9877    0.3064    0.9918 H         1 <0>         0.0766
     37 H12        -0.4239    0.0216    0.1907 H         1 <0>         0.0871
     38 H13        -3.4125   -2.3007   -1.1268 H         1 <0>         0.4033
     39 H14        -5.9455   -1.4339   -0.2271 H         1 <0>         0.0730
     40 H15        -5.9279   -1.3642   -2.0057 H         1 <0>         0.0716
     41 H16        -5.2569   -3.7498   -2.0925 H         1 <0>         0.0792
     42 H17        -5.2745   -3.8195   -0.3140 H         1 <0>         0.0792
     43 H18        -7.6825   -3.2276   -0.3146 H         1 <0>         0.0868
     44 H19        -7.6649   -3.1580   -2.0931 H         1 <0>         0.0868
     45 H20        -6.9939   -5.5435   -2.1800 H         1 <0>         0.0938
     46 H21        -7.0115   -5.6132   -0.4014 H         1 <0>         0.0938
     47 H22        -9.5269   -4.6767   -1.2803 H         1 <0>         0.4368
     48 H23       -11.2880   -6.2127   -1.3580 H         1 <0>         0.4411
     49 H24        -7.5255   -7.5318   -1.3724 H         1 <0>         0.4401
     50 H25        -8.7994   -8.6258   -1.4279 H         1 <0>         0.4400
     51 H26        -2.5747    2.0596   -1.2722 H         1 <0>         0.4200
     52 H27       -10.9765   -7.8625   -1.4195 H         1 <0>         0.4403
@<TRIPOS>BOND
     1    1    2 1
     2    1   29 1
     3    1   30 1
     4    1   31 1
     5    2    3 1
     6    2    4 1
     7    2   32 1
     8    3   33 1
     9    3   34 1
    10    3   35 1
    11    4    5 1
    12    4   36 1
    13    4   37 1
    14    5    6 1
    15    5    7 1
    16    5   18 1
    17    7    8 2
    18    7    9 am
    19    9   10 1
    20    9   38 1
    21   10   11 1
    22   10   39 1
    23   10   40 1
    24   11   12 1
    25   11   41 1
    26   11   42 1
    27   12   13 1
    28   12   43 1
    29   12   44 1
    30   13   14 1
    31   13   45 1
    32   13   46 1
    33   14   15 1
    34   14   47 1
    35   15   16 2
    36   15   17 1
    37   16   48 1
    38   16   52 1
    39   17   49 1
    40   17   50 1
    41   18   19 am
    42   18   51 1
    43   19   20 2
    44   19   21 1
    45   21   22 1
    46   21   25 1
    47   21   23 1
    48   23   24 1
    49   23   25 1
    50   23   26 1
    51   26   27 2
    52   26   28 1
@<TRIPOS>MOLECULE
ZINC04475165
   52    52     0     0     0
SMALL
USER_CHARGES

@<TRIPOS>ATOM
      1 C1         -0.7600   -2.5948   -0.4137 C.3       1 <0>        -0.1547
      2 C2         -1.6080   -1.7789    0.5642 C.3       1 <0>        -0.1033
      3 C3         -1.1153   -2.0220    1.9922 C.3       1 <0>        -0.1443
      4 C4         -1.4843   -0.2914    0.2283 C.3       1 <0>        -0.1230
      5 C5         -2.1282   -0.0207   -1.1330 C.3       1 <0>         0.1313
      6 H1         -1.6851   -0.6777   -1.8815 H         1 <0>         0.1086
      7 C6         -3.6099   -0.2824   -1.0488 C.2       1 <0>         0.5152
      8 O1         -4.3837    0.6443   -0.9325 O.2       1 <0>        -0.4988
      9 N1         -4.0752   -1.5461   -1.1028 N.am      1 <0>        -0.7389
     10 C7         -5.5187   -1.7948   -1.1283 C.3       1 <0>         0.1185
     11 C8         -5.7756   -3.3018   -1.1894 C.3       1 <0>        -0.1294
     12 C9         -7.2832   -3.5615   -1.2160 C.3       1 <0>        -0.1314
     13 C10        -7.5401   -5.0685   -1.2771 C.3       1 <0>         0.0930
     14 N2         -8.9836   -5.3171   -1.3026 N.pl3     1 <0>        -0.6914
     15 C11        -9.4558   -6.5998   -1.3574 C.cat     1 <0>         0.7403
     16 N3        -10.7683   -6.8258   -1.3806 N.pl3     1 <0>        -0.7969
     17 N4         -8.6032   -7.6226   -1.3874 N.pl3     1 <0>        -0.7943
     18 N5         -1.8996    1.3758   -1.5123 N.am      1 <0>        -0.6857
     19 C12        -0.7853    1.7164   -2.1895 C.2       1 <0>         0.5493
     20 O2         -0.0162    0.8565   -2.5634 O.2       1 <0>        -0.5428
     21 C13        -0.4950    3.1660   -2.4823 C.3       1 <0>        -0.0439
     22 H2         -0.0537    3.7346   -1.6637 H         1 <0>         0.1435
     23 C14        -1.4374    3.9033   -3.4358 C.3       1 <0>        -0.0395
     24 H3         -1.6209    4.9617   -3.2508 H         1 <0>         0.1207
     25 O3         -0.1143    3.5128   -3.8152 O.3       1 <0>        -0.3217
     26 C15        -2.5934    3.1310   -4.0173 C.2       1 <0>         0.5042
     27 O4         -3.4773    2.7151   -3.2876 O.co2     1 <0>        -0.6593
     28 O5         -2.6449    2.9221   -5.2173 O.co2     1 <0>        -0.6715
     29 H4         -0.7698   -3.6433   -0.1159 H         1 <0>         0.0548
     30 H5         -1.1709   -2.4987   -1.4187 H         1 <0>         0.0557
     31 H6          0.2648   -2.2237   -0.4031 H         1 <0>         0.0638
     32 H7         -2.6512   -2.0843    0.4828 H         1 <0>         0.0725
     33 H8         -0.0721   -1.7166    2.0735 H         1 <0>         0.0579
     34 H9         -1.7194   -1.4407    2.6888 H         1 <0>         0.0543
     35 H10        -1.2034   -3.0817    2.2315 H         1 <0>         0.0537
     36 H11        -1.9908    0.2972    0.9932 H         1 <0>         0.0726
     37 H12        -0.4310   -0.0130    0.1938 H         1 <0>         0.0828
     38 H13        -3.4542   -2.2910   -1.1247 H         1 <0>         0.3993
     39 H14        -5.9740   -1.3848   -0.2268 H         1 <0>         0.0696
     40 H15        -5.9543   -1.3161   -2.0054 H         1 <0>         0.0719
     41 H16        -5.3203   -3.7118   -2.0909 H         1 <0>         0.0788
     42 H17        -5.3399   -3.7805   -0.3123 H         1 <0>         0.0771
     43 H18        -7.7385   -3.1515   -0.3146 H         1 <0>         0.0858
     44 H19        -7.7188   -3.0828   -2.0931 H         1 <0>         0.0875
     45 H20        -7.0848   -5.4785   -2.1786 H         1 <0>         0.0942
     46 H21        -7.1044   -5.5472   -0.4000 H         1 <0>         0.0933
     47 H22        -9.6045   -4.5722   -1.2807 H         1 <0>         0.4369
     48 H23       -11.3892   -6.0809   -1.3587 H         1 <0>         0.4409
     49 H24        -7.6475   -7.4580   -1.3705 H         1 <0>         0.4403
     50 H25        -8.9381   -8.5322   -1.4263 H         1 <0>         0.4394
     51 H26        -2.5503    2.0552   -1.2760 H         1 <0>         0.4236
     52 H27       -11.1031   -7.7354   -1.4194 H         1 <0>         0.4397
@<TRIPOS>BOND
     1    1    2 1
     2    1   29 1
     3    1   30 1
     4    1   31 1
     5    2    3 1
     6    2    4 1
     7    2   32 1
     8    3   33 1
     9    3   34 1
    10    3   35 1
    11    4    5 1
    12    4   36 1
    13    4   37 1
    14    5    6 1
    15    5    7 1
    16    5   18 1
    17    7    8 2
    18    7    9 am
    19    9   10 1
    20    9   38 1
    21   10   11 1
    22   10   39 1
    23   10   40 1
    24   11   12 1
    25   11   41 1
    26   11   42 1
    27   12   13 1
    28   12   43 1
    29   12   44 1
    30   13   14 1
    31   13   45 1
    32   13   46 1
    33   14   15 1
    34   14   47 1
    35   15   16 2
    36   15   17 1
    37   16   48 1
    38   16   52 1
    39   17   49 1
    40   17   50 1
    41   18   19 am
    42   18   51 1
    43   19   20 2
    44   19   21 1
    45   21   22 1
    46   21   25 1
    47   21   23 1
    48   23   24 1
    49   23   25 1
    50   23   26 1
    51   26   27 2
    52   26   28 1
@<TRIPOS>MOLECULE
ZINC00266941
   28    29     0     0     0
SMALL
USER_CHARGES
2-chloro-5-(2,5-dimethylpyrrol-1-yl)benzoic acid
@<TRIPOS>ATOM
      1 C1         -3.2261   -2.0529   -2.2737 C.3       1 <0>        -0.0898
      2 C2         -3.3061   -2.8296   -0.9847 C.2       1 <0>         0.0265
      3 C3         -4.3131   -3.6470   -0.6152 C.2       1 <0>        -0.2005
      4 C4         -3.9934   -4.1639    0.6563 C.2       1 <0>        -0.1981
      5 C5         -2.8000   -3.6481    1.0146 C.2       1 <0>         0.0177
      6 N1         -2.3699   -2.8300    0.0093 N.pl3     1 <0>        -0.3923
      7 C6         -1.1687   -2.1057    0.0018 C.ar      1 <0>         0.0922
      8 C7          0.0476   -2.7782   -0.0134 C.ar      1 <0>        -0.1042
      9 C8          1.2344   -2.0707   -0.0209 C.ar      1 <0>        -0.1201
     10 C9          1.2202   -0.6891   -0.0133 C.ar      1 <0>        -0.0002
     11 C10         0.0021   -0.0041    0.0020 C.ar      1 <0>        -0.0957
     12 C11        -1.1956   -0.7212    0.0154 C.ar      1 <0>        -0.0552
     13 C12        -0.0179    1.4723    0.0101 C.2       1 <0>         0.4858
     14 O1          1.0257    2.0940    0.0035 O.co2     1 <0>        -0.5999
     15 Cl1         2.7141    0.1952   -0.0222 Cl        1 <0>        -0.0370
     16 C13        -2.0679   -3.9261    2.3021 C.3       1 <0>        -0.0850
     17 H1         -2.7311   -2.6587   -3.0328 H         1 <0>         0.0675
     18 H2         -4.2321   -1.8009   -2.6091 H         1 <0>         0.0788
     19 H3         -2.6571   -1.1375   -2.1115 H         1 <0>         0.0700
     20 H4         -5.2036   -3.8626   -1.1871 H         1 <0>         0.1346
     21 H5         -4.5943   -4.8477    1.2375 H         1 <0>         0.1340
     22 H6          0.0651   -3.8580   -0.0198 H         1 <0>         0.1299
     23 H7          2.1761   -2.5993   -0.0324 H         1 <0>         0.1362
     24 H8         -2.1402   -0.1979    0.0318 H         1 <0>         0.1441
     25 H9         -2.3684   -3.1980    3.0555 H         1 <0>         0.0695
     26 H10        -2.3119   -4.9301    2.6494 H         1 <0>         0.0764
     27 H11        -0.9937   -3.8513    2.1327 H         1 <0>         0.0638
     28 O2         -1.1937    2.1300    0.0193 O.co2     1 <0>        -0.7489
@<TRIPOS>BOND
     1    1    2 1
     2    1   17 1
     3    1   18 1
     4    1   19 1
     5    2    6 1
     6    2    3 2
     7    3    4 1
     8    3   20 1
     9    4    5 2
    10    4   21 1
    11    5    6 1
    12    5   16 1
    13    6    7 1
    14    7   12 ar
    15    7    8 ar
    16    8    9 ar
    17    8   22 1
    18    9   10 ar
    19    9   23 1
    20   10   11 ar
    21   10   15 1
    22   11   12 ar
    23   11   13 1
    24   12   24 1
    25   13   14 2
    26   13   28 1
    27   16   25 1
    28   16   26 1
    29   16   27 1
@<TRIPOS>MOLECULE
ZINC00671822
   43    45     0     0     0
SMALL
USER_CHARGES

@<TRIPOS>ATOM
      1 C1          0.3068   -0.0945   -1.2529 C.3       1 <0>        -0.1456
      2 C2          0.0636   -1.5965   -1.4132 C.3       1 <0>        -0.0023
      3 C3         -1.4035   -1.8899   -1.2325 C.2       1 <0>        -0.0333
      4 N1         -2.3745   -1.9308   -2.1220 N.2       1 <0>        -0.2320
      5 N2         -3.5661   -2.1955   -1.8046 N.2       1 <0>        -0.4364
      6 C4         -3.9157   -2.4498   -0.5506 C.2       1 <0>         0.4265
      7 S1         -2.3226   -2.2901    0.2511 S.3       1 <0>        -0.1394
      8 N3         -5.1577   -2.7565   -0.0149 N.2       1 <0>        -1.0172
      9 S2         -6.4851   -2.8474   -1.0009 S.o2      1 <0>         2.6405
     10 O1         -6.7158   -1.5347   -1.4936 O.2       1 <0>        -1.0029
     11 O2         -6.2762   -3.9585   -1.8618 O.2       1 <0>        -1.0018
     12 C5         -7.8643   -3.2524    0.0182 C.ar      1 <0>        -0.6389
     13 C6         -8.1894   -4.5772    0.2448 C.ar      1 <0>         0.0008
     14 C7         -9.2698   -4.8979    1.0431 C.ar      1 <0>        -0.1435
     15 C8        -10.0297   -3.8882    1.6189 C.ar      1 <0>         0.1975
     16 C9         -9.7004   -2.5588    1.3899 C.ar      1 <0>        -0.1683
     17 C10        -8.6158   -2.2447    0.5944 C.ar      1 <0>         0.0003
     18 N4        -11.1253   -4.2098    2.4279 N.am      1 <0>        -0.6789
     19 C11       -11.0978   -5.3221    3.1886 C.2       1 <0>         0.7026
     20 O3        -10.0869   -5.9953    3.2449 O.2       1 <0>        -0.5437
     21 N5        -12.1909   -5.6880    3.8870 N.am      1 <0>        -0.6823
     22 C12       -12.1301   -6.7801    4.7606 C.ar      1 <0>         0.1720
     23 C13       -10.9544   -7.0590    5.4447 C.ar      1 <0>        -0.1081
     24 C14       -10.8972   -8.1368    6.3064 C.ar      1 <0>        -0.0867
     25 C15       -12.0103   -8.9385    6.4884 C.ar      1 <0>        -0.0526
     26 C16       -13.1833   -8.6628    5.8078 C.ar      1 <0>        -0.0894
     27 C17       -13.2473   -7.5831    4.9490 C.ar      1 <0>        -0.1360
     28 Cl1       -11.9350  -10.2928    7.5718 Cl        1 <0>        -0.0723
     29 H1          1.3679    0.1178   -1.3836 H         1 <0>         0.0575
     30 H2         -0.2675    0.4487   -2.0034 H         1 <0>         0.0583
     31 H3         -0.0068    0.2202   -0.2575 H         1 <0>         0.0549
     32 H4          0.3771   -1.9111   -2.4086 H         1 <0>         0.0856
     33 H5          0.6379   -2.1397   -0.6628 H         1 <0>         0.0770
     34 H6         -7.5980   -5.3620   -0.2033 H         1 <0>         0.1427
     35 H7         -9.5236   -5.9328    1.2191 H         1 <0>         0.1412
     36 H8        -10.2894   -1.7713    1.8363 H         1 <0>         0.1319
     37 H9         -8.3569   -1.2110    0.4189 H         1 <0>         0.1439
     38 H10       -11.9045   -3.6323    2.4412 H         1 <0>         0.4098
     39 H11       -13.0197   -5.1946    3.7842 H         1 <0>         0.4103
     40 H12       -10.0853   -6.4338    5.3028 H         1 <0>         0.1476
     41 H13        -9.9828   -8.3543    6.8385 H         1 <0>         0.1381
     42 H14       -14.0505   -9.2903    5.9513 H         1 <0>         0.1373
     43 H15       -14.1642   -7.3659    4.4212 H         1 <0>         0.1353
@<TRIPOS>BOND
     1    1    2 1
     2    1   29 1
     3    1   30 1
     4    1   31 1
     5    2    3 1
     6    2   32 1
     7    2   33 1
     8    3    7 1
     9    3    4 2
    10    4    5 1
    11    5    6 2
    12    6    7 1
    13    6    8 1
    14    8    9 1
    15    9   10 2
    16    9   11 2
    17    9   12 1
    18   12   17 ar
    19   12   13 ar
    20   13   14 ar
    21   13   34 1
    22   14   15 ar
    23   14   35 1
    24   15   16 ar
    25   15   18 1
    26   16   17 ar
    27   16   36 1
    28   17   37 1
    29   18   19 am
    30   18   38 1
    31   19   20 2
    32   19   21 am
    33   21   22 1
    34   21   39 1
    35   22   27 ar
    36   22   23 ar
    37   23   24 ar
    38   23   40 1
    39   24   25 ar
    40   24   41 1
    41   25   26 ar
    42   25   28 1
    43   26   27 ar
    44   26   42 1
    45   27   43 1
@<TRIPOS>MOLECULE
ZINC14210455
   82    84     0     0     0
SMALL
USER_CHARGES
(1S,4S,5R)-N-[(1S)-3-amino-1-(cyclobutylmethyl)-2,3-dioxo-propyl]-3-[(2S)-2-(tert-butylcarbamoylamino)-3,3-dimethyl-butanoyl]-6,6-dimethyl-3-azabicyclo[3.1.0]hexane-4-carboxamide
@<TRIPOS>ATOM
      1 C1          7.5547    3.7597   -5.7148 C.3       1 <0>        -0.1152
      2 C2          6.7695    2.5173   -5.2894 C.3       1 <0>        -0.0741
      3 C3          7.5571    1.3671   -4.6589 C.3       1 <0>        -0.1632
      4 H1          8.6239    1.4864   -4.4697 H         1 <0>         0.1311
      5 C4          6.9948    1.2327   -6.0894 C.3       1 <0>        -0.1680
      6 H2          7.6217    1.2576   -6.9807 H         1 <0>         0.1330
      7 C5          5.9282    0.1204   -5.9955 C.3       1 <0>         0.1486
      8 H3          5.0773    0.3549   -6.6351 H         1 <0>         0.1160
      9 N1          5.5182    0.1148   -4.5719 N.am      1 <0>        -0.5957
     10 C6          6.7800    0.3307   -3.8263 C.3       1 <0>         0.1194
     11 C7          4.2779   -0.0447   -4.0693 C.2       1 <0>         0.5481
     12 O1          3.3273   -0.1336   -4.8173 O.2       1 <0>        -0.5286
     13 C8          4.0721   -0.1127   -2.5780 C.3       1 <0>         0.1656
     14 H4          4.8141    0.5115   -2.0800 H         1 <0>         0.1084
     15 C9          4.2251   -1.5604   -2.1075 C.3       1 <0>        -0.0694
     16 C10         3.2264   -2.4474   -2.8537 C.3       1 <0>        -0.1403
     17 C11         5.6487   -2.0422   -2.3943 C.3       1 <0>        -0.1574
     18 C12         3.9532   -1.6395   -0.6039 C.3       1 <0>        -0.1272
     19 N2          2.7284    0.3687   -2.2480 N.am      1 <0>        -0.7322
     20 C13         2.4755    0.8754   -1.0250 C.2       1 <0>         0.7121
     21 O2          3.3627    0.9332   -0.1956 O.2       1 <0>        -0.5780
     22 N3          1.2393    1.3182   -0.7214 N.am      1 <0>        -0.7387
     23 C14         0.9645    1.8691    0.6079 C.3       1 <0>         0.1880
     24 C15         1.8625    3.0835    0.8524 C.3       1 <0>        -0.1642
     25 C16         1.2467    0.8041    1.6696 C.3       1 <0>        -0.1648
     26 C17        -0.5028    2.2950    0.6902 C.3       1 <0>        -0.1564
     27 C18         6.5198   -1.2120   -6.3772 C.2       1 <0>         0.5210
     28 O3          6.9125   -1.9702   -5.5160 O.2       1 <0>        -0.5174
     29 N4          6.6125   -1.5609   -7.6757 N.am      1 <0>        -0.7115
     30 C19         7.1876   -2.8562   -8.0469 C.3       1 <0>         0.1363
     31 H5          6.9412   -3.5395   -7.3596 H         1 <0>         0.1154
     32 C20         6.6419   -3.2846   -9.4105 C.3       1 <0>        -0.1133
     33 C21         5.1350   -3.5266   -9.3037 C.3       1 <0>        -0.1096
     34 C22         4.7697   -4.9571   -8.8735 C.3       1 <0>        -0.1375
     35 C23         3.6238   -4.8880   -9.8967 C.3       1 <0>        -0.1435
     36 C24         4.4651   -3.8448  -10.6508 C.3       1 <0>        -0.1352
     37 C25         8.6881   -2.7368   -8.1212 C.2       1 <0>         0.3395
     38 O4          9.2060   -1.6464   -8.1588 O.2       1 <0>        -0.4045
     39 C26         9.5331   -3.9648   -8.1483 C.2       1 <0>         0.4836
     40 O5          9.0127   -5.0605   -8.1105 O.2       1 <0>        -0.5030
     41 N5         10.8750   -3.8580   -8.2147 N.am      1 <0>        -0.8271
     42 C27         5.3587    2.7791   -4.7585 C.3       1 <0>        -0.1303
     43 H6          7.3035    4.0133   -6.7447 H         1 <0>         0.0646
     44 H7          7.2968    4.5936   -5.0620 H         1 <0>         0.0667
     45 H8          8.6232    3.5572   -5.6407 H         1 <0>         0.0609
     46 H9          6.5711    0.7236   -2.8312 H         1 <0>         0.0874
     47 H10         7.3449   -0.5990   -3.7579 H         1 <0>         0.1045
     48 H11         3.4201   -2.3911   -3.9248 H         1 <0>         0.0553
     49 H12         3.3354   -3.4789   -2.5185 H         1 <0>         0.0577
     50 H13         2.2123   -2.1042   -2.6493 H         1 <0>         0.0557
     51 H14         6.3625   -1.3722   -1.9151 H         1 <0>         0.0571
     52 H15         5.7770   -3.0508   -2.0015 H         1 <0>         0.0613
     53 H16         5.8207   -2.0468   -3.4706 H         1 <0>         0.0773
     54 H17         2.9390   -1.2963   -0.3995 H         1 <0>         0.0552
     55 H18         4.0622   -2.6709   -0.2687 H         1 <0>         0.0494
     56 H19         4.6646   -1.0076   -0.0723 H         1 <0>         0.0674
     57 H20         2.0206    0.3226   -2.9097 H         1 <0>         0.4036
     58 H21         0.5316    1.2722   -1.3832 H         1 <0>         0.3948
     59 H22         2.9078    2.7801    0.7938 H         1 <0>         0.0809
     60 H23         1.6614    3.8422    0.0961 H         1 <0>         0.0514
     61 H24         1.6580    3.4933    1.8415 H         1 <0>         0.0616
     62 H25         1.0422    1.2140    2.6587 H         1 <0>         0.0615
     63 H26         0.6070   -0.0610    1.4954 H         1 <0>         0.0517
     64 H27         2.2920    0.5008    1.6110 H         1 <0>         0.0817
     65 H28        -0.7038    3.0536   -0.0662 H         1 <0>         0.0615
     66 H29        -1.1425    1.4298    0.5160 H         1 <0>         0.0617
     67 H30        -0.7072    2.7048    1.6793 H         1 <0>         0.0750
     68 H31         6.2984   -0.9545   -8.3646 H         1 <0>         0.4082
     69 H32         6.8328   -2.4988  -10.1414 H         1 <0>         0.0782
     70 H33         7.1359   -4.2032   -9.7272 H         1 <0>         0.0955
     71 H34         4.6215   -2.7530   -8.7327 H         1 <0>         0.0937
     72 H35         5.5322   -5.6956   -9.1211 H         1 <0>         0.0859
     73 H36         4.4291   -5.0289   -7.8406 H         1 <0>         0.0666
     74 H37         2.6963   -4.4876   -9.4872 H         1 <0>         0.0793
     75 H38         3.4761   -5.8141  -10.4521 H         1 <0>         0.0684
     76 H39         3.8786   -3.0186  -11.0528 H         1 <0>         0.0680
     77 H40         5.1443   -4.2792  -11.3844 H         1 <0>         0.0824
     78 H41        11.2910   -2.9823   -8.2450 H         1 <0>         0.4112
     79 H42        11.4248   -4.6570   -8.2324 H         1 <0>         0.4115
     80 H43         5.0653    1.9686   -4.0914 H         1 <0>         0.0673
     81 H44         5.3453    3.7222   -4.2122 H         1 <0>         0.0592
     82 H45         4.6604    2.8330   -5.5937 H         1 <0>         0.0591
@<TRIPOS>BOND
     1    1    2 1
     2    1   43 1
     3    1   44 1
     4    1   45 1
     5    2    5 1
     6    2    3 1
     7    2   42 1
     8    3    4 1
     9    3   10 1
    10    3    5 1
    11    5    6 1
    12    5    7 1
    13    7    8 1
    14    7    9 1
    15    7   27 1
    16    9   10 1
    17    9   11 am
    18   10   46 1
    19   10   47 1
    20   11   12 2
    21   11   13 1
    22   13   14 1
    23   13   15 1
    24   13   19 1
    25   15   16 1
    26   15   17 1
    27   15   18 1
    28   16   48 1
    29   16   49 1
    30   16   50 1
    31   17   51 1
    32   17   52 1
    33   17   53 1
    34   18   54 1
    35   18   55 1
    36   18   56 1
    37   19   20 am
    38   19   57 1
    39   20   21 2
    40   20   22 am
    41   22   23 1
    42   22   58 1
    43   23   24 1
    44   23   25 1
    45   23   26 1
    46   24   59 1
    47   24   60 1
    48   24   61 1
    49   25   62 1
    50   25   63 1
    51   25   64 1
    52   26   65 1
    53   26   66 1
    54   26   67 1
    55   27   28 2
    56   27   29 am
    57   29   30 1
    58   29   68 1
    59   30   31 1
    60   30   32 1
    61   30   37 1
    62   32   33 1
    63   32   69 1
    64   32   70 1
    65   33   36 1
    66   33   34 1
    67   33   71 1
    68   34   35 1
    69   34   72 1
    70   34   73 1
    71   35   36 1
    72   35   74 1
    73   35   75 1
    74   36   76 1
    75   36   77 1
    76   37   38 2
    77   37   39 1
    78   39   40 2
    79   39   41 am
    80   41   78 1
    81   41   79 1
    82   42   80 1
    83   42   81 1
    84   42   82 1
@<TRIPOS>MOLECULE
ZINC14210457
   82    84     0     0     0
SMALL
USER_CHARGES
(1S,4S,5R)-N-[(1R)-3-amino-1-(cyclobutylmethyl)-2,3-dioxo-propyl]-3-[(2S)-2-(tert-butylcarbamoylamino)-3,3-dimethyl-butanoyl]-6,6-dimethyl-3-azabicyclo[3.1.0]hexane-4-carboxamide
@<TRIPOS>ATOM
      1 C1         -5.0761   -0.5653    0.0539 C.3       1 <0>        -0.1271
      2 C2         -4.3227   -0.4623   -1.2738 C.3       1 <0>        -0.0702
      3 C3         -4.0050    0.9399   -1.7972 C.3       1 <0>        -0.1607
      4 H1         -4.1151    1.1544   -2.8603 H         1 <0>         0.1296
      5 C4         -2.8446    0.0732   -1.2569 C.3       1 <0>        -0.1739
      6 H2         -2.0905   -0.3569   -1.9161 H         1 <0>         0.1336
      7 C5         -2.3530    0.8142    0.0052 C.3       1 <0>         0.1486
      8 H3         -2.0697    0.1006    0.7788 H         1 <0>         0.1160
      9 N1         -3.5159    1.6193    0.4459 N.am      1 <0>        -0.5961
     10 C6         -4.1100    2.1250   -0.8134 C.3       1 <0>         0.1165
     11 C7         -3.9377    1.8412    1.7066 C.2       1 <0>         0.5468
     12 O1         -3.3808    1.2977    2.6369 O.2       1 <0>        -0.5274
     13 C8         -5.1013    2.7646    1.9603 C.3       1 <0>         0.1659
     14 H4         -5.8084    2.6936    1.1339 H         1 <0>         0.1087
     15 C9         -4.5946    4.2037    2.0757 C.3       1 <0>        -0.0695
     16 C10        -3.9376    4.6202    0.7583 C.3       1 <0>        -0.1606
     17 C11        -5.7701    5.1357    2.3765 C.3       1 <0>        -0.1269
     18 C12        -3.5695    4.2942    3.2079 C.3       1 <0>        -0.1402
     19 N2         -5.7672    2.3799    3.2072 N.am      1 <0>        -0.7321
     20 C13        -7.0659    2.6849    3.3995 C.2       1 <0>         0.7121
     21 O2         -7.6848    3.2793    2.5381 O.2       1 <0>        -0.5780
     22 N3         -7.6785    2.3309    4.5466 N.am      1 <0>        -0.7387
     23 C14        -9.0901    2.6624    4.7556 C.3       1 <0>         0.1881
     24 C15        -9.9361    2.0013    3.6656 C.3       1 <0>        -0.1642
     25 C16        -9.5362    2.1519    6.1272 C.3       1 <0>        -0.1564
     26 C17        -9.2724    4.1802    4.6923 C.3       1 <0>        -0.1647
     27 C18        -1.1901    1.7116   -0.3318 C.2       1 <0>         0.5196
     28 O3         -1.3728    2.8954   -0.5219 O.2       1 <0>        -0.5184
     29 N4          0.0529    1.1985   -0.4219 N.am      1 <0>        -0.7090
     30 C19         1.1825    2.0698   -0.7554 C.3       1 <0>         0.1367
     31 H5          0.8808    2.7764   -1.3954 H         1 <0>         0.1154
     32 C20         2.2944    1.2392   -1.3995 C.3       1 <0>        -0.1135
     33 C21         1.8045    0.6816   -2.7374 C.3       1 <0>        -0.1057
     34 C22         1.0386   -0.6457   -2.6082 C.3       1 <0>        -0.1394
     35 C23         1.7713   -1.0999   -3.8837 C.3       1 <0>        -0.1419
     36 C24         2.8796   -0.1018   -3.5090 C.3       1 <0>        -0.1367
     37 C25         1.7040    2.7191    0.5006 C.2       1 <0>         0.3364
     38 O4          1.4546    2.2354    1.5788 O.2       1 <0>        -0.4020
     39 C26         2.5277    3.9587    0.4121 C.2       1 <0>         0.4842
     40 O5          2.7782    4.4448   -0.6713 O.2       1 <0>        -0.5042
     41 N5          2.9940    4.5395    1.5354 N.am      1 <0>        -0.8271
     42 C27        -4.6554   -1.5416   -2.3059 C.3       1 <0>        -0.1159
     43 H6         -6.0794   -0.9511   -0.1267 H         1 <0>         0.0612
     44 H7         -4.5423   -1.2401    0.7231 H         1 <0>         0.0597
     45 H8         -5.1432    0.4219    0.5111 H         1 <0>         0.0648
     46 H9         -5.1536    2.3989   -0.6582 H         1 <0>         0.0871
     47 H10        -3.5445    2.9801   -1.1839 H         1 <0>         0.1057
     48 H11        -4.6771    4.5905   -0.0419 H         1 <0>         0.0579
     49 H12        -3.5447    5.6326    0.8524 H         1 <0>         0.0604
     50 H13        -3.1229    3.9344    0.5258 H         1 <0>         0.0800
     51 H14        -6.2382    4.8389    3.3150 H         1 <0>         0.0557
     52 H15        -5.4092    6.1609    2.4587 H         1 <0>         0.0491
     53 H16        -6.5005    5.0712    1.5699 H         1 <0>         0.0671
     54 H17        -2.7320    3.6302    2.9936 H         1 <0>         0.0546
     55 H18        -3.2085    5.3194    3.2901 H         1 <0>         0.0569
     56 H19        -4.0375    3.9974    4.1465 H         1 <0>         0.0560
     57 H20        -5.2735    1.9057    3.8944 H         1 <0>         0.4037
     58 H21        -7.1848    1.8567    5.2338 H         1 <0>         0.3948
     59 H22        -9.8062    0.9200    3.7106 H         1 <0>         0.0514
     60 H23       -10.9863    2.2479    3.8211 H         1 <0>         0.0616
     61 H24        -9.6183    2.3650    2.6884 H         1 <0>         0.0809
     62 H25        -8.9335    2.6229    6.9038 H         1 <0>         0.0616
     63 H26       -10.5865    2.3986    6.2828 H         1 <0>         0.0750
     64 H27        -9.4064    1.0706    6.1723 H         1 <0>         0.0616
     65 H28        -8.9546    4.5439    3.7152 H         1 <0>         0.0818
     66 H29       -10.3226    4.4268    4.8479 H         1 <0>         0.0615
     67 H30        -8.6697    4.6512    5.4689 H         1 <0>         0.0516
     68 H31         0.1991    0.2517   -0.2698 H         1 <0>         0.4078
     69 H32         3.1681    1.8691   -1.5665 H         1 <0>         0.0945
     70 H33         2.5617    0.4149   -0.7383 H         1 <0>         0.0784
     71 H34         1.2882    1.4265   -3.3429 H         1 <0>         0.0962
     72 H35         1.3075   -1.2205   -1.7220 H         1 <0>         0.0807
     73 H36        -0.0389   -0.5422   -2.7360 H         1 <0>         0.0673
     74 H37         1.2450   -0.8431   -4.8030 H         1 <0>         0.0802
     75 H38         2.0940   -2.1408   -3.8574 H         1 <0>         0.0682
     76 H39         3.2862    0.4400   -4.3629 H         1 <0>         0.0697
     77 H40         3.6528   -0.5277   -2.8695 H         1 <0>         0.0819
     78 H41         2.7938    4.1510    2.4013 H         1 <0>         0.4113
     79 H42         3.5299    5.3459    1.4779 H         1 <0>         0.4114
     80 H43        -4.4625   -1.1581   -3.3078 H         1 <0>         0.0610
     81 H44        -4.0343   -2.4192   -2.1269 H         1 <0>         0.0652
     82 H45        -5.7066   -1.8164   -2.2182 H         1 <0>         0.0669
@<TRIPOS>BOND
     1    1    2 1
     2    1   43 1
     3    1   44 1
     4    1   45 1
     5    2    5 1
     6    2    3 1
     7    2   42 1
     8    3    4 1
     9    3   10 1
    10    3    5 1
    11    5    6 1
    12    5    7 1
    13    7    8 1
    14    7    9 1
    15    7   27 1
    16    9   10 1
    17    9   11 am
    18   10   46 1
    19   10   47 1
    20   11   12 2
    21   11   13 1
    22   13   14 1
    23   13   15 1
    24   13   19 1
    25   15   16 1
    26   15   17 1
    27   15   18 1
    28   16   48 1
    29   16   49 1
    30   16   50 1
    31   17   51 1
    32   17   52 1
    33   17   53 1
    34   18   54 1
    35   18   55 1
    36   18   56 1
    37   19   20 am
    38   19   57 1
    39   20   21 2
    40   20   22 am
    41   22   23 1
    42   22   58 1
    43   23   24 1
    44   23   25 1
    45   23   26 1
    46   24   59 1
    47   24   60 1
    48   24   61 1
    49   25   62 1
    50   25   63 1
    51   25   64 1
    52   26   65 1
    53   26   66 1
    54   26   67 1
    55   27   28 2
    56   27   29 am
    57   29   30 1
    58   29   68 1
    59   30   31 1
    60   30   32 1
    61   30   37 1
    62   32   33 1
    63   32   69 1
    64   32   70 1
    65   33   36 1
    66   33   34 1
    67   33   71 1
    68   34   35 1
    69   34   72 1
    70   34   73 1
    71   35   36 1
    72   35   74 1
    73   35   75 1
    74   36   76 1
    75   36   77 1
    76   37   38 2
    77   37   39 1
    78   39   40 2
    79   39   41 am
    80   41   78 1
    81   41   79 1
    82   42   80 1
    83   42   81 1
    84   42   82 1
@<TRIPOS>MOLECULE
ZINC03992480
  102   106     0     0     0
SMALL
USER_CHARGES
(3S,3aS,6aR)-2-[(2S)-2-[[(2S)-2-cyclohexyl-2-(pyrazine-2-carbonylamino)acetyl]amino]-3,3-dimethyl-butanoyl]-N-[(1S)-1-[2-(cyclopropylamino)-2-oxo-acetyl]butyl]-3,3a,4,5,6,6a-hexahydro-1H-cyclopenta[c]pyrrole-3-carboxamide
@<TRIPOS>ATOM
      1 C1          1.7934    1.7727    0.8817 C.3       1 <0>        -0.1487
      2 C2          1.7248    0.5575    1.8089 C.3       1 <0>        -0.1167
      3 C3          0.8624    0.8935    3.0272 C.3       1 <0>        -0.1199
      4 C4          0.7939   -0.3217    3.9543 C.3       1 <0>         0.1239
      5 H1          1.8017   -0.6804    4.2107 H         1 <0>         0.1267
      6 C5          0.0481    0.0467    5.2109 C.2       1 <0>         0.3566
      7 O1         -1.0847   -0.3385    5.3758 O.2       1 <0>        -0.4149
      8 C6          0.7087    0.8865    6.2507 C.2       1 <0>         0.4805
      9 O2          1.8470    1.2735    6.0850 O.2       1 <0>        -0.5039
     10 N1          0.0417    1.2160    7.3746 N.am      1 <0>        -0.7073
     11 C7          0.6908    2.0412    8.3963 C.3       1 <0>        -0.0276
     12 C8          0.5147    1.6244    9.8578 C.3       1 <0>        -0.1399
     13 C9         -0.2119    2.8596    9.3217 C.3       1 <0>        -0.1337
     14 N2          0.0953   -1.4155    3.2748 N.am      1 <0>        -0.7346
     15 C10         0.7740   -2.2418    2.4544 C.2       1 <0>         0.5149
     16 O3          1.9631   -2.0798    2.2786 O.2       1 <0>        -0.5121
     17 C11         0.0555   -3.3671    1.7554 C.3       1 <0>         0.1287
     18 H2         -0.9062   -2.9933    1.3742 H         1 <0>         0.1002
     19 C12        -0.1293   -4.5437    2.7221 C.3       1 <0>        -0.0857
     20 H3         -0.0541   -4.1984    3.7638 H         1 <0>         0.1022
     21 C13        -1.4874   -5.2301    2.4491 C.3       1 <0>        -0.1224
     22 C14        -1.2136   -6.7010    2.8498 C.3       1 <0>        -0.1218
     23 C15         0.2399   -6.9708    2.3654 C.3       1 <0>        -0.1188
     24 C16         0.9220   -5.5938    2.2729 C.3       1 <0>        -0.0914
     25 H4          1.8529   -5.5988    2.8589 H         1 <0>         0.0975
     26 C17         1.1556   -5.2588    0.7871 C.3       1 <0>         0.0946
     27 N3          0.8539   -3.8336    0.6177 N.am      1 <0>        -0.5900
     28 C18         1.2489   -3.0718   -0.4216 C.2       1 <0>         0.5443
     29 O4          0.8644   -1.9252   -0.5136 O.2       1 <0>        -0.5196
     30 C19         2.1684   -3.6446   -1.4692 C.3       1 <0>         0.1503
     31 H5          2.0590   -4.7386   -1.5031 H         1 <0>         0.1031
     32 C20         3.6116   -3.2463   -1.1540 C.3       1 <0>        -0.0620
     33 C21         4.0068   -3.8028    0.2153 C.3       1 <0>        -0.1579
     34 C22         4.5436   -3.8169   -2.2248 C.3       1 <0>        -0.1311
     35 C23         3.7275   -1.7208   -1.1372 C.3       1 <0>        -0.1439
     36 N4          1.7941   -3.1223   -2.7857 N.am      1 <0>        -0.7211
     37 C24         2.0936   -3.8217   -3.8982 C.2       1 <0>         0.5232
     38 O5          2.6731   -4.8834   -3.8094 O.2       1 <0>        -0.5292
     39 C25         1.7086   -3.2844   -5.2525 C.3       1 <0>         0.1352
     40 H6          2.2217   -2.3284   -5.4337 H         1 <0>         0.1161
     41 C26         0.1896   -3.1143   -5.3207 C.3       1 <0>        -0.0896
     42 C27        -0.4858   -4.4691   -5.0987 C.3       1 <0>        -0.1126
     43 C28        -2.0048   -4.2990   -5.1668 C.3       1 <0>        -0.1165
     44 C29        -2.3957   -3.7535   -6.5418 C.3       1 <0>        -0.1204
     45 C30        -1.7203   -2.3987   -6.7638 C.3       1 <0>        -0.1211
     46 C31        -0.2013   -2.5688   -6.6957 C.3       1 <0>        -0.1056
     47 N5          2.1421   -4.2222   -6.2912 N.am      1 <0>        -0.7017
     48 C32         2.3774   -3.7803   -7.5425 C.2       1 <0>         0.5813
     49 O6          2.2300   -2.6039   -7.8092 O.2       1 <0>        -0.5254
     50 C33         2.8157   -4.7287   -8.5929 C.ar      1 <0>         0.0295
     51 C34         3.0542   -4.2746   -9.8896 C.ar      1 <0>         0.1103
     52 N6          3.4495   -5.1232  -10.8214 N.ar      1 <0>        -0.4385
     53 C35         3.6088   -6.4017  -10.5281 C.ar      1 <0>         0.0749
     54 C36         3.3673   -6.8575   -9.2403 C.ar      1 <0>         0.0513
     55 N7          2.9777   -6.0166   -8.3031 N.ar      1 <0>        -0.4104
     56 H7          2.4134    1.5311    0.0058 H         1 <0>         0.0548
     57 H8          2.2373    2.6217    1.4222 H         1 <0>         0.0486
     58 H9          0.7788    2.0389    0.5505 H         1 <0>         0.0488
     59 H10         1.2809   -0.2915    1.2684 H         1 <0>         0.0837
     60 H11         2.7394    0.2912    2.1401 H         1 <0>         0.0656
     61 H12         1.3063    1.7425    3.5677 H         1 <0>         0.0806
     62 H13        -0.1522    1.1597    2.6961 H         1 <0>         0.0676
     63 H14        -0.9900    0.8653    7.5247 H         1 <0>         0.4187
     64 H15         1.5384    2.2490    7.7266 H         1 <0>         0.1597
     65 H16         0.0905    0.6104    9.9013 H         1 <0>         0.1051
     66 H17         1.4921    1.6349   10.3624 H         1 <0>         0.1123
     67 H18         0.1649    3.8912    9.3831 H         1 <0>         0.1132
     68 H19        -1.2367    2.8667    8.9220 H         1 <0>         0.1057
     69 H20        -0.9831   -1.5624    3.4342 H         1 <0>         0.4268
     70 H21        -2.2667   -4.7596    3.0666 H         1 <0>         0.0738
     71 H22        -1.7464   -5.1206    1.3856 H         1 <0>         0.0724
     72 H23        -1.3096   -6.8079    3.9404 H         1 <0>         0.0694
     73 H24        -1.9413   -7.3583    2.3515 H         1 <0>         0.0697
     74 H25         0.7534   -7.6197    3.0902 H         1 <0>         0.0720
     75 H26         0.2132   -7.4667    1.3839 H         1 <0>         0.0731
     76 H27         2.2029   -5.4688    0.5242 H         1 <0>         0.0848
     77 H28         0.4905   -5.8742    0.1635 H         1 <0>         0.0758
     78 H29         5.0444   -3.5164    0.4419 H         1 <0>         0.0604
     79 H30         3.9234   -4.8996    0.2033 H         1 <0>         0.0526
     80 H31         3.3367   -3.3925    0.9851 H         1 <0>         0.0827
     81 H32         5.5812   -3.5305   -1.9982 H         1 <0>         0.0513
     82 H33         4.2594   -3.4167   -3.2092 H         1 <0>         0.0526
     83 H34         4.4602   -4.9137   -2.2368 H         1 <0>         0.0640
     84 H35         4.7651   -1.4344   -0.9106 H         1 <0>         0.0536
     85 H36         3.0574   -1.3106   -0.3673 H         1 <0>         0.0720
     86 H37         3.4433   -1.3206   -2.1216 H         1 <0>         0.0527
     87 H38         1.2686   -2.1593   -2.8663 H         1 <0>         0.4321
     88 H39        -0.1359   -2.4102   -4.5408 H         1 <0>         0.0837
     89 H40        -0.1604   -5.1732   -5.8786 H         1 <0>         0.0660
     90 H41        -0.2047   -4.8614   -4.1102 H         1 <0>         0.0589
     91 H42        -2.4903   -5.2730   -5.0071 H         1 <0>         0.0610
     92 H43        -2.3303   -3.5949   -4.3869 H         1 <0>         0.0615
     93 H44        -2.0702   -4.4577   -7.3217 H         1 <0>         0.0587
     94 H45        -3.4878   -3.6312   -6.5909 H         1 <0>         0.0604
     95 H46        -2.0014   -2.0065   -7.7523 H         1 <0>         0.0622
     96 H47        -2.0457   -1.6946   -5.9839 H         1 <0>         0.0614
     97 H48         0.2843   -1.5948   -6.8553 H         1 <0>         0.0741
     98 H49         0.1242   -3.2729   -7.4756 H         1 <0>         0.0623
     99 H50         2.2756   -5.2871   -6.0498 H         1 <0>         0.4443
    100 H51         2.9200   -3.2304  -10.1304 H         1 <0>         0.1828
    101 H52         3.9283   -7.0938  -11.2931 H         1 <0>         0.1779
    102 H53         3.4985   -7.9034   -9.0053 H         1 <0>         0.1793
@<TRIPOS>BOND
     1    1    2 1
     2    1   56 1
     3    1   57 1
     4    1   58 1
     5    2    3 1
     6    2   59 1
     7    2   60 1
     8    3    4 1
     9    3   61 1
    10    3   62 1
    11    4    5 1
    12    4    6 1
    13    4   14 1
    14    6    7 2
    15    6    8 1
    16    8    9 2
    17    8   10 am
    18   10   11 1
    19   10   63 1
    20   11   13 1
    21   11   12 1
    22   11   64 1
    23   12   13 1
    24   12   65 1
    25   12   66 1
    26   13   67 1
    27   13   68 1
    28   14   15 am
    29   14   69 1
    30   15   16 2
    31   15   17 1
    32   17   18 1
    33   17   27 1
    34   17   19 1
    35   19   20 1
    36   19   24 1
    37   19   21 1
    38   21   22 1
    39   21   70 1
    40   21   71 1
    41   22   23 1
    42   22   72 1
    43   22   73 1
    44   23   24 1
    45   23   74 1
    46   23   75 1
    47   24   25 1
    48   24   26 1
    49   26   27 1
    50   26   76 1
    51   26   77 1
    52   27   28 am
    53   28   29 2
    54   28   30 1
    55   30   31 1
    56   30   32 1
    57   30   36 1
    58   32   33 1
    59   32   34 1
    60   32   35 1
    61   33   78 1
    62   33   79 1
    63   33   80 1
    64   34   81 1
    65   34   82 1
    66   34   83 1
    67   35   84 1
    68   35   85 1
    69   35   86 1
    70   36   37 am
    71   36   87 1
    72   37   38 2
    73   37   39 1
    74   39   40 1
    75   39   41 1
    76   39   47 1
    77   41   46 1
    78   41   42 1
    79   41   88 1
    80   42   43 1
    81   42   89 1
    82   42   90 1
    83   43   44 1
    84   43   91 1
    85   43   92 1
    86   44   45 1
    87   44   93 1
    88   44   94 1
    89   45   46 1
    90   45   95 1
    91   45   96 1
    92   46   97 1
    93   46   98 1
    94   47   48 am
    95   47   99 1
    96   48   49 2
    97   48   50 1
    98   50   55 ar
    99   50   51 ar
   100   51   52 ar
   101   51  100 1
   102   52   53 ar
   103   53   54 ar
   104   53  101 1
   105   54   55 ar
   106   54  102 1
@<TRIPOS>MOLECULE
ZINC28263619
   53    53     0     0     0
SMALL
USER_CHARGES

@<TRIPOS>ATOM
      1 C1          0.6073   -0.3490   -1.4680 C.3       1 <0>        -0.1387
      2 C2         -0.2961    0.3696   -0.4638 C.3       1 <0>        -0.0987
      3 C3         -0.8737    1.6309   -1.1090 C.3       1 <0>        -0.1476
      4 C4         -1.4383   -0.5600   -0.0491 C.3       1 <0>         0.1545
      5 H1         -1.0260   -1.4923    0.3369 H         1 <0>         0.1147
      6 C5         -2.2640    0.1054    1.0216 C.2       1 <0>         0.5292
      7 O1         -3.2907    0.6796    0.7265 O.2       1 <0>        -0.5251
      8 N1         -1.8616    0.0625    2.3072 N.am      1 <0>        -0.7045
      9 C6         -2.6095    0.7926    3.3337 C.3       1 <0>         0.1162
     10 H2         -2.9946    1.7208    2.9114 H         1 <0>         0.1335
     11 C7         -1.6834    1.1125    4.5088 C.3       1 <0>        -0.1214
     12 C8         -0.6030    2.0594    4.0535 C.2       1 <0>         0.4586
     13 O2         -0.5764    2.4393    2.9069 O.2       1 <0>        -0.4871
     14 O3          0.3299    2.4807    4.9219 O.3       1 <0>        -0.3512
     15 C9          1.3239    3.3773    4.4219 C.3       1 <0>         0.0337
     16 C10        -3.7587   -0.0547    3.8160 C.2       1 <0>         0.3159
     17 O4         -3.7419   -1.2497    3.6431 O.2       1 <0>        -0.4066
     18 C11        -4.9287    0.5894    4.5139 C.3       1 <0>         0.0179
     19 F1         -5.8609   -0.3931    4.8647 F         1 <0>        -0.1928
     20 N2         -2.2833   -0.8441   -1.2116 N.am      1 <0>        -0.6914
     21 C12        -1.9528   -1.8396   -2.0579 C.2       1 <0>         0.6535
     22 O5         -0.9539   -2.5015   -1.8566 O.2       1 <0>        -0.5636
     23 O6         -2.7294   -2.1006   -3.1262 O.3       1 <0>        -0.3570
     24 C13        -2.3190   -3.1698   -3.9809 C.3       1 <0>         0.1293
     25 C14        -3.3025   -3.3131   -5.1137 C.ar      1 <0>        -0.1013
     26 C15        -4.3985   -4.1442   -4.9765 C.ar      1 <0>        -0.0931
     27 C16        -5.3007   -4.2757   -6.0156 C.ar      1 <0>        -0.1232
     28 C17        -5.1070   -3.5757   -7.1918 C.ar      1 <0>        -0.1071
     29 C18        -4.0114   -2.7439   -7.3287 C.ar      1 <0>        -0.1235
     30 C19        -3.1116   -2.6091   -6.2880 C.ar      1 <0>        -0.0932
     31 H3          1.4211    0.3133   -1.7634 H         1 <0>         0.0543
     32 H4          1.0189   -1.2476   -1.0083 H         1 <0>         0.0640
     33 H5          0.0256   -0.6247   -2.3476 H         1 <0>         0.0571
     34 H6          0.2856    0.6453    0.4158 H         1 <0>         0.0871
     35 H7         -1.4192    1.3595   -2.0128 H         1 <0>         0.0569
     36 H8         -1.5512    2.1196   -0.4088 H         1 <0>         0.0606
     37 H9         -0.0624    2.3122   -1.3651 H         1 <0>         0.0595
     38 H10        -1.0767   -0.4519    2.5528 H         1 <0>         0.4084
     39 H11        -2.2594    1.5765    5.3095 H         1 <0>         0.1332
     40 H12        -1.2291    0.1917    4.8745 H         1 <0>         0.1234
     41 H13         1.8731    2.8961    3.6126 H         1 <0>         0.0631
     42 H14         0.8428    4.2809    4.0476 H         1 <0>         0.0633
     43 H15         2.0139    3.6387    5.2242 H         1 <0>         0.1050
     44 H16        -4.5806    1.0974    5.4133 H         1 <0>         0.1148
     45 H17        -5.3969    1.3126    3.8462 H         1 <0>         0.1169
     46 H18        -3.0807   -0.3156   -1.3722 H         1 <0>         0.4172
     47 H19        -1.3296   -2.9535   -4.3839 H         1 <0>         0.0789
     48 H20        -2.2841   -4.0979   -3.4105 H         1 <0>         0.0789
     49 H21        -4.5499   -4.6911   -4.0576 H         1 <0>         0.1248
     50 H22        -6.1566   -4.9255   -5.9087 H         1 <0>         0.1264
     51 H23        -5.8114   -3.6790   -8.0039 H         1 <0>         0.1253
     52 H24        -3.8599   -2.1973   -8.2478 H         1 <0>         0.1263
     53 H25        -2.2577   -1.9564   -6.3936 H         1 <0>         0.1247
@<TRIPOS>BOND
     1    1    2 1
     2    1   31 1
     3    1   32 1
     4    1   33 1
     5    2    3 1
     6    2    4 1
     7    2   34 1
     8    3   35 1
     9    3   36 1
    10    3   37 1
    11    4    5 1
    12    4    6 1
    13    4   20 1
    14    6    7 2
    15    6    8 am
    16    8    9 1
    17    8   38 1
    18    9   10 1
    19    9   11 1
    20    9   16 1
    21   11   12 1
    22   11   39 1
    23   11   40 1
    24   12   13 2
    25   12   14 1
    26   14   15 1
    27   15   41 1
    28   15   42 1
    29   15   43 1
    30   16   17 2
    31   16   18 1
    32   18   19 1
    33   18   44 1
    34   18   45 1
    35   20   21 am
    36   20   46 1
    37   21   22 2
    38   21   23 1
    39   23   24 1
    40   24   25 1
    41   24   47 1
    42   24   48 1
    43   25   30 ar
    44   25   26 ar
    45   26   27 ar
    46   26   49 1
    47   27   28 ar
    48   27   50 1
    49   28   29 ar
    50   28   51 1
    51   29   30 ar
    52   29   52 1
    53   30   53 1
@<TRIPOS>MOLECULE
ZINC28263624
   53    53     0     0     0
SMALL
USER_CHARGES
methyl (3S)-3-[[(2S)-2-benzyloxycarbonylamino-3-methyl-butanoyl]amino]-5-fluoro-4-oxo-pentanoate
@<TRIPOS>ATOM
      1 C1         -3.0099    5.3618    5.5848 C.3       1 <0>        -0.1395
      2 C2         -2.3641    4.4640    4.5275 C.3       1 <0>        -0.0989
      3 C3         -2.3833    5.1759    3.1733 C.3       1 <0>        -0.1508
      4 C4         -0.9175    4.1657    4.9264 C.3       1 <0>         0.1573
      5 H1         -0.8721    3.6752    5.9099 H         1 <0>         0.1181
      6 C5         -0.2814    3.2814    3.8850 C.2       1 <0>         0.5325
      7 O1          0.7005    3.6625    3.2836 O.2       1 <0>        -0.5332
      8 N1         -0.8036    2.0671    3.6220 N.am      1 <0>        -0.7171
      9 C6         -0.1853    1.2075    2.6097 C.3       1 <0>         0.1166
     10 H2          0.9001    1.3827    2.6443 H         1 <0>         0.1343
     11 C7         -0.5159   -0.2555    2.9120 C.3       1 <0>        -0.1208
     12 C8          0.1217   -0.6551    4.2177 C.2       1 <0>         0.4588
     13 O2          0.7736    0.1478    4.8423 O.2       1 <0>        -0.4891
     14 O3         -0.0347   -1.9030    4.6867 O.3       1 <0>        -0.3574
     15 C9          0.6076   -2.2176    5.9504 C.3       1 <0>         0.0324
     16 C10        -0.7181    1.5718    1.2479 C.2       1 <0>         0.3161
     17 O4         -1.7103    2.2532    1.1502 O.2       1 <0>        -0.4053
     18 C11        -0.0127    1.0858    0.0080 C.3       1 <0>         0.0136
     19 F1         -0.6893    1.5493   -1.1254 F         1 <0>        -0.1930
     20 N2         -0.1690    5.4213    5.0241 N.am      1 <0>        -0.7056
     21 C12        -0.2000    6.1373    6.1655 C.2       1 <0>         0.6550
     22 O5         -0.8487    5.7413    7.1136 O.2       1 <0>        -0.5720
     23 O6          0.4879    7.2912    6.2553 O.3       1 <0>        -0.3631
     24 C13         0.4087    8.0095    7.5146 C.3       1 <0>         0.1292
     25 C14         1.2355    9.2666    7.4287 C.ar      1 <0>        -0.1010
     26 C15         2.5677    9.2442    7.7971 C.ar      1 <0>        -0.0931
     27 C16         3.3273   10.3961    7.7137 C.ar      1 <0>        -0.1234
     28 C17         2.7522   11.5728    7.2714 C.ar      1 <0>        -0.1073
     29 C18         1.4185   11.5965    6.9085 C.ar      1 <0>        -0.1236
     30 C19         0.6603   10.4433    6.9869 C.ar      1 <0>        -0.0932
     31 H3         -2.9961    4.8500    6.5584 H         1 <0>         0.0667
     32 H4         -4.0500    5.5763    5.2980 H         1 <0>         0.0535
     33 H5         -2.4479    6.3045    5.6581 H         1 <0>         0.0544
     34 H6         -2.9260    3.5212    4.4542 H         1 <0>         0.0843
     35 H7         -1.9190    4.5304    2.4132 H         1 <0>         0.0603
     36 H8         -1.8213    6.1187    3.2467 H         1 <0>         0.0571
     37 H9         -3.4234    5.3904    2.8865 H         1 <0>         0.0612
     38 H10        -1.6941    1.7215    4.1675 H         1 <0>         0.4280
     39 H11        -1.6067   -0.3776    2.9841 H         1 <0>         0.1247
     40 H12        -0.1282   -0.8935    2.1042 H         1 <0>         0.1324
     41 H13         0.4004   -3.2647    6.2163 H         1 <0>         0.1064
     42 H14         0.2152   -1.5552    6.7360 H         1 <0>         0.0665
     43 H15         1.6937   -2.0712    5.8561 H         1 <0>         0.0664
     44 H16         1.0193    1.4665    0.0002 H         1 <0>         0.1171
     45 H17         0.0022   -0.0141    0.0019 H         1 <0>         0.1153
     46 H18         0.4183    5.7797    4.1658 H         1 <0>         0.4396
     47 H19        -0.6391    8.2731    7.7211 H         1 <0>         0.0815
     48 H20         0.7930    7.3725    8.3249 H         1 <0>         0.0814
     49 H21         3.0160    8.3258    8.1464 H         1 <0>         0.1247
     50 H22         4.3692   10.3776    7.9976 H         1 <0>         0.1262
     51 H23         3.3447   12.4736    7.2098 H         1 <0>         0.1251
     52 H24         0.9691   12.5159    6.5633 H         1 <0>         0.1262
     53 H25        -0.3817   10.4619    6.7033 H         1 <0>         0.1246
@<TRIPOS>BOND
     1    1    2 1
     2    1   31 1
     3    1   32 1
     4    1   33 1
     5    2    3 1
     6    2    4 1
     7    2   34 1
     8    3   35 1
     9    3   36 1
    10    3   37 1
    11    4    5 1
    12    4    6 1
    13    4   20 1
    14    6    7 2
    15    6    8 am
    16    8    9 1
    17    8   38 1
    18    9   10 1
    19    9   11 1
    20    9   16 1
    21   11   12 1
    22   11   39 1
    23   11   40 1
    24   12   13 2
    25   12   14 1
    26   14   15 1
    27   15   41 1
    28   15   42 1
    29   15   43 1
    30   16   17 2
    31   16   18 1
    32   18   19 1
    33   18   44 1
    34   18   45 1
    35   20   21 am
    36   20   46 1
    37   21   22 2
    38   21   23 1
    39   23   24 1
    40   24   25 1
    41   24   47 1
    42   24   48 1
    43   25   30 ar
    44   25   26 ar
    45   26   27 ar
    46   26   49 1
    47   27   28 ar
    48   27   50 1
    49   28   29 ar
    50   28   51 1
    51   29   30 ar
    52   29   52 1
    53   30   53 1
@<TRIPOS>MOLECULE
ZINC04100450
   38    40     0     0     0
SMALL
USER_CHARGES

@<TRIPOS>ATOM
      1 C1         -0.0173    1.4248    0.0099 C.3       1 <0>         0.0205
      2 O1          0.0021   -0.0041    0.0020 O.3       1 <0>        -0.3070
      3 C2         -1.2003   -0.6375    0.0101 C.ar      1 <0>         0.1931
      4 C3         -2.3746    0.1011    0.0195 C.ar      1 <0>        -0.2283
      5 C4         -3.5956   -0.5451    0.0272 C.ar      1 <0>         0.0226
      6 C5         -3.6478   -1.9268    0.0260 C.ar      1 <0>        -0.7167
      7 C6         -2.4788   -2.6651    0.0172 C.ar      1 <0>         0.0326
      8 C7         -1.2554   -2.0237    0.0032 C.ar      1 <0>        -0.1691
      9 S1         -5.2067   -2.7480    0.0365 S.o2      1 <0>         2.6981
     10 O2         -4.9816   -4.0397    0.5843 O.2       1 <0>        -0.9035
     11 O3         -6.1424   -1.8361    0.5952 O.2       1 <0>        -0.9345
     12 N1         -5.6514   -2.9744   -1.5425 N.pl3     1 <0>        -0.7443
     13 C8         -6.3732   -2.1097   -2.3013 C.2       1 <0>         0.4031
     14 C9         -6.5199   -2.6686   -3.5338 C.2       1 <0>        -0.3056
     15 C10        -5.8677   -3.9093   -3.5223 C.2       1 <0>         0.3099
     16 N2         -5.3445   -4.0889   -2.3334 N.2       1 <0>        -0.2592
     17 O4         -5.7874   -4.7762   -4.5667 O.3       1 <0>        -0.2521
     18 C11        -5.1173   -5.9320   -4.3804 C.2       1 <0>         0.5432
     19 O5         -4.6072   -6.1723   -3.3025 O.2       1 <0>        -0.4339
     20 C12        -5.0037   -6.8970   -5.4753 C.2       1 <0>        -0.2584
     21 C13        -4.3709   -8.1319   -5.4908 C.2       1 <0>        -0.0466
     22 C14        -4.4336   -8.8193   -6.6785 C.2       1 <0>        -0.1908
     23 C15        -5.0897   -8.2642   -7.7279 C.2       1 <0>        -0.2167
     24 S2         -5.6491   -6.7956   -7.1340 S.3       1 <0>         0.2615
     25 N3         -6.8725   -0.8763   -1.8928 N.pl3     1 <0>        -0.8415
     26 H1          1.0053    1.8021    0.0021 H         1 <0>         0.1082
     27 H2         -0.5445    1.7859   -0.8732 H         1 <0>         0.0619
     28 H3         -0.5275    1.7763    0.9067 H         1 <0>         0.0625
     29 H4         -2.3343    1.1803    0.0211 H         1 <0>         0.1432
     30 H5         -4.5101    0.0294    0.0345 H         1 <0>         0.1420
     31 H6         -2.5223   -3.7443    0.0166 H         1 <0>         0.1542
     32 H7         -0.3427   -2.6008   -0.0082 H         1 <0>         0.1474
     33 H8         -7.0454   -2.2337   -4.3711 H         1 <0>         0.1693
     34 H9         -3.8614   -8.5272   -4.6244 H         1 <0>         0.1551
     35 H10        -3.9665   -9.7882   -6.7755 H         1 <0>         0.1444
     36 H11        -5.2257   -8.6747   -8.7175 H         1 <0>         0.1942
     37 H12        -6.7139   -0.5644   -0.9881 H         1 <0>         0.4153
     38 H13        -7.3792   -0.3288   -2.5128 H         1 <0>         0.4259
@<TRIPOS>BOND
     1    1    2 1
     2    1   26 1
     3    1   27 1
     4    1   28 1
     5    2    3 1
     6    3    8 ar
     7    3    4 ar
     8    4    5 ar
     9    4   29 1
    10    5    6 ar
    11    5   30 1
    12    6    7 ar
    13    6    9 1
    14    7    8 ar
    15    7   31 1
    16    8   32 1
    17    9   10 2
    18    9   11 2
    19    9   12 1
    20   12   16 1
    21   12   13 1
    22   13   14 2
    23   13   25 1
    24   14   15 1
    25   14   33 1
    26   15   16 2
    27   15   17 1
    28   17   18 1
    29   18   19 2
    30   18   20 1
    31   20   24 1
    32   20   21 2
    33   21   22 1
    34   21   34 1
    35   22   23 2
    36   22   35 1
    37   23   24 1
    38   23   36 1
    39   25   37 1
    40   25   38 1
@<TRIPOS>MOLECULE
ZINC00812573
   37    39     0     0     0
SMALL
USER_CHARGES

@<TRIPOS>ATOM
      1 C1         -0.0184    1.5028    0.0103 C.3       1 <0>        -0.1278
      2 C2          0.0021   -0.0041    0.0020 C.ar      1 <0>        -0.0185
      3 C3          0.0057   -0.6887   -1.1989 C.ar      1 <0>        -0.1412
      4 C4          0.0245   -2.0709   -1.2065 C.ar      1 <0>        -0.0153
      5 C5          0.0400   -2.7685   -0.0132 C.ar      1 <0>        -0.6844
      6 C6          0.0373   -2.0839    1.1877 C.ar      1 <0>        -0.0013
      7 C7          0.0229   -0.7016    1.1953 C.ar      1 <0>        -0.1402
      8 S1          0.0628   -4.5303   -0.0229 S.o2      1 <0>         2.6949
      9 O1         -0.4759   -4.9503    1.2232 O.2       1 <0>        -0.9032
     10 O2         -0.4897   -4.9367   -1.2674 O.2       1 <0>        -0.9332
     11 N1          1.6509   -4.9994   -0.0343 N.pl3     1 <0>        -0.7443
     12 C8          2.4127   -5.2146   -1.1379 C.2       1 <0>         0.4035
     13 C9          3.6527   -5.5839   -0.7152 C.2       1 <0>        -0.3057
     14 C10         3.6429   -5.5931    0.6865 C.2       1 <0>         0.3102
     15 N2          2.4476   -5.2386    1.0926 N.2       1 <0>        -0.2596
     16 O3          4.6944   -5.9108    1.4879 O.3       1 <0>        -0.2519
     17 C11         4.5086   -5.8674    2.8233 C.2       1 <0>         0.5432
     18 O4          3.4251   -5.5510    3.2767 O.2       1 <0>        -0.4342
     19 C12         5.6109   -6.2010    3.7269 C.2       1 <0>        -0.2587
     20 C13         5.6283   -6.2240    5.1143 C.2       1 <0>        -0.0466
     21 C14         6.8236   -6.5805    5.6899 C.2       1 <0>        -0.1909
     22 C15         7.8779   -6.8781    4.8901 C.2       1 <0>        -0.2167
     23 S2          7.2787   -6.6912    3.3318 S.3       1 <0>         0.2621
     24 N3          2.0002   -5.0820   -2.4606 N.pl3     1 <0>        -0.8410
     25 H1          1.0042    1.8801    0.0026 H         1 <0>         0.0825
     26 H2         -0.5455    1.8639   -0.8728 H         1 <0>         0.0756
     27 H3         -0.5286    1.8543    0.9071 H         1 <0>         0.0759
     28 H4         -0.0064   -0.1436   -2.1312 H         1 <0>         0.1374
     29 H5          0.0266   -2.6057   -2.1448 H         1 <0>         0.1390
     30 H6          0.0491   -2.6289    2.1200 H         1 <0>         0.1469
     31 H7          0.0245   -0.1667    2.1335 H         1 <0>         0.1384
     32 H8          4.4941   -5.8269   -1.3472 H         1 <0>         0.1697
     33 H9          4.7578   -5.9770    5.7039 H         1 <0>         0.1549
     34 H10         6.9226   -6.6229    6.7645 H         1 <0>         0.1444
     35 H11         8.8736   -7.1727    5.1872 H         1 <0>         0.1944
     36 H12         1.0901   -4.8122   -2.6601 H         1 <0>         0.4156
     37 H13         2.6228   -5.2594   -3.1829 H         1 <0>         0.4261
@<TRIPOS>BOND
     1    1    2 1
     2    1   25 1
     3    1   26 1
     4    1   27 1
     5    2    7 ar
     6    2    3 ar
     7    3    4 ar
     8    3   28 1
     9    4    5 ar
    10    4   29 1
    11    5    6 ar
    12    5    8 1
    13    6    7 ar
    14    6   30 1
    15    7   31 1
    16    8    9 2
    17    8   10 2
    18    8   11 1
    19   11   15 1
    20   11   12 1
    21   12   13 2
    22   12   24 1
    23   13   14 1
    24   13   32 1
    25   14   15 2
    26   14   16 1
    27   16   17 1
    28   17   18 2
    29   17   19 1
    30   19   23 1
    31   19   20 2
    32   20   21 1
    33   20   33 1
    34   21   22 2
    35   21   34 1
    36   22   23 1
    37   22   35 1
    38   24   36 1
    39   24   37 1
@<TRIPOS>MOLECULE
ZINC00812583
   34    36     0     0     0
SMALL
USER_CHARGES

@<TRIPOS>ATOM
      1 C1         -0.0163    1.3475    0.0095 C.2       1 <0>        -0.2280
      2 C2          1.3188    1.7789   -0.0010 C.2       1 <0>        -0.0919
      3 C3          2.0949    0.6542   -0.0144 C.2       1 <0>        -0.0692
      4 O1          1.2756   -0.4179   -0.0124 O.3       1 <0>        -0.1512
      5 C4          0.0021   -0.0041    0.0020 C.2       1 <0>         0.0175
      6 C5          3.5590    0.6188   -0.0293 C.2       1 <0>         0.5423
      7 O2          4.1925    1.6571   -0.0305 O.2       1 <0>        -0.4250
      8 O3          4.2049   -0.5654   -0.0418 O.3       1 <0>        -0.2460
      9 C6          5.5645   -0.5509   -0.0554 C.2       1 <0>         0.3103
     10 C7          6.3972   -1.6783   -0.0751 C.2       1 <0>        -0.3033
     11 C8          7.6869   -1.2432   -0.0842 C.2       1 <0>         0.4035
     12 N1          7.6614    0.1146   -0.0707 N.pl3     1 <0>        -0.7447
     13 N2          6.3208    0.5203   -0.0581 N.2       1 <0>        -0.2615
     14 S1          8.9818    1.1140   -0.0748 S.o2      1 <0>         2.6990
     15 O4          8.5599    2.3467    0.4926 O.2       1 <0>        -0.8992
     16 O5         10.0628    0.3609    0.4575 O.2       1 <0>        -0.9293
     17 C9          9.3796    1.4449   -1.7591 C.ar      1 <0>        -0.6946
     18 C10        10.2538    0.6164   -2.4379 C.ar      1 <0>         0.0106
     19 C11        10.5662    0.8747   -3.7591 C.ar      1 <0>        -0.1732
     20 C12        10.0033    1.9636   -4.4029 C.ar      1 <0>         0.1680
     21 C13         9.1280    2.7926   -3.7221 C.ar      1 <0>        -0.1721
     22 C14         8.8129    2.5293   -2.4025 C.ar      1 <0>         0.0244
     23 F1         10.3084    2.2172   -5.6944 F         1 <0>        -0.1237
     24 N3          8.8250   -2.0443   -0.1032 N.pl3     1 <0>        -0.8406
     25 H1         -0.8937    1.9770    0.0252 H         1 <0>         0.1649
     26 H2          1.6659    2.8016    0.0009 H         1 <0>         0.1685
     27 H3         -0.8673   -0.6448    0.0072 H         1 <0>         0.2182
     28 H4          6.0732   -2.7086   -0.0817 H         1 <0>         0.1704
     29 H5         10.6930   -0.2327   -1.9353 H         1 <0>         0.1500
     30 H6         11.2494    0.2276   -4.2890 H         1 <0>         0.1520
     31 H7          8.6886    3.6424   -4.2232 H         1 <0>         0.1531
     32 H8          8.1267    3.1732   -1.8725 H         1 <0>         0.1582
     33 H9          8.7381   -3.0103   -0.1116 H         1 <0>         0.4269
     34 H10         9.7051   -1.6365   -0.1081 H         1 <0>         0.4156
@<TRIPOS>BOND
     1    1    5 2
     2    1    2 1
     3    1   25 1
     4    2    3 2
     5    2   26 1
     6    3    4 1
     7    3    6 1
     8    4    5 1
     9    5   27 1
    10    6    7 2
    11    6    8 1
    12    8    9 1
    13    9   13 2
    14    9   10 1
    15   10   11 2
    16   10   28 1
    17   11   12 1
    18   11   24 1
    19   12   13 1
    20   12   14 1
    21   14   15 2
    22   14   16 2
    23   14   17 1
    24   17   22 ar
    25   17   18 ar
    26   18   19 ar
    27   18   29 1
    28   19   20 ar
    29   19   30 1
    30   20   21 ar
    31   20   23 1
    32   21   22 ar
    33   21   31 1
    34   22   32 1
    35   24   33 1
    36   24   34 1
@<TRIPOS>MOLECULE
ZINC03826241
   64    63     0     0     0
SMALL
USER_CHARGES

@<TRIPOS>ATOM
      1 C1         -0.9023    2.1143    0.2015 C.3       1 <0>        -0.1552
      2 C2         -0.5019    0.6439    0.3372 C.3       1 <0>        -0.1247
      3 C3         -1.7579   -0.2297    0.3263 C.3       1 <0>        -0.1202
      4 C4         -1.3576   -1.7002    0.4620 C.3       1 <0>        -0.1216
      5 C5         -2.6136   -2.5738    0.4511 C.3       1 <0>         0.0734
      6 H1         -3.1952   -2.3627   -0.4462 H         1 <0>         0.1237
      7 C6         -2.2148   -4.0270    0.4610 C.2       1 <0>         0.3279
      8 O1         -2.5694   -4.7443    1.3655 O.2       1 <0>        -0.4402
      9 N1         -3.4222   -2.2812    1.6372 N.am      1 <0>        -0.7103
     10 C7         -4.7499   -2.5122    1.6214 C.2       1 <0>         0.5236
     11 O2         -5.2843   -2.9091    0.6076 O.2       1 <0>        -0.5347
     12 C8         -5.5704   -2.2774    2.8634 C.3       1 <0>         0.1308
     13 H2         -5.3201   -1.3042    3.2857 H         1 <0>         0.1119
     14 C9         -5.2676   -3.3715    3.8892 C.3       1 <0>        -0.1165
     15 C10        -3.7900   -3.3082    4.2811 C.3       1 <0>        -0.1129
     16 C11        -3.5164   -2.0021    5.0297 C.3       1 <0>        -0.1559
     17 C12        -3.4509   -4.4949    5.1853 C.3       1 <0>        -0.1408
     18 N2         -6.9945   -2.3096    2.5212 N.am      1 <0>        -0.7188
     19 C13        -7.8949   -1.7125    3.3270 C.2       1 <0>         0.5055
     20 O3         -7.5196   -1.0732    4.2868 O.2       1 <0>        -0.5044
     21 C14        -9.3680   -1.8393    3.0353 C.3       1 <0>         0.1365
     22 H3         -9.5872   -2.8552    2.7067 H         1 <0>         0.1098
     23 C15        -9.7565   -0.8518    1.9331 C.3       1 <0>        -0.1291
     24 C16       -11.2342   -1.0353    1.5817 C.3       1 <0>        -0.0910
     25 C17       -11.6585    0.0431    0.5827 C.3       1 <0>        -0.1477
     26 C18       -11.4427   -2.4174    0.9594 C.3       1 <0>        -0.1522
     27 N3        -10.1334   -1.5427    4.2487 N.am      1 <0>        -0.7217
     28 C19       -10.0209   -0.3359    4.8383 C.2       1 <0>         0.5169
     29 O4         -9.2860    0.5044    4.3643 O.2       1 <0>        -0.5150
     30 C20       -10.8082   -0.0308    6.0865 C.3       1 <0>        -0.1698
     31 H4         -0.0075    2.7367    0.2092 H         1 <0>         0.0553
     32 H5         -1.4380    2.2600   -0.7365 H         1 <0>         0.0544
     33 H6         -1.5465    2.3939    1.0351 H         1 <0>         0.0541
     34 H7          0.1423    0.3643   -0.4964 H         1 <0>         0.0637
     35 H8          0.0339    0.4983    1.2752 H         1 <0>         0.0622
     36 H9         -2.4022    0.0498    1.1599 H         1 <0>         0.0643
     37 H10        -2.2937   -0.0841   -0.6117 H         1 <0>         0.0677
     38 H11        -0.7133   -1.9797   -0.3716 H         1 <0>         0.0908
     39 H12        -0.8218   -1.8458    1.4000 H         1 <0>         0.0746
     40 H13        -1.6118   -4.4270   -0.3408 H         1 <0>         0.1056
     41 H14        -3.0020   -1.9213    2.4340 H         1 <0>         0.4077
     42 H15        -5.8851   -3.2205    4.7746 H         1 <0>         0.0810
     43 H16        -5.4869   -4.3471    3.4553 H         1 <0>         0.0715
     44 H17        -3.1738   -3.3481    3.3829 H         1 <0>         0.0876
     45 H18        -4.0760   -1.9954    5.9651 H         1 <0>         0.0618
     46 H19        -2.4506   -1.9222    5.2434 H         1 <0>         0.0581
     47 H20        -3.8278   -1.1584    4.4139 H         1 <0>         0.0529
     48 H21        -3.6457   -5.4254    4.6520 H         1 <0>         0.0557
     49 H22        -2.3982   -4.4498    5.4646 H         1 <0>         0.0558
     50 H23        -4.0671   -4.4550    6.0836 H         1 <0>         0.0535
     51 H24        -7.2895   -2.7607    1.7147 H         1 <0>         0.4087
     52 H25        -9.5900    0.1670    2.2829 H         1 <0>         0.0936
     53 H26        -9.1470   -1.0364    1.0485 H         1 <0>         0.0743
     54 H27       -11.8362   -0.9496    2.4863 H         1 <0>         0.0716
     55 H28       -12.7303   -0.0332    0.3991 H         1 <0>         0.0556
     56 H29       -11.4290    1.0273    0.9911 H         1 <0>         0.0550
     57 H30       -11.1187   -0.0966   -0.3539 H         1 <0>         0.0552
     58 H31       -11.1404   -3.1856    1.6711 H         1 <0>         0.0531
     59 H32       -12.4954   -2.5481    0.7090 H         1 <0>         0.0567
     60 H33       -10.8407   -2.5031    0.0547 H         1 <0>         0.0572
     61 H34       -10.7211   -2.2148    4.6279 H         1 <0>         0.4040
     62 H35       -11.4071   -0.8996    6.3598 H         1 <0>         0.0728
     63 H36       -10.1224    0.2080    6.8994 H         1 <0>         0.0939
     64 H37       -11.4646    0.8198    5.9032 H         1 <0>         0.0926
@<TRIPOS>BOND
     1    1    2 1
     2    1   31 1
     3    1   32 1
     4    1   33 1
     5    2    3 1
     6    2   34 1
     7    2   35 1
     8    3    4 1
     9    3   36 1
    10    3   37 1
    11    4    5 1
    12    4   38 1
    13    4   39 1
    14    5    6 1
    15    5    7 1
    16    5    9 1
    17    7    8 2
    18    7   40 1
    19    9   10 am
    20    9   41 1
    21   10   11 2
    22   10   12 1
    23   12   13 1
    24   12   14 1
    25   12   18 1
    26   14   15 1
    27   14   42 1
    28   14   43 1
    29   15   16 1
    30   15   17 1
    31   15   44 1
    32   16   45 1
    33   16   46 1
    34   16   47 1
    35   17   48 1
    36   17   49 1
    37   17   50 1
    38   18   19 am
    39   18   51 1
    40   19   20 2
    41   19   21 1
    42   21   22 1
    43   21   23 1
    44   21   27 1
    45   23   24 1
    46   23   52 1
    47   23   53 1
    48   24   25 1
    49   24   26 1
    50   24   54 1
    51   25   55 1
    52   25   56 1
    53   25   57 1
    54   26   58 1
    55   26   59 1
    56   26   60 1
    57   27   28 am
    58   27   61 1
    59   28   29 2
    60   28   30 1
    61   30   62 1
    62   30   63 1
    63   30   64 1
@<TRIPOS>MOLECULE
ZINC01530846
   19    18     0     0     0
SMALL
USER_CHARGES
3-allylsulfanylsulfinylprop-1-ene
@<TRIPOS>ATOM
      1 C1         -2.8534   -0.8977    2.9353 C.2       1 <0>        -0.1548
      2 C2         -2.3887   -0.2416    1.9011 C.2       1 <0>        -0.1796
      3 C3         -2.4092    1.2653    1.8933 C.3       1 <0>         0.0382
      4 S1         -0.7074    1.8931    1.8804 S.3       1 <0>        -0.6646
      5 S2         -0.0172    1.4168    0.0098 S.o       1 <0>         1.2949
      6 O1          0.0021   -0.0041    0.0020 O.2       1 <0>        -0.7560
      7 C4          1.6846    2.0446   -0.0030 C.3       1 <0>        -0.3922
      8 C5          2.3166    1.7556   -1.3403 C.2       1 <0>        -0.1576
      9 C6          2.6608    2.7432   -2.1292 C.2       1 <0>        -0.1560
     10 H1         -2.8387   -1.9775    2.9409 H         1 <0>         0.1047
     11 H2         -3.2512   -0.3587    3.7825 H         1 <0>         0.1017
     12 H3         -1.9909   -0.7805    1.0539 H         1 <0>         0.1229
     13 H4         -2.9229    1.6262    2.7844 H         1 <0>         0.1169
     14 H5         -2.9330    1.6170    1.0044 H         1 <0>         0.0990
     15 H6          1.6762    3.1208    0.1699 H         1 <0>         0.1345
     16 H7          2.2586    1.5548    0.7835 H         1 <0>         0.1126
     17 H8          2.4856    0.7344   -1.6482 H         1 <0>         0.1185
     18 H9          2.4918    3.7644   -1.8212 H         1 <0>         0.1069
     19 H10         3.1137    2.5361   -3.0875 H         1 <0>         0.1101
@<TRIPOS>BOND
     1    1    2 2
     2    1   10 1
     3    1   11 1
     4    2    3 1
     5    2   12 1
     6    3    4 1
     7    3   13 1
     8    3   14 1
     9    4    5 1
    10    5    6 2
    11    5    7 1
    12    7    8 1
    13    7   15 1
    14    7   16 1
    15    8    9 2
    16    8   17 1
    17    9   18 1
    18    9   19 1
@<TRIPOS>MOLECULE
ZINC04097409
   19    18     0     0     0
SMALL
USER_CHARGES
3-allylsulfanylsulfinylprop-1-ene
@<TRIPOS>ATOM
      1 C1         -0.7022   -1.0693    3.4481 C.2       1 <0>        -0.1479
      2 C2         -0.2005   -0.1106    2.7097 C.2       1 <0>        -0.1759
      3 C3          0.7558   -0.4415    1.5930 C.3       1 <0>         0.0348
      4 S1          0.0021   -0.0041    0.0020 S.3       1 <0>        -0.6612
      5 S2         -0.0257    2.0457    0.0133 S.o       1 <0>         1.2915
      6 O1          1.3482    2.4082    0.0021 O.2       1 <0>        -0.7580
      7 C4         -0.7794    2.4831   -1.5777 C.3       1 <0>        -0.3928
      8 C5         -0.8608    3.9830   -1.6995 C.2       1 <0>        -0.1592
      9 C6         -0.1676    4.6038   -2.6215 C.2       1 <0>        -0.1567
     10 H1         -1.3875   -0.8322    4.2485 H         1 <0>         0.1087
     11 H2         -0.4305   -2.0969    3.2566 H         1 <0>         0.1024
     12 H3         -0.4722    0.9170    2.9013 H         1 <0>         0.1169
     13 H4          0.9776   -1.5086    1.6088 H         1 <0>         0.1163
     14 H5          1.6785    0.1234    1.7254 H         1 <0>         0.0950
     15 H6         -0.1708    2.0851   -2.3897 H         1 <0>         0.1061
     16 H7         -1.7820    2.0591   -1.6336 H         1 <0>         0.1408
     17 H8         -1.4906    4.5460   -1.0267 H         1 <0>         0.1286
     18 H9          0.4622    4.0408   -3.2944 H         1 <0>         0.0990
     19 H10        -0.2259    5.6787   -2.7089 H         1 <0>         0.1116
@<TRIPOS>BOND
     1    1    2 2
     2    1   10 1
     3    1   11 1
     4    2    3 1
     5    2   12 1
     6    3    4 1
     7    3   13 1
     8    3   14 1
     9    4    5 1
    10    5    6 2
    11    5    7 1
    12    7    8 1
    13    7   15 1
    14    7   16 1
    15    8    9 2
    16    8   17 1
    17    9   18 1
    18    9   19 1
@<TRIPOS>MOLECULE
ZINC05706813
   59    61     0     0     0
SMALL
USER_CHARGES
2-(2-benzyloxycarbonylamino-3-phenyl-propanoyl)amino-3-(4-hydroxyphenyl)-propanoic acid
@<TRIPOS>ATOM
      1 C1         -4.6442   -0.1623   -1.3844 C.ar      1 <0>        -0.1240
      2 C2         -4.4522    1.0367   -0.7239 C.ar      1 <0>        -0.1160
      3 C3         -3.1929    1.6046   -0.6743 C.ar      1 <0>        -0.1083
      4 C4         -2.1255    0.9734   -1.2852 C.ar      1 <0>        -0.0567
      5 C5         -2.3185   -0.2230   -1.9502 C.ar      1 <0>        -0.1042
      6 C6         -3.5769   -0.7935   -1.9953 C.ar      1 <0>        -0.1139
      7 C7         -0.7527    1.5927   -1.2315 C.3       1 <0>        -0.0928
      8 C8         -0.0127    1.0858    0.0080 C.3       1 <0>         0.1584
      9 H1          0.0021   -0.0041    0.0020 H         1 <0>         0.1140
     10 C9          1.4011    1.6074   -0.0027 C.2       1 <0>         0.5162
     11 O1          1.7969    2.3051    0.9069 O.2       1 <0>        -0.5349
     12 N1          2.2256    1.2986   -1.0231 N.am      1 <0>        -0.6895
     13 C10         3.6000    1.8057   -1.0335 C.3       1 <0>         0.1102
     14 H2          3.9817    1.8419   -0.0131 H         1 <0>         0.0917
     15 C11         4.4795    0.8781   -1.8743 C.3       1 <0>        -0.0755
     16 C12         4.5585   -0.4742   -1.2139 C.ar      1 <0>        -0.0741
     17 C13         5.5623   -0.7387   -0.3006 C.ar      1 <0>        -0.0988
     18 C14         5.6335   -1.9756    0.3104 C.ar      1 <0>        -0.1412
     19 C15         4.7034   -2.9566   -0.0016 C.ar      1 <0>         0.0879
     20 C16         3.7006   -2.6906   -0.9226 C.ar      1 <0>        -0.1420
     21 C17         3.6304   -1.4502   -1.5266 C.ar      1 <0>        -0.1025
     22 O2          4.7744   -4.1760    0.5942 O.3       1 <0>        -0.5013
     23 C18         3.6199    3.1909   -1.6267 C.2       1 <0>         0.4598
     24 O3          2.5916    3.7020   -2.0023 O.co2     1 <0>        -0.6244
     25 N2         -0.6984    1.5583    1.2133 N.am      1 <0>        -0.6898
     26 C19        -1.7412    0.8645    1.7111 C.2       1 <0>         0.6509
     27 O4         -2.1126   -0.1528    1.1601 O.2       1 <0>        -0.5575
     28 O5         -2.3714    1.2987    2.8188 O.3       1 <0>        -0.3650
     29 C20        -3.4862    0.5014    3.2983 C.3       1 <0>         0.1323
     30 C21        -4.0624    1.1374    4.5371 C.ar      1 <0>        -0.0963
     31 C22        -3.5805    0.7839    5.7836 C.ar      1 <0>        -0.0933
     32 C23        -4.1058    1.3708    6.9196 C.ar      1 <0>        -0.1241
     33 C24        -5.1198    2.3038    6.8098 C.ar      1 <0>        -0.1106
     34 C25        -5.6056    2.6531    5.5636 C.ar      1 <0>        -0.1246
     35 C26        -5.0768    2.0701    4.4273 C.ar      1 <0>        -0.0928
     36 H3         -5.6282   -0.6058   -1.4235 H         1 <0>         0.1126
     37 H4         -5.2862    1.5300   -0.2469 H         1 <0>         0.1116
     38 H5         -3.0430    2.5415   -0.1585 H         1 <0>         0.1111
     39 H6         -1.4855   -0.7140   -2.4313 H         1 <0>         0.1168
     40 H7         -3.7269   -1.7301   -2.5117 H         1 <0>         0.1147
     41 H8         -0.8452    2.6775   -1.1811 H         1 <0>         0.0884
     42 H9         -0.1944    1.3168   -2.1261 H         1 <0>         0.0923
     43 H10         1.9090    0.7406   -1.7506 H         1 <0>         0.3919
     44 H11         4.0479    0.7718   -2.8696 H         1 <0>         0.0744
     45 H12         5.4805    1.3017   -1.9557 H         1 <0>         0.1004
     46 H13         6.2887    0.0239   -0.0613 H         1 <0>         0.1297
     47 H14         6.4151   -2.1803    1.0270 H         1 <0>         0.1250
     48 H15         2.9752   -3.4526   -1.1669 H         1 <0>         0.1247
     49 H16         2.8497   -1.2425   -2.2434 H         1 <0>         0.1232
     50 H17         5.3170   -4.8170    0.1149 H         1 <0>         0.3846
     51 H18        -0.4019    2.3704    1.6532 H         1 <0>         0.4159
     52 H19        -4.2538    0.4487    2.5263 H         1 <0>         0.0793
     53 H20        -3.1386   -0.5043    3.5343 H         1 <0>         0.0774
     54 H21        -2.7911    0.0519    5.8696 H         1 <0>         0.1248
     55 H22        -3.7265    1.0976    7.8932 H         1 <0>         0.1247
     56 H23        -5.5328    2.7596    7.6975 H         1 <0>         0.1230
     57 H24        -6.3981    3.3818    5.4778 H         1 <0>         0.1245
     58 H25        -5.4563    2.3430    3.4537 H         1 <0>         0.1246
     59 O6          4.7801    3.8568   -1.7379 O.co2     1 <0>        -0.7628
@<TRIPOS>BOND
     1    1    6 ar
     2    1    2 ar
     3    1   36 1
     4    2    3 ar
     5    2   37 1
     6    3    4 ar
     7    3   38 1
     8    4    5 ar
     9    4    7 1
    10    5    6 ar
    11    5   39 1
    12    6   40 1
    13    7    8 1
    14    7   41 1
    15    7   42 1
    16    8    9 1
    17    8   10 1
    18    8   25 1
    19   10   11 2
    20   10   12 am
    21   12   13 1
    22   12   43 1
    23   13   14 1
    24   13   15 1
    25   13   23 1
    26   15   16 1
    27   15   44 1
    28   15   45 1
    29   16   21 ar
    30   16   17 ar
    31   17   18 ar
    32   17   46 1
    33   18   19 ar
    34   18   47 1
    35   19   20 ar
    36   19   22 1
    37   20   21 ar
    38   20   48 1
    39   21   49 1
    40   22   50 1
    41   23   24 2
    42   23   59 1
    43   25   26 am
    44   25   51 1
    45   26   27 2
    46   26   28 1
    47   28   29 1
    48   29   30 1
    49   29   52 1
    50   29   53 1
    51   30   35 ar
    52   30   31 ar
    53   31   32 ar
    54   31   54 1
    55   32   33 ar
    56   32   55 1
    57   33   34 ar
    58   33   56 1
    59   34   35 ar
    60   34   57 1
    61   35   58 1
@<TRIPOS>MOLECULE
ZINC05608787
   58    60     0     0     0
SMALL
USER_CHARGES

@<TRIPOS>ATOM
      1 C1         -0.0167    1.3781    0.0096 C.ar      1 <0>        -0.1240
      2 C2          1.1709    2.0855    0.0021 C.ar      1 <0>        -0.1162
      3 C3          2.3773    1.4107   -0.0130 C.ar      1 <0>        -0.1087
      4 C4          2.3960    0.0285   -0.0201 C.ar      1 <0>        -0.0565
      5 C5          1.2084   -0.6789   -0.0117 C.ar      1 <0>        -0.1034
      6 C6          0.0021   -0.0041    0.0020 C.ar      1 <0>        -0.1141
      7 C7          3.7112   -0.7071   -0.0376 C.3       1 <0>        -0.0941
      8 C8          4.1714   -0.9633    1.3989 C.3       1 <0>         0.1584
      9 H1          3.3868   -1.4885    1.9436 H         1 <0>         0.1141
     10 C9          5.4216   -1.8045    1.3834 C.2       1 <0>         0.5088
     11 O1          6.4455   -1.3782    1.8741 O.2       1 <0>        -0.5370
     12 N1          5.4019   -3.0307    0.8243 N.am      1 <0>        -0.6828
     13 C10         6.6173   -3.8485    0.8092 C.3       1 <0>         0.0855
     14 H2          7.1849   -3.6726    1.7230 H         1 <0>         0.0848
     15 C11         6.2357   -5.3276    0.7225 C.3       1 <0>        -0.0782
     16 C12         5.4995   -5.7306    1.9741 C.ar      1 <0>        -0.0661
     17 C13         6.2011   -6.2083    3.0652 C.ar      1 <0>        -0.1165
     18 C14         5.5258   -6.5781    4.2133 C.ar      1 <0>        -0.1186
     19 C15         4.1489   -6.4696    4.2705 C.ar      1 <0>        -0.1337
     20 C16         3.4474   -5.9911    3.1798 C.ar      1 <0>        -0.1194
     21 C17         4.1231   -5.6173    2.0332 C.ar      1 <0>        -0.1181
     22 C18         7.4587   -3.4760   -0.3843 C.2       1 <0>         0.4929
     23 O2          8.6721   -3.5819   -0.3316 O.co2     1 <0>        -0.6903
     24 O3          6.9259   -3.0686   -1.4025 O.co2     1 <0>        -0.6868
     25 N2          4.4511    0.3151    2.0574 N.am      1 <0>        -0.6890
     26 C19         3.4510    1.0070    2.6383 C.2       1 <0>         0.6506
     27 O4          2.3172    0.5705    2.6158 O.2       1 <0>        -0.5563
     28 O5          3.7080    2.1819    3.2434 O.3       1 <0>        -0.3605
     29 C20         2.6005    2.8613    3.8383 C.3       1 <0>         0.1309
     30 C21         3.0768    4.1475    4.4628 C.ar      1 <0>        -0.0954
     31 C22         3.5015    4.1614    5.7782 C.ar      1 <0>        -0.0936
     32 C23         3.9383    5.3412    6.3510 C.ar      1 <0>        -0.1241
     33 C24         3.9509    6.5070    5.6083 C.ar      1 <0>        -0.1110
     34 C25         3.5271    6.4929    4.2926 C.ar      1 <0>        -0.1245
     35 C26         3.0943    5.3123    3.7185 C.ar      1 <0>        -0.0931
     36 H3         -0.9591    1.9053    0.0259 H         1 <0>         0.1126
     37 H4          1.1563    3.1654    0.0076 H         1 <0>         0.1116
     38 H5          3.3051    1.9634   -0.0196 H         1 <0>         0.1109
     39 H6          1.2231   -1.7588   -0.0176 H         1 <0>         0.1172
     40 H7         -0.9258   -0.5567    0.0082 H         1 <0>         0.1148
     41 H8          3.5884   -1.6586   -0.5549 H         1 <0>         0.0945
     42 H9          4.4573   -0.1052   -0.5563 H         1 <0>         0.0870
     43 H10         4.5830   -3.3717    0.4319 H         1 <0>         0.3924
     44 H11         5.5938   -5.4870   -0.1439 H         1 <0>         0.0772
     45 H12         7.1383   -5.9304    0.6219 H         1 <0>         0.0886
     46 H13         7.2769   -6.2931    3.0205 H         1 <0>         0.1226
     47 H14         6.0739   -6.9520    5.0655 H         1 <0>         0.1176
     48 H15         3.6212   -6.7592    5.1672 H         1 <0>         0.1155
     49 H16         2.3716   -5.9067    3.2243 H         1 <0>         0.1176
     50 H17         3.5753   -5.2399    1.1823 H         1 <0>         0.1181
     51 H18         5.3562    0.6636    2.0753 H         1 <0>         0.4160
     52 H19         1.8565    3.0827    3.0731 H         1 <0>         0.0766
     53 H20         2.1553    2.2280    4.6055 H         1 <0>         0.0744
     54 H21         3.4916    3.2506    6.3585 H         1 <0>         0.1246
     55 H22         4.2695    5.3522    7.3789 H         1 <0>         0.1245
     56 H23         4.2916    7.4289    6.0561 H         1 <0>         0.1229
     57 H24         3.5366    7.4038    3.7124 H         1 <0>         0.1245
     58 H25         2.7666    5.3005    2.6894 H         1 <0>         0.1245
@<TRIPOS>BOND
     1    1    6 ar
     2    1    2 ar
     3    1   36 1
     4    2    3 ar
     5    2   37 1
     6    3    4 ar
     7    3   38 1
     8    4    5 ar
     9    4    7 1
    10    5    6 ar
    11    5   39 1
    12    6   40 1
    13    7    8 1
    14    7   41 1
    15    7   42 1
    16    8    9 1
    17    8   10 1
    18    8   25 1
    19   10   11 2
    20   10   12 am
    21   12   13 1
    22   12   43 1
    23   13   14 1
    24   13   15 1
    25   13   22 1
    26   15   16 1
    27   15   44 1
    28   15   45 1
    29   16   21 ar
    30   16   17 ar
    31   17   18 ar
    32   17   46 1
    33   18   19 ar
    34   18   47 1
    35   19   20 ar
    36   19   48 1
    37   20   21 ar
    38   20   49 1
    39   21   50 1
    40   22   23 2
    41   22   24 1
    42   25   26 am
    43   25   51 1
    44   26   27 2
    45   26   28 1
    46   28   29 1
    47   29   30 1
    48   29   52 1
    49   29   53 1
    50   30   35 ar
    51   30   31 ar
    52   31   32 ar
    53   31   54 1
    54   32   33 ar
    55   32   55 1
    56   33   34 ar
    57   33   56 1
    58   34   35 ar
    59   34   57 1
    60   35   58 1
@<TRIPOS>MOLECULE
ZINC03954923
   64    66     0     0     0
SMALL
USER_CHARGES
N-[1-(cyanomethylcarbamoyl)cyclohexyl]-4-(4-propylpiperazin-1-yl)-benzamide
@<TRIPOS>ATOM
      1 C1          0.6709    0.7418    4.5510 C.3       1 <0>        -0.1569
      2 C2         -0.0317    1.3625    3.3419 C.3       1 <0>        -0.1536
      3 C3          0.3496    0.5893    2.0780 C.3       1 <0>        -0.0046
      4 C4          0.1952    0.6266   -0.3386 C.3       1 <0>         0.0026
      5 C5         -0.5854    1.2128   -1.5173 C.3       1 <0>         0.0187
      6 N1         -0.4609    2.6770   -1.5043 N.pl3     1 <0>        -0.4877
      7 C6         -0.9817    3.2358   -0.2488 C.3       1 <0>         0.0258
      8 C7         -0.2010    2.6496    0.9299 C.3       1 <0>        -0.0051
      9 C8         -1.0991    3.2411   -2.6034 C.ar      1 <0>         0.1170
     10 C9         -1.7350    2.4228   -3.5330 C.ar      1 <0>        -0.1716
     11 C10        -2.3723    2.9785   -4.6187 C.ar      1 <0>        -0.0568
     12 C11        -2.3712    4.3654   -4.7935 C.ar      1 <0>        -0.1428
     13 C12        -1.7269    5.1840   -3.8613 C.ar      1 <0>        -0.0288
     14 C13        -1.0959    4.6227   -2.7749 C.ar      1 <0>        -0.1363
     15 C14        -3.0491    4.9640   -5.9590 C.2       1 <0>         0.5549
     16 O1         -3.0477    6.1706   -6.1097 O.2       1 <0>        -0.5086
     17 N2         -3.6699    4.1735   -6.8569 N.am      1 <0>        -0.7213
     18 C15        -4.4333    4.7714   -7.9551 C.3       1 <0>         0.1727
     19 C16        -5.5724    5.6175   -7.3829 C.3       1 <0>        -0.1182
     20 C17        -6.4948    4.7307   -6.5441 C.3       1 <0>        -0.1147
     21 C18        -7.0754    3.6222   -7.4244 C.3       1 <0>        -0.1251
     22 C19        -5.9363    2.7760   -7.9966 C.3       1 <0>        -0.1156
     23 C20        -5.0139    3.6629   -8.8354 C.3       1 <0>        -0.1222
     24 C21        -3.5247    5.6450   -8.7812 C.2       1 <0>         0.5296
     25 O2         -3.9499    6.6693   -9.2719 O.2       1 <0>        -0.5122
     26 N3         -2.2396    5.2879   -8.9747 N.am      1 <0>        -0.7268
     27 C22        -1.3845    6.0809   -9.8613 C.3       1 <0>         0.2177
     28 C23        -0.0378    5.4882   -9.9034 C.1       1 <0>         0.1906
     29 N4          1.0015    5.0308   -9.9359 N.1       1 <0>        -0.4001
     30 H1          1.7504    0.7892    4.4078 H         1 <0>         0.0674
     31 H2          0.3993    1.2926    5.4515 H         1 <0>         0.0778
     32 H3          0.3636   -0.2988    4.6551 H         1 <0>         0.0671
     33 H4          0.2756    2.4031    3.2379 H         1 <0>         0.0885
     34 H5         -1.1112    1.3151    3.4851 H         1 <0>         0.0854
     35 H6          0.0423   -0.4513    2.1820 H         1 <0>         0.1301
     36 H7          1.4291    0.6368    1.9348 H         1 <0>         0.1322
     37 H8          0.0805   -0.4573   -0.3294 H         1 <0>         0.1391
     38 H9          1.2506    0.8797   -0.4395 H         1 <0>         0.1409
     39 H10        -0.1818    0.8218   -2.4513 H         1 <0>         0.1311
     40 H11        -1.6363    0.9364   -1.4310 H         1 <0>         0.0739
     41 H12        -0.8669    4.3197   -0.2580 H         1 <0>         0.1302
     42 H13        -2.0371    2.9827   -0.1483 H         1 <0>         0.0722
     43 H14         0.8498    2.9260    0.8436 H         1 <0>         0.1417
     44 H15        -0.6044    3.0409    1.8638 H         1 <0>         0.1424
     45 H16        -1.7317    1.3511   -3.3997 H         1 <0>         0.1342
     46 H17        -2.8693    2.3434   -5.3371 H         1 <0>         0.1319
     47 H18        -1.7240    6.2559   -3.9939 H         1 <0>         0.1460
     48 H19        -0.5979    5.2546   -2.0544 H         1 <0>         0.1363
     49 H20        -3.6112    3.2087   -6.7760 H         1 <0>         0.4024
     50 H21        -5.1588    6.4073   -6.7557 H         1 <0>         0.0861
     51 H22        -6.1404    6.0624   -8.1999 H         1 <0>         0.0881
     52 H23        -7.3064    5.3335   -6.1365 H         1 <0>         0.0695
     53 H24        -5.9268    4.2858   -5.7271 H         1 <0>         0.0584
     54 H25        -7.6434    4.0670   -8.2415 H         1 <0>         0.0695
     55 H26        -7.7326    2.9903   -6.8269 H         1 <0>         0.0663
     56 H27        -6.3500    1.9863   -8.6238 H         1 <0>         0.0754
     57 H28        -5.3683    2.3312   -7.1796 H         1 <0>         0.0597
     58 H29        -5.5819    4.1078   -9.6524 H         1 <0>         0.0944
     59 H30        -4.2024    3.0601   -9.2430 H         1 <0>         0.0767
     60 H31        -1.8809    4.5057   -8.5269 H         1 <0>         0.4019
     61 H32        -1.8097    6.0885  -10.8649 H         1 <0>         0.1180
     62 H33        -1.3204    7.1023   -9.4862 H         1 <0>         0.1177
     63 N5         -0.3524    1.1792    0.9180 N.4       1 <0>        -0.3985
     64 H34        -1.3505    0.9460    0.9783 H         1 <0>         0.4255
@<TRIPOS>BOND
     1    1    2 1
     2    1   30 1
     3    1   31 1
     4    1   32 1
     5    2    3 1
     6    2   33 1
     7    2   34 1
     8    3   35 1
     9    3   36 1
    10    3   63 1
    11    4    5 1
    12    4   37 1
    13    4   38 1
    14    4   63 1
    15    5    6 1
    16    5   39 1
    17    5   40 1
    18    6    7 1
    19    6    9 1
    20    7    8 1
    21    7   41 1
    22    7   42 1
    23    8   43 1
    24    8   44 1
    25    8   63 1
    26    9   14 ar
    27    9   10 ar
    28   10   11 ar
    29   10   45 1
    30   11   12 ar
    31   11   46 1
    32   12   13 ar
    33   12   15 1
    34   13   14 ar
    35   13   47 1
    36   14   48 1
    37   15   16 2
    38   15   17 am
    39   17   18 1
    40   17   49 1
    41   18   23 1
    42   18   19 1
    43   18   24 1
    44   19   20 1
    45   19   50 1
    46   19   51 1
    47   20   21 1
    48   20   52 1
    49   20   53 1
    50   21   22 1
    51   21   54 1
    52   21   55 1
    53   22   23 1
    54   22   56 1
    55   22   57 1
    56   23   58 1
    57   23   59 1
    58   24   25 2
    59   24   26 am
    60   26   27 1
    61   26   60 1
    62   27   28 1
    63   27   61 1
    64   27   62 1
    65   28   29 3
    66   63   64 1
@<TRIPOS>MOLECULE
ZINC00812571
   37    39     0     0     0
SMALL
USER_CHARGES

@<TRIPOS>ATOM
      1 C1         -0.0184    1.5028    0.0103 C.3       1 <0>        -0.1279
      2 C2          0.0021   -0.0041    0.0020 C.ar      1 <0>        -0.0183
      3 C3          0.0057   -0.6887   -1.1989 C.ar      1 <0>        -0.1411
      4 C4          0.0245   -2.0709   -1.2065 C.ar      1 <0>        -0.0153
      5 C5          0.0400   -2.7685   -0.0132 C.ar      1 <0>        -0.6846
      6 C6          0.0373   -2.0839    1.1877 C.ar      1 <0>        -0.0014
      7 C7          0.0229   -0.7016    1.1953 C.ar      1 <0>        -0.1401
      8 S1          0.0628   -4.5303   -0.0229 S.o2      1 <0>         2.6947
      9 O1         -0.4759   -4.9503    1.2232 O.2       1 <0>        -0.9030
     10 O2         -0.4897   -4.9367   -1.2674 O.2       1 <0>        -0.9328
     11 N1          1.6509   -4.9994   -0.0343 N.pl3     1 <0>        -0.7437
     12 C8          2.4126   -5.2146   -1.1379 C.2       1 <0>         0.4041
     13 C9          3.6525   -5.5847   -0.7152 C.2       1 <0>        -0.3048
     14 C10         3.6425   -5.5944    0.6864 C.2       1 <0>         0.3086
     15 N2          2.4476   -5.2386    1.0926 N.2       1 <0>        -0.2610
     16 O3          4.6938   -5.9129    1.4879 O.3       1 <0>        -0.2462
     17 C11         4.5079   -5.8698    2.8233 C.2       1 <0>         0.5416
     18 O4          3.4245   -5.5530    3.2766 O.2       1 <0>        -0.4247
     19 C12         5.6105   -6.2044    3.7273 C.2       1 <0>        -0.0683
     20 C13         5.5571   -6.2066    5.0927 C.2       1 <0>        -0.0925
     21 C14         6.8299   -6.5860    5.5455 C.2       1 <0>        -0.2278
     22 C15         7.5952   -6.7963    4.4514 C.2       1 <0>         0.0169
     23 O5          6.8557   -6.5703    3.3580 O.3       1 <0>        -0.1512
     24 N3          2.0003   -5.0814   -2.4606 N.pl3     1 <0>        -0.8406
     25 H1          1.0042    1.8801    0.0026 H         1 <0>         0.0825
     26 H2         -0.5455    1.8639   -0.8728 H         1 <0>         0.0756
     27 H3         -0.5286    1.8543    0.9071 H         1 <0>         0.0760
     28 H4         -0.0064   -0.1436   -2.1312 H         1 <0>         0.1375
     29 H5          0.0266   -2.6057   -2.1448 H         1 <0>         0.1390
     30 H6          0.0491   -2.6289    2.1200 H         1 <0>         0.1470
     31 H7          0.0245   -0.1667    2.1335 H         1 <0>         0.1386
     32 H8          4.4938   -5.8280   -1.3472 H         1 <0>         0.1698
     33 H9          4.7012   -5.9634    5.7048 H         1 <0>         0.1684
     34 H10         7.1398   -6.6901    6.5748 H         1 <0>         0.1648
     35 H11         8.6314   -7.1005    4.4578 H         1 <0>         0.2181
     36 H12         1.0904   -4.8110   -2.6600 H         1 <0>         0.4157
     37 H13         2.6230   -5.2588   -3.1829 H         1 <0>         0.4264
@<TRIPOS>BOND
     1    1    2 1
     2    1   25 1
     3    1   26 1
     4    1   27 1
     5    2    7 ar
     6    2    3 ar
     7    3    4 ar
     8    3   28 1
     9    4    5 ar
    10    4   29 1
    11    5    6 ar
    12    5    8 1
    13    6    7 ar
    14    6   30 1
    15    7   31 1
    16    8    9 2
    17    8   10 2
    18    8   11 1
    19   11   15 1
    20   11   12 1
    21   12   13 2
    22   12   24 1
    23   13   14 1
    24   13   32 1
    25   14   15 2
    26   14   16 1
    27   16   17 1
    28   17   18 2
    29   17   19 1
    30   19   23 1
    31   19   20 2
    32   20   21 1
    33   20   33 1
    34   21   22 2
    35   21   34 1
    36   22   23 1
    37   22   35 1
    38   24   36 1
    39   24   37 1
@<TRIPOS>MOLECULE
ZINC04076024
   34    36     0     0     0
SMALL
USER_CHARGES

@<TRIPOS>ATOM
      1 C1         -0.0167    1.3781    0.0096 C.ar      1 <0>        -0.0537
      2 C2          1.1709    2.0855    0.0021 C.ar      1 <0>        -0.1384
      3 C3          2.3773    1.4107   -0.0130 C.ar      1 <0>        -0.0209
      4 C4          2.3960    0.0285   -0.0201 C.ar      1 <0>        -0.6775
      5 C5          1.2084   -0.6789   -0.0117 C.ar      1 <0>        -0.0068
      6 C6          0.0021   -0.0041    0.0020 C.ar      1 <0>        -0.1370
      7 S1          3.9337   -0.8316   -0.0405 S.o2      1 <0>         2.6945
      8 O1          3.6744   -2.1140   -0.5951 O.2       1 <0>        -0.9023
      9 O2          4.8903    0.0598   -0.5970 O.2       1 <0>        -0.9324
     10 N1          4.3776   -1.0785    1.5357 N.pl3     1 <0>        -0.7444
     11 C7          5.1233   -0.2367    2.2971 C.2       1 <0>         0.4034
     12 C8          5.2598   -0.8064    3.5258 C.2       1 <0>        -0.3054
     13 C9          4.5765   -2.0302    3.5092 C.2       1 <0>         0.3105
     14 N2          4.0452   -2.1896    2.3210 N.2       1 <0>        -0.2598
     15 O3          4.4777   -2.9010    4.5488 O.3       1 <0>        -0.2519
     16 C10         3.7780   -4.0384    4.3579 C.2       1 <0>         0.5434
     17 O4          3.2587   -4.2595    3.2804 O.2       1 <0>        -0.4343
     18 C11         3.6437   -5.0067    5.4475 C.2       1 <0>        -0.2589
     19 C12         2.9800   -6.2253    5.4579 C.2       1 <0>        -0.0465
     20 C13         3.0291   -6.9211    6.6414 C.2       1 <0>        -0.1910
     21 C14         3.7023   -6.3890    7.6918 C.2       1 <0>        -0.2165
     22 S2          4.2966   -4.9315    7.1047 S.3       1 <0>         0.2621
     23 N3          5.6523    0.9861    1.8941 N.pl3     1 <0>        -0.8410
     24 H1         -0.9591    1.9053    0.0259 H         1 <0>         0.1364
     25 H2          1.1563    3.1654    0.0076 H         1 <0>         0.1380
     26 H3          3.3051    1.9634   -0.0196 H         1 <0>         0.1389
     27 H4          1.2231   -1.7588   -0.0176 H         1 <0>         0.1469
     28 H5         -0.9258   -0.5567    0.0082 H         1 <0>         0.1391
     29 H6          5.7988   -0.3899    4.3639 H         1 <0>         0.1699
     30 H7          2.4580   -6.6026    4.5910 H         1 <0>         0.1549
     31 H8          2.5381   -7.8785    6.7343 H         1 <0>         0.1444
     32 H9          3.8311   -6.8087    8.6786 H         1 <0>         0.1944
     33 H10         5.4987    1.3072    0.9918 H         1 <0>         0.4156
     34 H11         6.1745    1.5170    2.5156 H         1 <0>         0.4263
@<TRIPOS>BOND
     1    1    6 ar
     2    1    2 ar
     3    1   24 1
     4    2    3 ar
     5    2   25 1
     6    3    4 ar
     7    3   26 1
     8    4    5 ar
     9    4    7 1
    10    5    6 ar
    11    5   27 1
    12    6   28 1
    13    7    8 2
    14    7    9 2
    15    7   10 1
    16   10   14 1
    17   10   11 1
    18   11   12 2
    19   11   23 1
    20   12   13 1
    21   12   29 1
    22   13   14 2
    23   13   15 1
    24   15   16 1
    25   16   17 2
    26   16   18 1
    27   18   22 1
    28   18   19 2
    29   19   20 1
    30   19   30 1
    31   20   21 2
    32   20   31 1
    33   21   22 1
    34   21   32 1
    35   23   33 1
    36   23   34 1
@<TRIPOS>MOLECULE
ZINC04078718
   34    36     0     0     0
SMALL
USER_CHARGES

@<TRIPOS>ATOM
      1 C1         -0.0163    1.3521    0.0095 C.2       1 <0>        -0.1912
      2 C2          1.1749    2.0363    0.0018 C.2       1 <0>        -0.0460
      3 C3          2.3198    1.2524   -0.0134 C.2       1 <0>        -0.2596
      4 S1          1.6361   -0.3940   -0.0157 S.3       1 <0>         0.2624
      5 C4          0.0021   -0.0041    0.0020 C.2       1 <0>        -0.2161
      6 C5          3.7231    1.6688   -0.0249 C.2       1 <0>         0.5439
      7 O1          4.0066    2.8517   -0.0217 O.2       1 <0>        -0.4345
      8 O2          4.7020    0.7407   -0.0392 O.3       1 <0>        -0.2518
      9 C6          5.9912    1.1727   -0.0496 C.2       1 <0>         0.3119
     10 C7          7.1303    0.3561   -0.0705 C.2       1 <0>        -0.3042
     11 C8          8.2238    1.1668   -0.0758 C.2       1 <0>         0.4029
     12 N1          7.7818    2.4509   -0.0587 N.pl3     1 <0>        -0.7453
     13 N2          6.3815    2.4246   -0.0475 N.2       1 <0>        -0.2602
     14 S2          8.7309    3.8080   -0.0564 S.o2      1 <0>         2.6991
     15 O3          7.9493    4.8492    0.5131 O.2       1 <0>        -0.8993
     16 O4          9.9902    3.4220    0.4769 O.2       1 <0>        -0.9296
     17 C9          9.0108    4.2509   -1.7387 C.ar      1 <0>        -0.6944
     18 C10        10.0986    3.7338   -2.4172 C.ar      1 <0>         0.0106
     19 C11        10.3189    4.0800   -3.7369 C.ar      1 <0>        -0.1733
     20 C12         9.4496    4.9452   -4.3794 C.ar      1 <0>         0.1679
     21 C13         8.3604    5.4625   -3.6988 C.ar      1 <0>        -0.1721
     22 C14         8.1392    5.1107   -2.3807 C.ar      1 <0>         0.0245
     23 F1          9.6642    5.2848   -5.6693 F         1 <0>        -0.1238
     24 N3          9.5531    0.7547   -0.0951 N.pl3     1 <0>        -0.8410
     25 H1         -0.9546    1.8868    0.0258 H         1 <0>         0.1445
     26 H2          1.2176    3.1155    0.0068 H         1 <0>         0.1550
     27 H3         -0.8410   -0.6790    0.0068 H         1 <0>         0.1944
     28 H4          7.1389   -0.7238   -0.0803 H         1 <0>         0.1702
     29 H5         10.7767    3.0592   -1.9157 H         1 <0>         0.1499
     30 H6         11.1690    3.6762   -4.2666 H         1 <0>         0.1519
     31 H7          7.6818    6.1377   -4.1988 H         1 <0>         0.1529
     32 H8          7.2872    5.5105   -1.8510 H         1 <0>         0.1581
     33 H9          9.7675   -0.1913   -0.1068 H         1 <0>         0.4267
     34 H10        10.2651    1.4134   -0.0970 H         1 <0>         0.4154
@<TRIPOS>BOND
     1    1    5 2
     2    1    2 1
     3    1   25 1
     4    2    3 2
     5    2   26 1
     6    3    4 1
     7    3    6 1
     8    4    5 1
     9    5   27 1
    10    6    7 2
    11    6    8 1
    12    8    9 1
    13    9   13 2
    14    9   10 1
    15   10   11 2
    16   10   28 1
    17   11   12 1
    18   11   24 1
    19   12   13 1
    20   12   14 1
    21   14   15 2
    22   14   16 2
    23   14   17 1
    24   17   22 ar
    25   17   18 ar
    26   18   19 ar
    27   18   29 1
    28   19   20 ar
    29   19   30 1
    30   20   21 ar
    31   20   23 1
    32   21   22 ar
    33   21   31 1
    34   22   32 1
    35   24   33 1
    36   24   34 1
@<TRIPOS>MOLECULE
ZINC04535621
   57    58     0     0     0
SMALL
USER_CHARGES
2-(2-benzyloxycarbonylamino-3-phenyl-propanoyl)amino-4-methyl-pentanoic acid
@<TRIPOS>ATOM
      1 C1         -8.7348    3.1032    1.9981 C.3       1 <0>        -0.1445
      2 C2         -7.7285    1.9576    2.1239 C.3       1 <0>        -0.0974
      3 C3         -8.0905    1.0911    3.3318 C.3       1 <0>        -0.1480
      4 C4         -7.7660    1.1042    0.8545 C.3       1 <0>        -0.1049
      5 C5         -6.6747    0.0343    0.9269 C.3       1 <0>         0.1008
      6 H1         -6.7931   -0.5441    1.8431 H         1 <0>         0.0933
      7 C6         -6.7898   -0.8820   -0.2640 C.2       1 <0>         0.4580
      8 O1         -5.8672   -0.9866   -1.0372 O.co2     1 <0>        -0.6290
      9 N1         -5.3587    0.6780    0.9223 N.am      1 <0>        -0.6893
     10 C7         -4.2988    0.0485    1.4671 C.2       1 <0>         0.5141
     11 O2         -4.4344   -1.0508    1.9610 O.2       1 <0>        -0.5364
     12 C8         -2.9450    0.7107    1.4624 C.3       1 <0>         0.1581
     13 H2         -2.9998    1.6534    2.0069 H         1 <0>         0.1139
     14 C9         -2.5137    0.9795    0.0193 C.3       1 <0>        -0.0931
     15 C10        -1.2190    1.7506    0.0173 C.ar      1 <0>        -0.0571
     16 C11        -0.0126    1.0758    0.0080 C.ar      1 <0>        -0.1081
     17 C12         1.1750    1.7832    0.0004 C.ar      1 <0>        -0.1165
     18 C13         1.1563    3.1654    0.0076 C.ar      1 <0>        -0.1241
     19 C14        -0.0501    3.8402    0.0223 C.ar      1 <0>        -0.1144
     20 C15        -1.2377    3.1328    0.0299 C.ar      1 <0>        -0.1036
     21 N2         -1.9684   -0.1700    2.1080 N.am      1 <0>        -0.6897
     22 C16        -0.8609    0.3509    2.6725 C.2       1 <0>         0.6508
     23 O3         -0.6725    1.5510    2.6460 O.2       1 <0>        -0.5581
     24 O4          0.0366   -0.4585    3.2658 O.3       1 <0>        -0.3651
     25 C17         1.2056    0.1717    3.8528 C.3       1 <0>         0.1324
     26 C18         2.0903   -0.8831    4.4659 C.ar      1 <0>        -0.0965
     27 C19         1.9162   -1.2483    5.7878 C.ar      1 <0>        -0.0934
     28 C20         2.7245   -2.2193    6.3488 C.ar      1 <0>        -0.1242
     29 C21         3.7134   -2.8179    5.5908 C.ar      1 <0>        -0.1106
     30 C22         3.8912   -2.4487    4.2706 C.ar      1 <0>        -0.1245
     31 C23         3.0795   -1.4815    3.7081 C.ar      1 <0>        -0.0927
     32 H3         -9.7363    2.6942    1.8647 H         1 <0>         0.0544
     33 H4         -8.7081    3.7112    2.9024 H         1 <0>         0.0491
     34 H5         -8.4769    3.7205    1.1375 H         1 <0>         0.0520
     35 H6         -6.7270    2.3666    2.2572 H         1 <0>         0.0655
     36 H7         -9.0920    0.6821    3.1985 H         1 <0>         0.0556
     37 H8         -7.3737    0.2749    3.4214 H         1 <0>         0.0578
     38 H9         -8.0638    1.6991    4.2361 H         1 <0>         0.0471
     39 H10        -7.5956    1.7388   -0.0151 H         1 <0>         0.0609
     40 H11        -8.7407    0.6238    0.7684 H         1 <0>         0.0873
     41 H12        -5.2502    1.5572    0.5273 H         1 <0>         0.3930
     42 H13        -3.2837    1.5610   -0.4877 H         1 <0>         0.0930
     43 H14        -2.3729    0.0317   -0.5003 H         1 <0>         0.0881
     44 H15         0.0021   -0.0041    0.0020 H         1 <0>         0.1111
     45 H16         2.1175    1.2560   -0.0115 H         1 <0>         0.1116
     46 H17         2.0841    3.7181    0.0014 H         1 <0>         0.1126
     47 H18        -0.0647    4.9201    0.0276 H         1 <0>         0.1147
     48 H19        -2.1802    3.6600    0.0410 H         1 <0>         0.1170
     49 H20        -2.1188   -1.1280    2.1292 H         1 <0>         0.4160
     50 H21         1.7583    0.7045    3.0790 H         1 <0>         0.0793
     51 H22         0.8907    0.8748    4.6239 H         1 <0>         0.0773
     52 H23         1.1462   -0.7776    6.3811 H         1 <0>         0.1247
     53 H24         2.5858   -2.5075    7.3804 H         1 <0>         0.1247
     54 H25         4.3473   -3.5739    6.0302 H         1 <0>         0.1230
     55 H26         4.6641   -2.9162    3.6786 H         1 <0>         0.1246
     56 H27         3.2184   -1.1930    2.6767 H         1 <0>         0.1246
     57 O5         -7.9172   -1.5820   -0.4658 O.co2     1 <0>        -0.7655
@<TRIPOS>BOND
     1    1    2 1
     2    1   32 1
     3    1   33 1
     4    1   34 1
     5    2    3 1
     6    2    4 1
     7    2   35 1
     8    3   36 1
     9    3   37 1
    10    3   38 1
    11    4    5 1
    12    4   39 1
    13    4   40 1
    14    5    6 1
    15    5    7 1
    16    5    9 1
    17    7    8 2
    18    7   57 1
    19    9   10 am
    20    9   41 1
    21   10   11 2
    22   10   12 1
    23   12   13 1
    24   12   14 1
    25   12   21 1
    26   14   15 1
    27   14   42 1
    28   14   43 1
    29   15   20 ar
    30   15   16 ar
    31   16   17 ar
    32   16   44 1
    33   17   18 ar
    34   17   45 1
    35   18   19 ar
    36   18   46 1
    37   19   20 ar
    38   19   47 1
    39   20   48 1
    40   21   22 am
    41   21   49 1
    42   22   23 2
    43   22   24 1
    44   24   25 1
    45   25   26 1
    46   25   50 1
    47   25   51 1
    48   26   31 ar
    49   26   27 ar
    50   27   28 ar
    51   27   52 1
    52   28   29 ar
    53   28   53 1
    54   29   30 ar
    55   29   54 1
    56   30   31 ar
    57   30   55 1
    58   31   56 1
@<TRIPOS>MOLECULE
ZINC01534489
   54    55     0     0     0
SMALL
USER_CHARGES

@<TRIPOS>ATOM
      1 C1         -0.0187    1.5258    0.0104 C.3       1 <0>        -0.1390
      2 C2          0.0021   -0.0041    0.0020 C.3       1 <0>        -0.1008
      3 C3          0.7421   -0.5109    1.2415 C.3       1 <0>        -0.1480
      4 C4         -1.4333   -0.5336    0.0129 C.3       1 <0>         0.1516
      5 H1         -1.9605   -0.1726   -0.8702 H         1 <0>         0.1198
      6 C5         -1.4129   -2.0405    0.0046 C.2       1 <0>         0.5252
      7 O1         -1.9211   -2.6589    0.9158 O.2       1 <0>        -0.5300
      8 N1         -0.8299   -2.7009   -1.0154 N.am      1 <0>        -0.7064
      9 C6         -0.8100   -4.1658   -1.0235 C.3       1 <0>         0.0836
     10 H2         -0.7057   -4.5333   -0.0026 H         1 <0>         0.1247
     11 C7          0.3705   -4.6552   -1.8648 C.3       1 <0>        -0.0815
     12 C8          1.6618   -4.2426   -1.2065 C.ar      1 <0>        -0.0862
     13 C9          2.2373   -3.0246   -1.5166 C.ar      1 <0>        -0.1116
     14 C10         3.4218   -2.6461   -0.9128 C.ar      1 <0>        -0.1146
     15 C11         4.0305   -3.4854    0.0015 C.ar      1 <0>        -0.1185
     16 C12         3.4545   -4.7030    0.3123 C.ar      1 <0>        -0.1159
     17 C13         2.2678   -5.0796   -0.2883 C.ar      1 <0>        -0.1128
     18 C14        -2.0964   -4.6824   -1.6145 C.2       1 <0>         0.3287
     19 O2         -2.9425   -3.9069   -1.9901 O.2       1 <0>        -0.4403
     20 N2         -2.1190   -0.0612    1.2182 N.am      1 <0>        -0.6893
     21 C15        -2.7041    1.1529    1.2285 C.2       1 <0>         0.6538
     22 O3         -2.6628    1.8557    0.2381 O.2       1 <0>        -0.5648
     23 O4         -3.3343    1.5871    2.3362 O.3       1 <0>        -0.3574
     24 C16        -3.9321    2.8837    2.2764 C.3       1 <0>         0.1293
     25 C17        -4.5858    3.1969    3.5977 C.ar      1 <0>        -0.1011
     26 C18        -5.9050    2.8467    3.8163 C.ar      1 <0>        -0.0930
     27 C19        -6.5046    3.1340    5.0283 C.ar      1 <0>        -0.1232
     28 C20        -5.7848    3.7710    6.0217 C.ar      1 <0>        -0.1073
     29 C21        -4.4653    4.1204    5.8034 C.ar      1 <0>        -0.1236
     30 C22        -3.8644    3.8293    4.5930 C.ar      1 <0>        -0.0934
     31 H3          1.0039    1.9031    0.0027 H         1 <0>         0.0544
     32 H4         -0.5459    1.8868   -0.8726 H         1 <0>         0.0676
     33 H5         -0.5289    1.8773    0.9072 H         1 <0>         0.0542
     34 H6          0.5123   -0.3556   -0.8948 H         1 <0>         0.0847
     35 H7          0.2319   -0.1594    2.1383 H         1 <0>         0.0578
     36 H8          0.7568   -1.6008    1.2356 H         1 <0>         0.0552
     37 H9          1.7647   -0.1336    1.2338 H         1 <0>         0.0621
     38 H10        -0.4234   -2.2064   -1.7442 H         1 <0>         0.4047
     39 H11         0.3342   -5.7417   -1.9444 H         1 <0>         0.1008
     40 H12         0.3138   -4.2158   -2.8607 H         1 <0>         0.0856
     41 H13         1.7618   -2.3689   -2.2310 H         1 <0>         0.1178
     42 H14         3.8718   -1.6949   -1.1556 H         1 <0>         0.1221
     43 H15         4.9563   -3.1900    0.4727 H         1 <0>         0.1212
     44 H16         3.9302   -5.3588    1.0264 H         1 <0>         0.1224
     45 H17         1.8158   -6.0292   -0.0427 H         1 <0>         0.1232
     46 H18        -2.2617   -5.7460   -1.7020 H         1 <0>         0.1077
     47 H19        -2.1520   -0.6222    2.0088 H         1 <0>         0.4163
     48 H20        -3.1646    3.6283    2.0653 H         1 <0>         0.0787
     49 H21        -4.6828    2.9016    1.4864 H         1 <0>         0.0787
     50 H22        -6.4674    2.3490    3.0402 H         1 <0>         0.1249
     51 H23        -7.5355    2.8610    5.1989 H         1 <0>         0.1263
     52 H24        -6.2535    3.9961    6.9684 H         1 <0>         0.1252
     53 H25        -3.9031    4.6184    6.5795 H         1 <0>         0.1262
     54 H26        -2.8324    4.0989    4.4238 H         1 <0>         0.1246
@<TRIPOS>BOND
     1    1    2 1
     2    1   31 1
     3    1   32 1
     4    1   33 1
     5    2    3 1
     6    2    4 1
     7    2   34 1
     8    3   35 1
     9    3   36 1
    10    3   37 1
    11    4    5 1
    12    4    6 1
    13    4   20 1
    14    6    7 2
    15    6    8 am
    16    8    9 1
    17    8   38 1
    18    9   10 1
    19    9   11 1
    20    9   18 1
    21   11   12 1
    22   11   39 1
    23   11   40 1
    24   12   17 ar
    25   12   13 ar
    26   13   14 ar
    27   13   41 1
    28   14   15 ar
    29   14   42 1
    30   15   16 ar
    31   15   43 1
    32   16   17 ar
    33   16   44 1
    34   17   45 1
    35   18   19 2
    36   18   46 1
    37   20   21 am
    38   20   47 1
    39   21   22 2
    40   21   23 1
    41   23   24 1
    42   24   25 1
    43   24   48 1
    44   24   49 1
    45   25   30 ar
    46   25   26 ar
    47   26   27 ar
    48   26   50 1
    49   27   28 ar
    50   27   51 1
    51   28   29 ar
    52   28   52 1
    53   29   30 ar
    54   29   53 1
    55   30   54 1
@<TRIPOS>MOLECULE
ZINC01996112
   54    55     0     0     0
SMALL
USER_CHARGES

@<TRIPOS>ATOM
      1 C1         -0.0187    1.5258    0.0104 C.3       1 <0>        -0.1388
      2 C2          0.0021   -0.0041    0.0020 C.3       1 <0>        -0.1007
      3 C3          0.7421   -0.5109    1.2415 C.3       1 <0>        -0.1535
      4 C4         -1.4333   -0.5336    0.0129 C.3       1 <0>         0.1524
      5 H1         -1.9605   -0.1726   -0.8702 H         1 <0>         0.1187
      6 C5         -1.4129   -2.0405    0.0046 C.2       1 <0>         0.5248
      7 O1         -1.9211   -2.6589    0.9158 O.2       1 <0>        -0.5301
      8 N1         -0.8299   -2.7009   -1.0154 N.am      1 <0>        -0.7063
      9 C6         -0.8100   -4.1658   -1.0235 C.3       1 <0>         0.0832
     10 H2         -1.7322   -4.5441   -0.5824 H         1 <0>         0.1242
     11 C7         -0.6911   -4.6663   -2.4644 C.3       1 <0>        -0.0809
     12 C8         -1.9279   -4.2801   -3.2340 C.ar      1 <0>        -0.0874
     13 C9         -3.0158   -5.1323   -3.2666 C.ar      1 <0>        -0.1131
     14 C10        -4.1503   -4.7781   -3.9726 C.ar      1 <0>        -0.1162
     15 C11        -4.1970   -3.5714   -4.6455 C.ar      1 <0>        -0.1189
     16 C12        -3.1095   -2.7188   -4.6120 C.ar      1 <0>        -0.1162
     17 C13        -1.9766   -3.0712   -3.9026 C.ar      1 <0>        -0.1133
     18 C14         0.3683   -4.6566   -0.2224 C.2       1 <0>         0.3291
     19 O2          1.1145   -3.8645    0.3013 O.2       1 <0>        -0.4383
     20 N2         -2.1190   -0.0612    1.2182 N.am      1 <0>        -0.6893
     21 C15        -2.7041    1.1529    1.2285 C.2       1 <0>         0.6538
     22 O3         -2.6628    1.8557    0.2381 O.2       1 <0>        -0.5654
     23 O4         -3.3343    1.5871    2.3362 O.3       1 <0>        -0.3574
     24 C16        -3.9321    2.8837    2.2764 C.3       1 <0>         0.1295
     25 C17        -4.5858    3.1969    3.5977 C.ar      1 <0>        -0.1012
     26 C18        -5.9050    2.8467    3.8163 C.ar      1 <0>        -0.0931
     27 C19        -6.5046    3.1340    5.0283 C.ar      1 <0>        -0.1233
     28 C20        -5.7848    3.7710    6.0217 C.ar      1 <0>        -0.1072
     29 C21        -4.4653    4.1204    5.8034 C.ar      1 <0>        -0.1235
     30 C22        -3.8644    3.8293    4.5930 C.ar      1 <0>        -0.0932
     31 H3          1.0039    1.9031    0.0027 H         1 <0>         0.0544
     32 H4         -0.5459    1.8868   -0.8726 H         1 <0>         0.0668
     33 H5         -0.5289    1.8773    0.9072 H         1 <0>         0.0537
     34 H6          0.5123   -0.3556   -0.8948 H         1 <0>         0.0845
     35 H7          0.2319   -0.1594    2.1383 H         1 <0>         0.0554
     36 H8          0.7568   -1.6008    1.2356 H         1 <0>         0.0664
     37 H9          1.7647   -0.1336    1.2338 H         1 <0>         0.0605
     38 H10        -0.4234   -2.2064   -1.7442 H         1 <0>         0.4047
     39 H11         0.1840   -4.2172   -2.9340 H         1 <0>         0.0856
     40 H12        -0.5870   -5.7513   -2.4647 H         1 <0>         0.1008
     41 H13        -2.9793   -6.0750   -2.7409 H         1 <0>         0.1238
     42 H14        -5.0000   -5.4442   -3.9987 H         1 <0>         0.1231
     43 H15        -5.0831   -3.2950   -5.1976 H         1 <0>         0.1221
     44 H16        -3.1458   -1.7763   -5.1380 H         1 <0>         0.1231
     45 H17        -1.1283   -2.4034   -3.8734 H         1 <0>         0.1188
     46 H18         0.5454   -5.7167   -0.1165 H         1 <0>         0.1071
     47 H19        -2.1520   -0.6222    2.0088 H         1 <0>         0.4165
     48 H20        -3.1646    3.6283    2.0653 H         1 <0>         0.0787
     49 H21        -4.6828    2.9016    1.4864 H         1 <0>         0.0785
     50 H22        -6.4674    2.3490    3.0402 H         1 <0>         0.1247
     51 H23        -7.5355    2.8610    5.1989 H         1 <0>         0.1263
     52 H24        -6.2535    3.9961    6.9684 H         1 <0>         0.1252
     53 H25        -3.9031    4.6184    6.5795 H         1 <0>         0.1263
     54 H26        -2.8324    4.0989    4.4238 H         1 <0>         0.1247
@<TRIPOS>BOND
     1    1    2 1
     2    1   31 1
     3    1   32 1
     4    1   33 1
     5    2    3 1
     6    2    4 1
     7    2   34 1
     8    3   35 1
     9    3   36 1
    10    3   37 1
    11    4    5 1
    12    4    6 1
    13    4   20 1
    14    6    7 2
    15    6    8 am
    16    8    9 1
    17    8   38 1
    18    9   10 1
    19    9   11 1
    20    9   18 1
    21   11   12 1
    22   11   39 1
    23   11   40 1
    24   12   17 ar
    25   12   13 ar
    26   13   14 ar
    27   13   41 1
    28   14   15 ar
    29   14   42 1
    30   15   16 ar
    31   15   43 1
    32   16   17 ar
    33   16   44 1
    34   17   45 1
    35   18   19 2
    36   18   46 1
    37   20   21 am
    38   20   47 1
    39   21   22 2
    40   21   23 1
    41   23   24 1
    42   24   25 1
    43   24   48 1
    44   24   49 1
    45   25   30 ar
    46   25   26 ar
    47   26   27 ar
    48   26   50 1
    49   27   28 ar
    50   27   51 1
    51   28   29 ar
    52   28   52 1
    53   29   30 ar
    54   29   53 1
    55   30   54 1
@<TRIPOS>MOLECULE
ZINC03993799
   64    67     0     0     0
SMALL
USER_CHARGES

@<TRIPOS>ATOM
      1 C1          0.3588    1.5422    3.0477 C.3       1 <0>        -0.0409
      2 C2          0.1282    1.3994    0.6412 C.3       1 <0>         0.0069
      3 C3         -0.7343    1.8372   -0.5450 C.3       1 <0>         0.0157
      4 N1         -0.7321    3.3041   -0.6339 N.pl3     1 <0>        -0.4241
      5 C4         -1.2592    3.9043    0.5997 C.3       1 <0>         0.0274
      6 C5         -0.3967    3.4665    1.7858 C.3       1 <0>         0.0030
      7 C6         -1.4456    3.7354   -1.7399 C.2       1 <0>         0.2630
      8 N2         -1.6714    4.9663   -2.1588 N.2       1 <0>        -0.4906
      9 C7         -2.3876    5.1997   -3.2573 C.2       1 <0>         0.1069
     10 C8         -2.8958    4.1422   -3.9604 C.2       1 <0>        -0.1698
     11 S1         -2.2968    2.7717   -2.9811 S.3       1 <0>         0.0112
     12 C9         -2.6303    6.5876   -3.7123 C.ar      1 <0>        -0.0065
     13 C10        -2.0260    7.6560   -3.0464 C.ar      1 <0>        -0.0909
     14 C11        -2.2456    8.9409   -3.4706 C.ar      1 <0>        -0.0874
     15 C12        -3.0840    9.1823   -4.5630 C.ar      1 <0>        -0.1238
     16 C13        -3.6930    8.1125   -5.2256 C.ar      1 <0>        -0.0534
     17 C14        -3.4678    6.8278   -4.8036 C.ar      1 <0>        -0.1078
     18 C15        -3.3262   10.5658   -5.0163 C.2       1 <0>         0.5552
     19 O1         -4.0557   10.7753   -5.9662 O.2       1 <0>        -0.5089
     20 N3         -2.7389   11.5969   -4.3773 N.am      1 <0>        -0.7217
     21 C16        -2.8927   12.9602   -4.8909 C.3       1 <0>         0.1723
     22 C17        -2.3095   13.0420   -6.3030 C.3       1 <0>        -0.1180
     23 C18        -0.8244   12.6764   -6.2635 C.3       1 <0>        -0.1160
     24 C19        -0.0830   13.6529   -5.3482 C.3       1 <0>        -0.1244
     25 C20        -0.6661   13.5711   -3.9360 C.3       1 <0>        -0.1162
     26 C21        -2.1513   13.9367   -3.9756 C.3       1 <0>        -0.1212
     27 C22        -4.3555   13.3203   -4.9299 C.2       1 <0>         0.5304
     28 O2         -4.7848   14.0174   -5.8247 O.2       1 <0>        -0.5132
     29 N4         -5.1867   12.8677   -3.9703 N.am      1 <0>        -0.7271
     30 C23        -6.5860   13.3010   -3.9492 C.3       1 <0>         0.2175
     31 C24        -7.2777   12.6710   -2.8128 C.1       1 <0>         0.1923
     32 N5         -7.8114   12.1848   -1.9358 N.1       1 <0>        -0.4024
     33 H1          1.4050    1.8280    2.9389 H         1 <0>         0.1264
     34 H2         -0.0517    2.0015    3.9469 H         1 <0>         0.1253
     35 H3          0.2848    0.4576    3.1275 H         1 <0>         0.1251
     36 H4          0.1047    0.3130    0.7265 H         1 <0>         0.1468
     37 H5          1.1552    1.7298    0.4856 H         1 <0>         0.1463
     38 H6         -0.3280    1.4166   -1.4648 H         1 <0>         0.1365
     39 H7         -1.7551    1.4827   -0.4028 H         1 <0>         0.0830
     40 H8         -1.2356    4.9907    0.5143 H         1 <0>         0.1403
     41 H9         -2.2862    3.5739    0.7548 H         1 <0>         0.0772
     42 H10         0.6242    3.8207    1.6434 H         1 <0>         0.1454
     43 H11        -0.8027    3.8875    2.7056 H         1 <0>         0.1450
     44 H12        -3.4911    4.1366   -4.8615 H         1 <0>         0.2090
     45 H13        -1.3822    7.4696   -2.1996 H         1 <0>         0.1373
     46 H14        -1.7747    9.7668   -2.9582 H         1 <0>         0.1297
     47 H15        -4.3405    8.2981   -6.0698 H         1 <0>         0.1446
     48 H16        -3.9385    6.0012   -5.3151 H         1 <0>         0.1340
     49 H17        -2.2143   11.4362   -3.5773 H         1 <0>         0.4032
     50 H18        -2.8377   12.3464   -6.9551 H         1 <0>         0.0864
     51 H19        -2.4239   14.0564   -6.6852 H         1 <0>         0.0872
     52 H20        -0.4089   12.7347   -7.2695 H         1 <0>         0.0695
     53 H21        -0.7099   11.6621   -5.8813 H         1 <0>         0.0603
     54 H22        -0.1974   14.6673   -5.7303 H         1 <0>         0.0685
     55 H23         0.9751   13.3924   -5.3200 H         1 <0>         0.0663
     56 H24        -0.1379   14.2667   -3.2840 H         1 <0>         0.0745
     57 H25        -0.5517   12.5567   -3.5539 H         1 <0>         0.0610
     58 H26        -2.2657   14.9511   -4.3577 H         1 <0>         0.0935
     59 H27        -2.5667   13.8784   -2.9696 H         1 <0>         0.0760
     60 H28        -4.8584   12.2551   -3.2937 H         1 <0>         0.4023
     61 H29        -6.6291   14.3851   -3.8451 H         1 <0>         0.1176
     62 H30        -7.0718   13.0057   -4.8792 H         1 <0>         0.1177
     63 N6         -0.4251    1.9914    1.8772 N.4       1 <0>        -0.4027
     64 H31        -1.3979    1.6825    1.9888 H         1 <0>         0.4291
@<TRIPOS>BOND
     1    1   33 1
     2    1   34 1
     3    1   35 1
     4    1   63 1
     5    2    3 1
     6    2   36 1
     7    2   37 1
     8    2   63 1
     9    3    4 1
    10    3   38 1
    11    3   39 1
    12    4    5 1
    13    4    7 1
    14    5    6 1
    15    5   40 1
    16    5   41 1
    17    6   42 1
    18    6   43 1
    19    6   63 1
    20    7   11 1
    21    7    8 2
    22    8    9 1
    23    9   10 2
    24    9   12 1
    25   10   11 1
    26   10   44 1
    27   12   17 ar
    28   12   13 ar
    29   13   14 ar
    30   13   45 1
    31   14   15 ar
    32   14   46 1
    33   15   16 ar
    34   15   18 1
    35   16   17 ar
    36   16   47 1
    37   17   48 1
    38   18   19 2
    39   18   20 am
    40   20   21 1
    41   20   49 1
    42   21   26 1
    43   21   22 1
    44   21   27 1
    45   22   23 1
    46   22   50 1
    47   22   51 1
    48   23   24 1
    49   23   52 1
    50   23   53 1
    51   24   25 1
    52   24   54 1
    53   24   55 1
    54   25   26 1
    55   25   56 1
    56   25   57 1
    57   26   58 1
    58   26   59 1
    59   27   28 2
    60   27   29 am
    61   29   30 1
    62   29   60 1
    63   30   31 1
    64   30   61 1
    65   30   62 1
    66   31   32 3
    67   63   64 1
@<TRIPOS>MOLECULE
ZINC02384806
   48    49     0     0     0
SMALL
USER_CHARGES
2-(2-benzyloxycarbonylamino-3-phenyl-propanoyl)aminopropanoic acid
@<TRIPOS>ATOM
      1 C1         -7.4619    4.3968   -2.1250 C.3       1 <0>        -0.1384
      2 C2         -6.7501    4.6995   -0.8049 C.3       1 <0>         0.0947
      3 H1         -6.6563    5.7784   -0.6817 H         1 <0>         0.0911
      4 C3         -7.5499    4.1310    0.3389 C.2       1 <0>         0.4639
      5 O1         -7.0570    3.3032    1.0681 O.co2     1 <0>        -0.6339
      6 N1         -5.4172    4.0918   -0.8183 N.am      1 <0>        -0.6894
      7 C4         -4.3823    4.7494   -1.3779 C.2       1 <0>         0.5056
      8 O2         -4.5546    5.8443   -1.8703 O.2       1 <0>        -0.5469
      9 C5         -3.0112    4.1243   -1.3917 C.3       1 <0>         0.1556
     10 H2         -3.0478    3.1801   -1.9349 H         1 <0>         0.1177
     11 C6         -2.5528    3.8685    0.0455 C.3       1 <0>        -0.0967
     12 C7         -1.2377    3.1328    0.0299 C.ar      1 <0>        -0.0594
     13 C8         -1.2190    1.7507    0.0173 C.ar      1 <0>        -0.1015
     14 C9         -0.0126    1.0758    0.0080 C.ar      1 <0>        -0.1135
     15 C10         1.1750    1.7832    0.0004 C.ar      1 <0>        -0.1227
     16 C11         1.1563    3.1654    0.0076 C.ar      1 <0>        -0.1176
     17 C12        -0.0501    3.8402    0.0223 C.ar      1 <0>        -0.1091
     18 N2         -2.0679    5.0308   -2.0510 N.am      1 <0>        -0.6906
     19 C13        -0.9545    4.5397   -2.6305 C.2       1 <0>         0.6502
     20 O3         -0.7332    3.3452   -2.6061 O.2       1 <0>        -0.5551
     21 O4         -0.0876    5.3728   -3.2365 O.3       1 <0>        -0.3654
     22 C14         1.0899    4.7742   -3.8394 C.3       1 <0>         0.1321
     23 C15         1.9370    5.8522   -4.4650 C.ar      1 <0>        -0.0965
     24 C16         1.7348    6.2115   -5.7845 C.ar      1 <0>        -0.0934
     25 C17         2.5086    7.2037   -6.3570 C.ar      1 <0>        -0.1240
     26 C18         3.4912    7.8296   -5.6130 C.ar      1 <0>        -0.1104
     27 C19         3.6972    7.4664   -4.2952 C.ar      1 <0>        -0.1246
     28 C20         2.9199    6.4778   -3.7212 C.ar      1 <0>        -0.0930
     29 H3         -7.5557    3.3179   -2.2481 H         1 <0>         0.0492
     30 H4         -8.4537    4.8489   -2.1150 H         1 <0>         0.0729
     31 H5         -6.8835    4.8080   -2.9523 H         1 <0>         0.0481
     32 H6         -5.2794    3.2161   -0.4244 H         1 <0>         0.4070
     33 H7         -3.2997    3.2667    0.5633 H         1 <0>         0.0982
     34 H8         -2.4307    4.8201    0.5628 H         1 <0>         0.0838
     35 H9         -2.1469    1.1980    0.0188 H         1 <0>         0.1198
     36 H10         0.0021   -0.0041    0.0020 H         1 <0>         0.1160
     37 H11         2.1175    1.2560   -0.0115 H         1 <0>         0.1131
     38 H12         2.0841    3.7181    0.0014 H         1 <0>         0.1116
     39 H13        -0.0647    4.9201    0.0276 H         1 <0>         0.1101
     40 H14        -2.2446    5.9843   -2.0705 H         1 <0>         0.4147
     41 H15         1.6675    4.2572   -3.0730 H         1 <0>         0.0797
     42 H16         0.7836    4.0621   -4.6057 H         1 <0>         0.0779
     43 H17         0.9698    5.7196   -6.3670 H         1 <0>         0.1250
     44 H18         2.3479    7.4872   -7.3867 H         1 <0>         0.1248
     45 H19         4.0982    8.6022   -6.0614 H         1 <0>         0.1232
     46 H20         4.4651    7.9551   -3.7141 H         1 <0>         0.1246
     47 H21         3.0808    6.1940   -2.6916 H         1 <0>         0.1245
     48 O5         -8.8098    4.5443    0.5477 O.co2     1 <0>        -0.7529
@<TRIPOS>BOND
     1    1    2 1
     2    1   29 1
     3    1   30 1
     4    1   31 1
     5    2    3 1
     6    2    4 1
     7    2    6 1
     8    4    5 2
     9    4   48 1
    10    6    7 am
    11    6   32 1
    12    7    8 2
    13    7    9 1
    14    9   10 1
    15    9   11 1
    16    9   18 1
    17   11   12 1
    18   11   33 1
    19   11   34 1
    20   12   17 ar
    21   12   13 ar
    22   13   14 ar
    23   13   35 1
    24   14   15 ar
    25   14   36 1
    26   15   16 ar
    27   15   37 1
    28   16   17 ar
    29   16   38 1
    30   17   39 1
    31   18   19 am
    32   18   40 1
    33   19   20 2
    34   19   21 1
    35   21   22 1
    36   22   23 1
    37   22   41 1
    38   22   42 1
    39   23   28 ar
    40   23   24 ar
    41   24   25 ar
    42   24   43 1
    43   25   26 ar
    44   25   44 1
    45   26   27 ar
    46   26   45 1
    47   27   28 ar
    48   27   46 1
    49   28   47 1
@<TRIPOS>MOLECULE
ZINC42893657
   63    65     0     0     0
SMALL
USER_CHARGES

@<TRIPOS>ATOM
      1 C1         -4.4994   -0.3437   -1.3388 C.3       1 <0>        -0.1751
      2 C2         -3.0726   -0.5433   -0.8238 C.3       1 <0>         0.1260
      3 C3         -2.6789    0.6420    0.0600 C.3       1 <0>        -0.1867
      4 C4         -3.0015   -1.8347   -0.0064 C.3       1 <0>        -0.1255
      5 C5         -1.5602   -2.0709    0.4496 C.3       1 <0>         0.0604
      6 H1         -1.1975   -1.1896    0.9786 H         1 <0>         0.1227
      7 C6         -1.5135   -3.2637    1.3695 C.2       1 <0>         0.4845
      8 O1         -0.8391   -4.2285    1.0776 O.2       1 <0>        -0.5144
      9 N1         -2.2211   -3.2582    2.5165 N.am      1 <0>        -0.6882
     10 C7         -2.1757   -4.4177    3.4108 C.3       1 <0>         0.1785
     11 C8         -3.4491   -5.2547    3.5476 C.3       1 <0>        -0.1517
     12 C9         -3.0009   -4.3503    4.6974 C.3       1 <0>        -0.1432
     13 C10        -0.8868   -5.1264    3.4664 C.1       1 <0>         0.2362
     14 N2          0.1080   -5.6734    3.5093 N.1       1 <0>        -0.3937
     15 N3         -0.7109   -2.3227   -0.7223 N.3       1 <0>        -0.6297
     16 C11         0.7051   -2.0941   -0.4051 C.3       1 <0>         0.0922
     17 H2          0.8833   -2.3215    0.6460 H         1 <0>         0.0964
     18 C12         1.5629   -2.9866   -1.2646 C.ar      1 <0>        -0.0992
     19 C13         1.2358   -3.1841   -2.5940 C.ar      1 <0>        -0.0846
     20 C14         2.0179   -4.0004   -3.3857 C.ar      1 <0>        -0.1027
     21 C15         3.1387   -4.6261   -2.8436 C.ar      1 <0>        -0.0478
     22 C16         3.4634   -4.4235   -1.5038 C.ar      1 <0>        -0.1020
     23 C17         2.6775   -3.6007   -0.7227 C.ar      1 <0>        -0.0846
     24 C18         3.9830   -5.5052   -3.6898 C.ar      1 <0>         0.0118
     25 C19         3.6612   -5.7035   -5.0310 C.ar      1 <0>        -0.1313
     26 C20         4.4503   -6.5219   -5.8136 C.ar      1 <0>        -0.0196
     27 C21         5.5585   -7.1450   -5.2688 C.ar      1 <0>        -0.6619
     28 C22         5.8823   -6.9521   -3.9379 C.ar      1 <0>        -0.0196
     29 C23         5.1038   -6.1309   -3.1477 C.ar      1 <0>        -0.1320
     30 S1          6.5611   -8.1889   -6.2736 S.o2      1 <0>         2.5001
     31 O2          7.1638   -9.0985   -5.3632 O.2       1 <0>        -0.9370
     32 O3          5.6894   -8.6560   -7.2939 O.2       1 <0>        -0.9369
     33 C24         7.8176   -7.0882   -6.9809 C.3       1 <0>        -0.6502
     34 C25         1.0589   -0.6307   -0.6773 C.3       1 <0>         0.4627
     35 F1          0.3499    0.1923    0.2044 F         1 <0>        -0.1840
     36 F2          2.4322   -0.4404   -0.4905 F         1 <0>        -0.1812
     37 F3          0.7180   -0.3058   -1.9946 F         1 <0>        -0.1617
     38 F4         -2.1931   -0.6288   -1.9083 F         1 <0>        -0.1851
     39 H3         -4.5501    0.5764   -1.9211 H         1 <0>         0.0698
     40 H4         -4.7799   -1.1881   -1.9684 H         1 <0>         0.0676
     41 H5         -5.1848   -0.2771   -0.4938 H         1 <0>         0.0723
     42 H6         -3.3934    0.7388    0.8775 H         1 <0>         0.0718
     43 H7         -1.6814    0.4762    0.4670 H         1 <0>         0.0746
     44 H8         -2.6815    1.5554   -0.5348 H         1 <0>         0.0700
     45 H9         -3.6491   -1.7487    0.8661 H         1 <0>         0.0913
     46 H10        -3.3299   -2.6725   -0.6215 H         1 <0>         0.0878
     47 H11        -2.7605   -2.4865    2.7499 H         1 <0>         0.4149
     48 H12        -4.3207   -4.9426    2.9722 H         1 <0>         0.1190
     49 H13        -3.3327   -6.3305    3.6786 H         1 <0>         0.1126
     50 H14        -2.5896   -4.8311    5.5849 H         1 <0>         0.1170
     51 H15        -3.5776   -3.4433    4.8785 H         1 <0>         0.1209
     52 H16        -0.8554   -3.2551   -1.0799 H         1 <0>         0.3735
     53 H17         0.3667   -2.6990   -3.0131 H         1 <0>         0.1424
     54 H18         1.7614   -4.1543   -4.4235 H         1 <0>         0.1330
     55 H19         4.3308   -4.9063   -1.0785 H         1 <0>         0.1317
     56 H20         2.9310   -3.4392    0.3147 H         1 <0>         0.1268
     57 H21         2.7958   -5.2180   -5.4572 H         1 <0>         0.1374
     58 H22         4.2018   -6.6763   -6.8532 H         1 <0>         0.1454
     59 H23         6.7485   -7.4413   -3.5175 H         1 <0>         0.1451
     60 H24         5.3600   -5.9773   -2.1098 H         1 <0>         0.1364
     61 H25         8.3928   -6.6293   -6.1767 H         1 <0>         0.1316
     62 H26         8.4851   -7.6635   -7.6224 H         1 <0>         0.1337
     63 H27         7.3300   -6.3104   -7.5685 H         1 <0>         0.1318
@<TRIPOS>BOND
     1    1    2 1
     2    1   39 1
     3    1   40 1
     4    1   41 1
     5    2    3 1
     6    2    4 1
     7    2   38 1
     8    3   42 1
     9    3   43 1
    10    3   44 1
    11    4    5 1
    12    4   45 1
    13    4   46 1
    14    5    6 1
    15    5    7 1
    16    5   15 1
    17    7    8 2
    18    7    9 am
    19    9   10 1
    20    9   47 1
    21   10   12 1
    22   10   11 1
    23   10   13 1
    24   11   12 1
    25   11   48 1
    26   11   49 1
    27   12   50 1
    28   12   51 1
    29   13   14 3
    30   15   16 1
    31   15   52 1
    32   16   17 1
    33   16   18 1
    34   16   34 1
    35   18   23 ar
    36   18   19 ar
    37   19   20 ar
    38   19   53 1
    39   20   21 ar
    40   20   54 1
    41   21   22 ar
    42   21   24 1
    43   22   23 ar
    44   22   55 1
    45   23   56 1
    46   24   29 ar
    47   24   25 ar
    48   25   26 ar
    49   25   57 1
    50   26   27 ar
    51   26   58 1
    52   27   28 ar
    53   27   30 1
    54   28   29 ar
    55   28   59 1
    56   29   60 1
    57   30   31 2
    58   30   32 2
    59   30   33 1
    60   33   61 1
    61   33   62 1
    62   33   63 1
    63   34   35 1
    64   34   36 1
    65   34   37 1
@<TRIPOS>MOLECULE
ZINC03927825
   55    56     0     0     0
SMALL
USER_CHARGES
1-[3-methyl-2-[3-(propylcarbamoyl)oxiran-2-yl]carbonylamino-pentanoyl]pyrrolidine-2-carboxylic acid
@<TRIPOS>ATOM
      1 C1          3.8869    6.7757   -1.0414 C.3       1 <0>        -0.1492
      2 C2          2.5530    6.2815   -1.6047 C.3       1 <0>        -0.1392
      3 C3          2.6653    6.1303   -3.1231 C.3       1 <0>         0.1178
      4 N1          1.3881    5.6570   -3.6625 N.am      1 <0>        -0.7184
      5 C4          1.2512    5.4502   -4.9872 C.2       1 <0>         0.5310
      6 O1          2.1854    5.6559   -5.7328 O.2       1 <0>        -0.5174
      7 C5         -0.0626    4.9635   -5.5421 C.3       1 <0>        -0.0137
      8 H1         -0.8290    5.7260   -5.6810 H         1 <0>         0.1622
      9 C6         -0.5200    3.5545   -5.1593 C.3       1 <0>        -0.0113
     10 H2          0.1267    2.9711   -4.5039 H         1 <0>         0.1580
     11 O2         -0.0325    3.8738   -6.4660 O.3       1 <0>        -0.2870
     12 C7         -1.9994    3.3151   -5.0013 C.2       1 <0>         0.5311
     13 O3         -2.5764    2.5635   -5.7582 O.2       1 <0>        -0.5137
     14 N2         -2.6814    3.9364   -4.0187 N.am      1 <0>        -0.6913
     15 C8         -4.1369    3.7933   -3.9336 C.3       1 <0>         0.1355
     16 H3         -4.5315    3.5073   -4.9087 H         1 <0>         0.1131
     17 C9         -4.4841    2.7138   -2.9064 C.3       1 <0>        -0.0996
     18 H4         -5.5591    2.7157   -2.7266 H         1 <0>         0.0878
     19 C10        -4.0590    1.3449   -3.4417 C.3       1 <0>        -0.1380
     20 C11        -3.7473    3.0004   -1.5965 C.3       1 <0>        -0.1181
     21 C12        -4.3178    4.2681   -0.9573 C.3       1 <0>        -0.1694
     22 C13        -4.7467    5.1046   -3.5099 C.2       1 <0>         0.5339
     23 O4         -4.0363    6.0028   -3.1105 O.2       1 <0>        -0.5219
     24 N3         -6.0815    5.2793   -3.5747 N.am      1 <0>        -0.5875
     25 C14        -7.0696    4.2360   -3.9043 C.3       1 <0>         0.0962
     26 C15        -8.2970    5.0095   -4.4473 C.3       1 <0>        -0.1336
     27 C16        -8.2974    6.2688   -3.5409 C.3       1 <0>        -0.1072
     28 C17        -6.7939    6.5403   -3.3222 C.3       1 <0>         0.0914
     29 H5         -6.4520    7.3053   -4.0194 H         1 <0>         0.0721
     30 C18        -6.5526    6.9904   -1.9044 C.2       1 <0>         0.4646
     31 O5         -6.0609    6.2298   -1.1046 O.co2     1 <0>        -0.6101
     32 H6          4.6703    6.0557   -1.2778 H         1 <0>         0.0566
     33 H7          4.1339    7.7401   -1.4853 H         1 <0>         0.0579
     34 H8          3.8069    6.8835    0.0403 H         1 <0>         0.0615
     35 H9          1.7696    7.0016   -1.3683 H         1 <0>         0.0747
     36 H10         2.3061    5.3172   -1.1608 H         1 <0>         0.0714
     37 H11         3.4487    5.4102   -3.3595 H         1 <0>         0.0701
     38 H12         2.9123    7.0946   -3.5670 H         1 <0>         0.0711
     39 H13         0.6409    5.4925   -3.0662 H         1 <0>         0.4070
     40 H14        -2.2085    4.4783   -3.3678 H         1 <0>         0.4118
     41 H15        -2.9724    1.3059   -3.5176 H         1 <0>         0.0510
     42 H16        -4.4039    0.5659   -2.7618 H         1 <0>         0.0543
     43 H17        -4.4979    1.1878   -4.4270 H         1 <0>         0.0587
     44 H18        -3.8773    2.1597   -0.9151 H         1 <0>         0.0556
     45 H19        -2.6859    3.1423   -1.8002 H         1 <0>         0.0527
     46 H20        -5.3970    4.2965   -1.1073 H         1 <0>         0.0825
     47 H21        -4.0992    4.2665    0.1105 H         1 <0>         0.0354
     48 H22        -3.8635    5.1443   -1.4199 H         1 <0>         0.0842
     49 H23        -6.6742    3.5670   -4.6687 H         1 <0>         0.0708
     50 H24        -7.3389    3.6727   -3.0108 H         1 <0>         0.0701
     51 H25        -8.1561    5.2811   -5.4934 H         1 <0>         0.0729
     52 H26        -9.2121    4.4323   -4.3155 H         1 <0>         0.0803
     53 H27        -8.7736    7.1083   -4.0474 H         1 <0>         0.0786
     54 H28        -8.7900    6.0603   -2.5912 H         1 <0>         0.0741
     55 O6         -6.8838    8.2361   -1.5301 O.co2     1 <0>        -0.7714
@<TRIPOS>BOND
     1    1    2 1
     2    1   32 1
     3    1   33 1
     4    1   34 1
     5    2    3 1
     6    2   35 1
     7    2   36 1
     8    3    4 1
     9    3   37 1
    10    3   38 1
    11    4    5 am
    12    4   39 1
    13    5    6 2
    14    5    7 1
    15    7    8 1
    16    7   11 1
    17    7    9 1
    18    9   10 1
    19    9   11 1
    20    9   12 1
    21   12   13 2
    22   12   14 am
    23   14   15 1
    24   14   40 1
    25   15   16 1
    26   15   17 1
    27   15   22 1
    28   17   18 1
    29   17   19 1
    30   17   20 1
    31   19   41 1
    32   19   42 1
    33   19   43 1
    34   20   21 1
    35   20   44 1
    36   20   45 1
    37   21   46 1
    38   21   47 1
    39   21   48 1
    40   22   23 2
    41   22   24 am
    42   24   28 1
    43   24   25 1
    44   25   26 1
    45   25   49 1
    46   25   50 1
    47   26   27 1
    48   26   51 1
    49   26   52 1
    50   27   28 1
    51   27   53 1
    52   27   54 1
    53   28   29 1
    54   28   30 1
    55   30   31 2
    56   30   55 1
@<TRIPOS>MOLECULE
ZINC25667985
   61    63     0     0     0
SMALL
USER_CHARGES
benzyl N-[(1S)-1-benzyl-2-[[(1S)-1-benzyl-3-fluoro-2-oxo-propyl]amino]-2-oxo-ethyl]carbamate
@<TRIPOS>ATOM
      1 C1          4.7038   -2.9554   -0.0030 C.ar      1 <0>        -0.1178
      2 C2          3.7039   -2.6914   -0.9202 C.ar      1 <0>        -0.1154
      3 C3          3.6312   -1.4508   -1.5257 C.ar      1 <0>        -0.1115
      4 C4          4.5585   -0.4742   -1.2139 C.ar      1 <0>        -0.0867
      5 C5          5.5616   -0.7399   -0.3006 C.ar      1 <0>        -0.1131
      6 C6          5.6311   -1.9787    0.3087 C.ar      1 <0>        -0.1156
      7 C7          4.4795    0.8781   -1.8743 C.3       1 <0>        -0.0824
      8 C8          3.6000    1.8057   -1.0335 C.3       1 <0>         0.1118
      9 H1          3.9480    1.8420    0.0094 H         1 <0>         0.1253
     10 C9          3.6199    3.1909   -1.6267 C.2       1 <0>         0.3151
     11 O1          2.6647    3.5973   -2.2437 O.2       1 <0>        -0.4136
     12 C10         4.8319    4.0689   -1.4501 C.3       1 <0>         0.0129
     13 F1          4.6146    5.2968   -2.0843 F         1 <0>        -0.1946
     14 N1          2.2256    1.2986   -1.0231 N.am      1 <0>        -0.7176
     15 C11         1.4011    1.6074   -0.0027 C.2       1 <0>         0.5237
     16 O2          1.7969    2.3051    0.9069 O.2       1 <0>        -0.5321
     17 C12        -0.0127    1.0858    0.0080 C.3       1 <0>         0.1618
     18 H2         -0.0040   -0.0137    0.0409 H         1 <0>         0.1197
     19 C13        -0.7527    1.5927   -1.2315 C.3       1 <0>        -0.0891
     20 C14        -2.1255    0.9734   -1.2852 C.ar      1 <0>        -0.0665
     21 C15        -2.3185   -0.2230   -1.9502 C.ar      1 <0>        -0.1039
     22 C16        -3.5769   -0.7935   -1.9953 C.ar      1 <0>        -0.1124
     23 C17        -4.6442   -0.1623   -1.3844 C.ar      1 <0>        -0.1175
     24 C18        -4.4522    1.0367   -0.7239 C.ar      1 <0>        -0.1144
     25 C19        -3.1929    1.6046   -0.6743 C.ar      1 <0>        -0.1067
     26 N2         -0.6984    1.5583    1.2133 N.am      1 <0>        -0.7115
     27 C20        -1.7412    0.8645    1.7111 C.2       1 <0>         0.6528
     28 O3         -2.1126   -0.1528    1.1601 O.2       1 <0>        -0.5567
     29 O4         -2.3714    1.2987    2.8188 O.3       1 <0>        -0.3644
     30 C21        -3.4862    0.5014    3.2983 C.3       1 <0>         0.1319
     31 C22        -4.0624    1.1374    4.5371 C.ar      1 <0>        -0.0998
     32 C23        -3.5805    0.7839    5.7836 C.ar      1 <0>        -0.0937
     33 C24        -4.1058    1.3708    6.9196 C.ar      1 <0>        -0.1232
     34 C25        -5.1198    2.3038    6.8098 C.ar      1 <0>        -0.1077
     35 C26        -5.6056    2.6531    5.5636 C.ar      1 <0>        -0.1235
     36 C27        -5.0768    2.0701    4.4273 C.ar      1 <0>        -0.0930
     37 H3          4.7608   -3.9247    0.4698 H         1 <0>         0.1222
     38 H4          2.9796   -3.4546   -1.1640 H         1 <0>         0.1234
     39 H5          2.8501   -1.2448   -2.2425 H         1 <0>         0.1196
     40 H6          6.2887    0.0217   -0.0603 H         1 <0>         0.1235
     41 H7          6.4126   -2.1850    1.0251 H         1 <0>         0.1233
     42 H8          5.4897    1.3056   -1.9565 H         1 <0>         0.0994
     43 H9          4.0440    0.7708   -2.8787 H         1 <0>         0.0907
     44 H10         5.0101    4.2366   -0.3776 H         1 <0>         0.1153
     45 H11         5.7093    3.5766   -1.8950 H         1 <0>         0.1142
     46 H12         1.8666    0.6658   -1.8481 H         1 <0>         0.4276
     47 H13        -0.8461    2.6875   -1.1806 H         1 <0>         0.0851
     48 H14        -0.1893    1.3144   -2.1343 H         1 <0>         0.0888
     49 H15        -1.4855   -0.7139   -2.4313 H         1 <0>         0.1155
     50 H16        -3.7269   -1.7301   -2.5117 H         1 <0>         0.1174
     51 H17        -5.6282   -0.6058   -1.4235 H         1 <0>         0.1162
     52 H18        -5.2862    1.5300   -0.2469 H         1 <0>         0.1142
     53 H19        -3.0430    2.5415   -0.1585 H         1 <0>         0.1102
     54 H20        -0.3622    2.4793    1.7120 H         1 <0>         0.4384
     55 H21        -4.2609    0.4482    2.5192 H         1 <0>         0.0806
     56 H22        -3.1354   -0.5136    3.5364 H         1 <0>         0.0789
     57 H23        -2.7911    0.0519    5.8696 H         1 <0>         0.1241
     58 H24        -3.7265    1.0976    7.8932 H         1 <0>         0.1259
     59 H25        -5.5328    2.7596    7.6975 H         1 <0>         0.1249
     60 H26        -6.3981    3.3818    5.4778 H         1 <0>         0.1258
     61 H27        -5.4563    2.3430    3.4537 H         1 <0>         0.1239
@<TRIPOS>BOND
     1    1    6 ar
     2    1    2 ar
     3    1   37 1
     4    2    3 ar
     5    2   38 1
     6    3    4 ar
     7    3   39 1
     8    4    5 ar
     9    4    7 1
    10    5    6 ar
    11    5   40 1
    12    6   41 1
    13    7    8 1
    14    7   42 1
    15    7   43 1
    16    8    9 1
    17    8   10 1
    18    8   14 1
    19   10   11 2
    20   10   12 1
    21   12   13 1
    22   12   44 1
    23   12   45 1
    24   14   15 am
    25   14   46 1
    26   15   16 2
    27   15   17 1
    28   17   18 1
    29   17   19 1
    30   17   26 1
    31   19   20 1
    32   19   47 1
    33   19   48 1
    34   20   25 ar
    35   20   21 ar
    36   21   22 ar
    37   21   49 1
    38   22   23 ar
    39   22   50 1
    40   23   24 ar
    41   23   51 1
    42   24   25 ar
    43   24   52 1
    44   25   53 1
    45   26   27 am
    46   26   54 1
    47   27   28 2
    48   27   29 1
    49   29   30 1
    50   30   31 1
    51   30   55 1
    52   30   56 1
    53   31   36 ar
    54   31   32 ar
    55   32   33 ar
    56   32   57 1
    57   33   34 ar
    58   33   58 1
    59   34   35 ar
    60   34   59 1
    61   35   36 ar
    62   35   60 1
    63   36   61 1
@<TRIPOS>MOLECULE
ZINC43075785
   52    53     0     0     0
SMALL
USER_CHARGES

@<TRIPOS>ATOM
      1 C1         -1.6377   -2.7401   -2.3318 C.3       1 <0>        -0.1371
      2 C2         -1.3281   -1.2474   -2.4615 C.3       1 <0>         0.0168
      3 C3         -1.7609   -0.7551   -3.8440 C.3       1 <0>        -0.1389
      4 C4         -2.0888   -0.4732   -1.3832 C.3       1 <0>        -0.1361
      5 C5          0.1524   -1.0246   -2.2897 C.2       1 <0>         0.0415
      6 C6          1.1417   -1.3080   -3.2341 C.2       1 <0>        -0.1770
      7 C7          2.3349   -0.9403   -2.6368 C.2       1 <0>        -0.0387
      8 N1          2.0112   -0.4672   -1.3969 N.pl3     1 <0>        -0.2547
      9 N2          0.7389   -0.5260   -1.2314 N.2       1 <0>        -0.2658
     10 C8          2.9688    0.0358   -0.4088 C.3       1 <0>         0.0842
     11 C9          3.6822   -1.0399   -3.2202 C.2       1 <0>         0.6068
     12 O1          4.6385   -0.5825   -2.6238 O.2       1 <0>        -0.5331
     13 N3          3.8565   -1.6379   -4.4154 N.am      1 <0>        -0.6935
     14 C10         5.2079   -1.8363   -4.9451 C.3       1 <0>         0.1416
     15 H1          5.8932   -2.0449   -4.1235 H         1 <0>         0.1244
     16 C11         5.2058   -3.0159   -5.9194 C.3       1 <0>        -0.0855
     17 C12         4.8802   -4.2837   -5.1726 C.ar      1 <0>        -0.0765
     18 C13         5.8962   -5.0379   -4.6152 C.ar      1 <0>        -0.1086
     19 C14         5.5984   -6.2008   -3.9301 C.ar      1 <0>        -0.1018
     20 C15         4.2844   -6.6108   -3.8023 C.ar      1 <0>        -0.1090
     21 C16         3.2675   -5.8567   -4.3597 C.ar      1 <0>        -0.0298
     22 C17         3.5658   -4.6893   -5.0402 C.ar      1 <0>        -0.1016
     23 Cl1         1.6172   -6.3709   -4.1995 Cl        1 <0>        -0.0635
     24 C18         5.6528   -0.5900   -5.6661 C.2       1 <0>         0.5103
     25 O2          4.9138    0.3694   -5.7311 O.2       1 <0>        -0.5099
     26 N4          6.8720   -0.5416   -6.2386 N.am      1 <0>        -0.7295
     27 C19         7.3044    0.6700   -6.9396 C.3       1 <0>         0.2198
     28 C20         8.6623    0.4707   -7.4718 C.1       1 <0>         0.1890
     29 N5          9.7102    0.3169   -7.8825 N.1       1 <0>        -0.3975
     30 H2         -1.0957   -3.2917   -3.1000 H         1 <0>         0.0581
     31 H3         -1.3293   -3.0909   -1.3469 H         1 <0>         0.0559
     32 H4         -2.7085   -2.9012   -2.4560 H         1 <0>         0.0630
     33 H5         -2.8317   -0.9162   -3.9682 H         1 <0>         0.0638
     34 H6         -1.5403    0.3084   -3.9364 H         1 <0>         0.0574
     35 H7         -1.2189   -1.3067   -4.6122 H         1 <0>         0.0585
     36 H8         -1.7805   -0.8239   -0.3983 H         1 <0>         0.0606
     37 H9         -1.8683    0.5903   -1.4757 H         1 <0>         0.0559
     38 H10        -3.1597   -0.6343   -1.5075 H         1 <0>         0.0579
     39 H11         1.0048   -1.7257   -4.2206 H         1 <0>         0.1565
     40 H12         3.0569    1.1178   -0.5063 H         1 <0>         0.0855
     41 H13         2.6199   -0.2114    0.5939 H         1 <0>         0.0930
     42 H14         3.9420   -0.4248   -0.5787 H         1 <0>         0.1100
     43 H15         3.0872   -1.9370   -4.9249 H         1 <0>         0.4082
     44 H16         4.4563   -2.8471   -6.6927 H         1 <0>         0.0945
     45 H17         6.1891   -3.1081   -6.3805 H         1 <0>         0.1021
     46 H18         6.9230   -4.7183   -4.7155 H         1 <0>         0.1311
     47 H19         6.3924   -6.7894   -3.4949 H         1 <0>         0.1344
     48 H20         4.0519   -7.5199   -3.2675 H         1 <0>         0.1342
     49 H21         2.7719   -4.0979   -5.4718 H         1 <0>         0.1313
     50 H22         7.4630   -1.3089   -6.1866 H         1 <0>         0.4074
     51 H23         6.6192    0.8786   -7.7612 H         1 <0>         0.1177
     52 H24         7.3060    1.5104   -6.2454 H         1 <0>         0.1168
@<TRIPOS>BOND
     1    1    2 1
     2    1   30 1
     3    1   31 1
     4    1   32 1
     5    2    3 1
     6    2    4 1
     7    2    5 1
     8    3   33 1
     9    3   34 1
    10    3   35 1
    11    4   36 1
    12    4   37 1
    13    4   38 1
    14    5    9 2
    15    5    6 1
    16    6    7 2
    17    6   39 1
    18    7    8 1
    19    7   11 1
    20    8    9 1
    21    8   10 1
    22   10   40 1
    23   10   41 1
    24   10   42 1
    25   11   12 2
    26   11   13 am
    27   13   14 1
    28   13   43 1
    29   14   15 1
    30   14   16 1
    31   14   24 1
    32   16   17 1
    33   16   44 1
    34   16   45 1
    35   17   22 ar
    36   17   18 ar
    37   18   19 ar
    38   18   46 1
    39   19   20 ar
    40   19   47 1
    41   20   21 ar
    42   20   48 1
    43   21   22 ar
    44   21   23 1
    45   22   49 1
    46   24   25 2
    47   24   26 am
    48   26   27 1
    49   26   50 1
    50   27   28 1
    51   27   51 1
    52   27   52 1
    53   28   29 3
