@<TRIPOS>MOLECULE
ZINC03954923
   64    66     0     0     0
SMALL
USER_CHARGES
N-[1-(cyanomethylcarbamoyl)cyclohexyl]-4-(4-propylpiperazin-1-yl)-benzamide
@<TRIPOS>ATOM
      1 C1          0.6709    0.7418    4.5510 C.3       1 <0>        -0.1569
      2 C2         -0.0317    1.3625    3.3419 C.3       1 <0>        -0.1536
      3 C3          0.3496    0.5893    2.0780 C.3       1 <0>        -0.0046
      4 C4          0.1952    0.6266   -0.3386 C.3       1 <0>         0.0026
      5 C5         -0.5854    1.2128   -1.5173 C.3       1 <0>         0.0187
      6 N1         -0.4609    2.6770   -1.5043 N.pl3     1 <0>        -0.4877
      7 C6         -0.9817    3.2358   -0.2488 C.3       1 <0>         0.0258
      8 C7         -0.2010    2.6496    0.9299 C.3       1 <0>        -0.0051
      9 C8         -1.0991    3.2411   -2.6034 C.ar      1 <0>         0.1170
     10 C9         -1.7350    2.4228   -3.5330 C.ar      1 <0>        -0.1716
     11 C10        -2.3723    2.9785   -4.6187 C.ar      1 <0>        -0.0568
     12 C11        -2.3712    4.3654   -4.7935 C.ar      1 <0>        -0.1428
     13 C12        -1.7269    5.1840   -3.8613 C.ar      1 <0>        -0.0288
     14 C13        -1.0959    4.6227   -2.7749 C.ar      1 <0>        -0.1363
     15 C14        -3.0491    4.9640   -5.9590 C.2       1 <0>         0.5549
     16 O1         -3.0477    6.1706   -6.1097 O.2       1 <0>        -0.5086
     17 N2         -3.6699    4.1735   -6.8569 N.am      1 <0>        -0.7213
     18 C15        -4.4333    4.7714   -7.9551 C.3       1 <0>         0.1727
     19 C16        -5.5724    5.6175   -7.3829 C.3       1 <0>        -0.1182
     20 C17        -6.4948    4.7307   -6.5441 C.3       1 <0>        -0.1147
     21 C18        -7.0754    3.6222   -7.4244 C.3       1 <0>        -0.1251
     22 C19        -5.9363    2.7760   -7.9966 C.3       1 <0>        -0.1156
     23 C20        -5.0139    3.6629   -8.8354 C.3       1 <0>        -0.1222
     24 C21        -3.5247    5.6450   -8.7812 C.2       1 <0>         0.5296
     25 O2         -3.9499    6.6693   -9.2719 O.2       1 <0>        -0.5122
     26 N3         -2.2396    5.2879   -8.9747 N.am      1 <0>        -0.7268
     27 C22        -1.3845    6.0809   -9.8613 C.3       1 <0>         0.2177
     28 C23        -0.0378    5.4882   -9.9034 C.1       1 <0>         0.1906
     29 N4          1.0015    5.0308   -9.9359 N.1       1 <0>        -0.4001
     30 H1          1.7504    0.7892    4.4078 H         1 <0>         0.0674
     31 H2          0.3993    1.2926    5.4515 H         1 <0>         0.0778
     32 H3          0.3636   -0.2988    4.6551 H         1 <0>         0.0671
     33 H4          0.2756    2.4031    3.2379 H         1 <0>         0.0885
     34 H5         -1.1112    1.3151    3.4851 H         1 <0>         0.0854
     35 H6          0.0423   -0.4513    2.1820 H         1 <0>         0.1301
     36 H7          1.4291    0.6368    1.9348 H         1 <0>         0.1322
     37 H8          0.0805   -0.4573   -0.3294 H         1 <0>         0.1391
     38 H9          1.2506    0.8797   -0.4395 H         1 <0>         0.1409
     39 H10        -0.1818    0.8218   -2.4513 H         1 <0>         0.1311
     40 H11        -1.6363    0.9364   -1.4310 H         1 <0>         0.0739
     41 H12        -0.8669    4.3197   -0.2580 H         1 <0>         0.1302
     42 H13        -2.0371    2.9827   -0.1483 H         1 <0>         0.0722
     43 H14         0.8498    2.9260    0.8436 H         1 <0>         0.1417
     44 H15        -0.6044    3.0409    1.8638 H         1 <0>         0.1424
     45 H16        -1.7317    1.3511   -3.3997 H         1 <0>         0.1342
     46 H17        -2.8693    2.3434   -5.3371 H         1 <0>         0.1319
     47 H18        -1.7240    6.2559   -3.9939 H         1 <0>         0.1460
     48 H19        -0.5979    5.2546   -2.0544 H         1 <0>         0.1363
     49 H20        -3.6112    3.2087   -6.7760 H         1 <0>         0.4024
     50 H21        -5.1588    6.4073   -6.7557 H         1 <0>         0.0861
     51 H22        -6.1404    6.0624   -8.1999 H         1 <0>         0.0881
     52 H23        -7.3064    5.3335   -6.1365 H         1 <0>         0.0695
     53 H24        -5.9268    4.2858   -5.7271 H         1 <0>         0.0584
     54 H25        -7.6434    4.0670   -8.2415 H         1 <0>         0.0695
     55 H26        -7.7326    2.9903   -6.8269 H         1 <0>         0.0663
     56 H27        -6.3500    1.9863   -8.6238 H         1 <0>         0.0754
     57 H28        -5.3683    2.3312   -7.1796 H         1 <0>         0.0597
     58 H29        -5.5819    4.1078   -9.6524 H         1 <0>         0.0944
     59 H30        -4.2024    3.0601   -9.2430 H         1 <0>         0.0767
     60 H31        -1.8809    4.5057   -8.5269 H         1 <0>         0.4019
     61 H32        -1.8097    6.0885  -10.8649 H         1 <0>         0.1180
     62 H33        -1.3204    7.1023   -9.4862 H         1 <0>         0.1177
     63 N5         -0.3524    1.1792    0.9180 N.4       1 <0>        -0.3985
     64 H34        -1.3505    0.9460    0.9783 H         1 <0>         0.4255
@<TRIPOS>BOND
     1    1    2 1
     2    1   30 1
     3    1   31 1
     4    1   32 1
     5    2    3 1
     6    2   33 1
     7    2   34 1
     8    3   35 1
     9    3   36 1
    10    3   63 1
    11    4    5 1
    12    4   37 1
    13    4   38 1
    14    4   63 1
    15    5    6 1
    16    5   39 1
    17    5   40 1
    18    6    7 1
    19    6    9 1
    20    7    8 1
    21    7   41 1
    22    7   42 1
    23    8   43 1
    24    8   44 1
    25    8   63 1
    26    9   14 ar
    27    9   10 ar
    28   10   11 ar
    29   10   45 1
    30   11   12 ar
    31   11   46 1
    32   12   13 ar
    33   12   15 1
    34   13   14 ar
    35   13   47 1
    36   14   48 1
    37   15   16 2
    38   15   17 am
    39   17   18 1
    40   17   49 1
    41   18   23 1
    42   18   19 1
    43   18   24 1
    44   19   20 1
    45   19   50 1
    46   19   51 1
    47   20   21 1
    48   20   52 1
    49   20   53 1
    50   21   22 1
    51   21   54 1
    52   21   55 1
    53   22   23 1
    54   22   56 1
    55   22   57 1
    56   23   58 1
    57   23   59 1
    58   24   25 2
    59   24   26 am
    60   26   27 1
    61   26   60 1
    62   27   28 1
    63   27   61 1
    64   27   62 1
    65   28   29 3
    66   63   64 1
@<TRIPOS>MOLECULE
ZINC03993799
   64    67     0     0     0
SMALL
USER_CHARGES

@<TRIPOS>ATOM
      1 C1          0.3588    1.5422    3.0477 C.3       1 <0>        -0.0409
      2 C2          0.1282    1.3994    0.6412 C.3       1 <0>         0.0069
      3 C3         -0.7343    1.8372   -0.5450 C.3       1 <0>         0.0157
      4 N1         -0.7321    3.3041   -0.6339 N.pl3     1 <0>        -0.4241
      5 C4         -1.2592    3.9043    0.5997 C.3       1 <0>         0.0274
      6 C5         -0.3967    3.4665    1.7858 C.3       1 <0>         0.0030
      7 C6         -1.4456    3.7354   -1.7399 C.2       1 <0>         0.2630
      8 N2         -1.6714    4.9663   -2.1588 N.2       1 <0>        -0.4906
      9 C7         -2.3876    5.1997   -3.2573 C.2       1 <0>         0.1069
     10 C8         -2.8958    4.1422   -3.9604 C.2       1 <0>        -0.1698
     11 S1         -2.2968    2.7717   -2.9811 S.3       1 <0>         0.0112
     12 C9         -2.6303    6.5876   -3.7123 C.ar      1 <0>        -0.0065
     13 C10        -2.0260    7.6560   -3.0464 C.ar      1 <0>        -0.0909
     14 C11        -2.2456    8.9409   -3.4706 C.ar      1 <0>        -0.0874
     15 C12        -3.0840    9.1823   -4.5630 C.ar      1 <0>        -0.1238
     16 C13        -3.6930    8.1125   -5.2256 C.ar      1 <0>        -0.0534
     17 C14        -3.4678    6.8278   -4.8036 C.ar      1 <0>        -0.1078
     18 C15        -3.3262   10.5658   -5.0163 C.2       1 <0>         0.5552
     19 O1         -4.0557   10.7753   -5.9662 O.2       1 <0>        -0.5089
     20 N3         -2.7389   11.5969   -4.3773 N.am      1 <0>        -0.7217
     21 C16        -2.8927   12.9602   -4.8909 C.3       1 <0>         0.1723
     22 C17        -2.3095   13.0420   -6.3030 C.3       1 <0>        -0.1180
     23 C18        -0.8244   12.6764   -6.2635 C.3       1 <0>        -0.1160
     24 C19        -0.0830   13.6529   -5.3482 C.3       1 <0>        -0.1244
     25 C20        -0.6661   13.5711   -3.9360 C.3       1 <0>        -0.1162
     26 C21        -2.1513   13.9367   -3.9756 C.3       1 <0>        -0.1212
     27 C22        -4.3555   13.3203   -4.9299 C.2       1 <0>         0.5304
     28 O2         -4.7848   14.0174   -5.8247 O.2       1 <0>        -0.5132
     29 N4         -5.1867   12.8677   -3.9703 N.am      1 <0>        -0.7271
     30 C23        -6.5860   13.3010   -3.9492 C.3       1 <0>         0.2175
     31 C24        -7.2777   12.6710   -2.8128 C.1       1 <0>         0.1923
     32 N5         -7.8114   12.1848   -1.9358 N.1       1 <0>        -0.4024
     33 H1          1.4050    1.8280    2.9389 H         1 <0>         0.1264
     34 H2         -0.0517    2.0015    3.9469 H         1 <0>         0.1253
     35 H3          0.2848    0.4576    3.1275 H         1 <0>         0.1251
     36 H4          0.1047    0.3130    0.7265 H         1 <0>         0.1468
     37 H5          1.1552    1.7298    0.4856 H         1 <0>         0.1463
     38 H6         -0.3280    1.4166   -1.4648 H         1 <0>         0.1365
     39 H7         -1.7551    1.4827   -0.4028 H         1 <0>         0.0830
     40 H8         -1.2356    4.9907    0.5143 H         1 <0>         0.1403
     41 H9         -2.2862    3.5739    0.7548 H         1 <0>         0.0772
     42 H10         0.6242    3.8207    1.6434 H         1 <0>         0.1454
     43 H11        -0.8027    3.8875    2.7056 H         1 <0>         0.1450
     44 H12        -3.4911    4.1366   -4.8615 H         1 <0>         0.2090
     45 H13        -1.3822    7.4696   -2.1996 H         1 <0>         0.1373
     46 H14        -1.7747    9.7668   -2.9582 H         1 <0>         0.1297
     47 H15        -4.3405    8.2981   -6.0698 H         1 <0>         0.1446
     48 H16        -3.9385    6.0012   -5.3151 H         1 <0>         0.1340
     49 H17        -2.2143   11.4362   -3.5773 H         1 <0>         0.4032
     50 H18        -2.8377   12.3464   -6.9551 H         1 <0>         0.0864
     51 H19        -2.4239   14.0564   -6.6852 H         1 <0>         0.0872
     52 H20        -0.4089   12.7347   -7.2695 H         1 <0>         0.0695
     53 H21        -0.7099   11.6621   -5.8813 H         1 <0>         0.0603
     54 H22        -0.1974   14.6673   -5.7303 H         1 <0>         0.0685
     55 H23         0.9751   13.3924   -5.3200 H         1 <0>         0.0663
     56 H24        -0.1379   14.2667   -3.2840 H         1 <0>         0.0745
     57 H25        -0.5517   12.5567   -3.5539 H         1 <0>         0.0610
     58 H26        -2.2657   14.9511   -4.3577 H         1 <0>         0.0935
     59 H27        -2.5667   13.8784   -2.9696 H         1 <0>         0.0760
     60 H28        -4.8584   12.2551   -3.2937 H         1 <0>         0.4023
     61 H29        -6.6291   14.3851   -3.8451 H         1 <0>         0.1176
     62 H30        -7.0718   13.0057   -4.8792 H         1 <0>         0.1177
     63 N6         -0.4251    1.9914    1.8772 N.4       1 <0>        -0.4027
     64 H31        -1.3979    1.6825    1.9888 H         1 <0>         0.4291
@<TRIPOS>BOND
     1    1   33 1
     2    1   34 1
     3    1   35 1
     4    1   63 1
     5    2    3 1
     6    2   36 1
     7    2   37 1
     8    2   63 1
     9    3    4 1
    10    3   38 1
    11    3   39 1
    12    4    5 1
    13    4    7 1
    14    5    6 1
    15    5   40 1
    16    5   41 1
    17    6   42 1
    18    6   43 1
    19    6   63 1
    20    7   11 1
    21    7    8 2
    22    8    9 1
    23    9   10 2
    24    9   12 1
    25   10   11 1
    26   10   44 1
    27   12   17 ar
    28   12   13 ar
    29   13   14 ar
    30   13   45 1
    31   14   15 ar
    32   14   46 1
    33   15   16 ar
    34   15   18 1
    35   16   17 ar
    36   16   47 1
    37   17   48 1
    38   18   19 2
    39   18   20 am
    40   20   21 1
    41   20   49 1
    42   21   26 1
    43   21   22 1
    44   21   27 1
    45   22   23 1
    46   22   50 1
    47   22   51 1
    48   23   24 1
    49   23   52 1
    50   23   53 1
    51   24   25 1
    52   24   54 1
    53   24   55 1
    54   25   26 1
    55   25   56 1
    56   25   57 1
    57   26   58 1
    58   26   59 1
    59   27   28 2
    60   27   29 am
    61   29   30 1
    62   29   60 1
    63   30   31 1
    64   30   61 1
    65   30   62 1
    66   31   32 3
    67   63   64 1
@<TRIPOS>MOLECULE
ZINC42893657
   63    65     0     0     0
SMALL
USER_CHARGES

@<TRIPOS>ATOM
      1 C1         -4.4994   -0.3437   -1.3388 C.3       1 <0>        -0.1751
      2 C2         -3.0726   -0.5433   -0.8238 C.3       1 <0>         0.1260
      3 C3         -2.6789    0.6420    0.0600 C.3       1 <0>        -0.1867
      4 C4         -3.0015   -1.8347   -0.0064 C.3       1 <0>        -0.1255
      5 C5         -1.5602   -2.0709    0.4496 C.3       1 <0>         0.0604
      6 H1         -1.1975   -1.1896    0.9786 H         1 <0>         0.1227
      7 C6         -1.5135   -3.2637    1.3695 C.2       1 <0>         0.4845
      8 O1         -0.8391   -4.2285    1.0776 O.2       1 <0>        -0.5144
      9 N1         -2.2211   -3.2582    2.5165 N.am      1 <0>        -0.6882
     10 C7         -2.1757   -4.4177    3.4108 C.3       1 <0>         0.1785
     11 C8         -3.4491   -5.2547    3.5476 C.3       1 <0>        -0.1517
     12 C9         -3.0009   -4.3503    4.6974 C.3       1 <0>        -0.1432
     13 C10        -0.8868   -5.1264    3.4664 C.1       1 <0>         0.2362
     14 N2          0.1080   -5.6734    3.5093 N.1       1 <0>        -0.3937
     15 N3         -0.7109   -2.3227   -0.7223 N.3       1 <0>        -0.6297
     16 C11         0.7051   -2.0941   -0.4051 C.3       1 <0>         0.0922
     17 H2          0.8833   -2.3215    0.6460 H         1 <0>         0.0964
     18 C12         1.5629   -2.9866   -1.2646 C.ar      1 <0>        -0.0992
     19 C13         1.2358   -3.1841   -2.5940 C.ar      1 <0>        -0.0846
     20 C14         2.0179   -4.0004   -3.3857 C.ar      1 <0>        -0.1027
     21 C15         3.1387   -4.6261   -2.8436 C.ar      1 <0>        -0.0478
     22 C16         3.4634   -4.4235   -1.5038 C.ar      1 <0>        -0.1020
     23 C17         2.6775   -3.6007   -0.7227 C.ar      1 <0>        -0.0846
     24 C18         3.9830   -5.5052   -3.6898 C.ar      1 <0>         0.0118
     25 C19         3.6612   -5.7035   -5.0310 C.ar      1 <0>        -0.1313
     26 C20         4.4503   -6.5219   -5.8136 C.ar      1 <0>        -0.0196
     27 C21         5.5585   -7.1450   -5.2688 C.ar      1 <0>        -0.6619
     28 C22         5.8823   -6.9521   -3.9379 C.ar      1 <0>        -0.0196
     29 C23         5.1038   -6.1309   -3.1477 C.ar      1 <0>        -0.1320
     30 S1          6.5611   -8.1889   -6.2736 S.o2      1 <0>         2.5001
     31 O2          7.1638   -9.0985   -5.3632 O.2       1 <0>        -0.9370
     32 O3          5.6894   -8.6560   -7.2939 O.2       1 <0>        -0.9369
     33 C24         7.8176   -7.0882   -6.9809 C.3       1 <0>        -0.6502
     34 C25         1.0589   -0.6307   -0.6773 C.3       1 <0>         0.4627
     35 F1          0.3499    0.1923    0.2044 F         1 <0>        -0.1840
     36 F2          2.4322   -0.4404   -0.4905 F         1 <0>        -0.1812
     37 F3          0.7180   -0.3058   -1.9946 F         1 <0>        -0.1617
     38 F4         -2.1931   -0.6288   -1.9083 F         1 <0>        -0.1851
     39 H3         -4.5501    0.5764   -1.9211 H         1 <0>         0.0698
     40 H4         -4.7799   -1.1881   -1.9684 H         1 <0>         0.0676
     41 H5         -5.1848   -0.2771   -0.4938 H         1 <0>         0.0723
     42 H6         -3.3934    0.7388    0.8775 H         1 <0>         0.0718
     43 H7         -1.6814    0.4762    0.4670 H         1 <0>         0.0746
     44 H8         -2.6815    1.5554   -0.5348 H         1 <0>         0.0700
     45 H9         -3.6491   -1.7487    0.8661 H         1 <0>         0.0913
     46 H10        -3.3299   -2.6725   -0.6215 H         1 <0>         0.0878
     47 H11        -2.7605   -2.4865    2.7499 H         1 <0>         0.4149
     48 H12        -4.3207   -4.9426    2.9722 H         1 <0>         0.1190
     49 H13        -3.3327   -6.3305    3.6786 H         1 <0>         0.1126
     50 H14        -2.5896   -4.8311    5.5849 H         1 <0>         0.1170
     51 H15        -3.5776   -3.4433    4.8785 H         1 <0>         0.1209
     52 H16        -0.8554   -3.2551   -1.0799 H         1 <0>         0.3735
     53 H17         0.3667   -2.6990   -3.0131 H         1 <0>         0.1424
     54 H18         1.7614   -4.1543   -4.4235 H         1 <0>         0.1330
     55 H19         4.3308   -4.9063   -1.0785 H         1 <0>         0.1317
     56 H20         2.9310   -3.4392    0.3147 H         1 <0>         0.1268
     57 H21         2.7958   -5.2180   -5.4572 H         1 <0>         0.1374
     58 H22         4.2018   -6.6763   -6.8532 H         1 <0>         0.1454
     59 H23         6.7485   -7.4413   -3.5175 H         1 <0>         0.1451
     60 H24         5.3600   -5.9773   -2.1098 H         1 <0>         0.1364
     61 H25         8.3928   -6.6293   -6.1767 H         1 <0>         0.1316
     62 H26         8.4851   -7.6635   -7.6224 H         1 <0>         0.1337
     63 H27         7.3300   -6.3104   -7.5685 H         1 <0>         0.1318
@<TRIPOS>BOND
     1    1    2 1
     2    1   39 1
     3    1   40 1
     4    1   41 1
     5    2    3 1
     6    2    4 1
     7    2   38 1
     8    3   42 1
     9    3   43 1
    10    3   44 1
    11    4    5 1
    12    4   45 1
    13    4   46 1
    14    5    6 1
    15    5    7 1
    16    5   15 1
    17    7    8 2
    18    7    9 am
    19    9   10 1
    20    9   47 1
    21   10   12 1
    22   10   11 1
    23   10   13 1
    24   11   12 1
    25   11   48 1
    26   11   49 1
    27   12   50 1
    28   12   51 1
    29   13   14 3
    30   15   16 1
    31   15   52 1
    32   16   17 1
    33   16   18 1
    34   16   34 1
    35   18   23 ar
    36   18   19 ar
    37   19   20 ar
    38   19   53 1
    39   20   21 ar
    40   20   54 1
    41   21   22 ar
    42   21   24 1
    43   22   23 ar
    44   22   55 1
    45   23   56 1
    46   24   29 ar
    47   24   25 ar
    48   25   26 ar
    49   25   57 1
    50   26   27 ar
    51   26   58 1
    52   27   28 ar
    53   27   30 1
    54   28   29 ar
    55   28   59 1
    56   29   60 1
    57   30   31 2
    58   30   32 2
    59   30   33 1
    60   33   61 1
    61   33   62 1
    62   33   63 1
    63   34   35 1
    64   34   36 1
    65   34   37 1
