@<TRIPOS>MOLECULE
ZINC00291740
   25    25     0     0     0
SMALL
USER_CHARGES

@<TRIPOS>ATOM
      1 C1         -0.1437    1.1377    0.0389 C.ar      1 <0>        -0.1490
      2 C2          0.9918    1.9233    0.1044 C.ar      1 <0>        -0.1241
      3 C3          2.2422    1.3343    0.0797 C.ar      1 <0>        -0.1232
      4 C4          2.3570   -0.0404   -0.0101 C.ar      1 <0>        -0.0456
      5 C5          1.2214   -0.8260   -0.0746 C.ar      1 <0>        -0.1179
      6 C6         -0.0289   -0.2369   -0.0513 C.ar      1 <0>        -0.1233
      7 C7          3.7201   -0.6824   -0.0380 C.3       1 <0>        -0.0612
      8 C8          4.2327   -0.8535    1.3933 C.3       1 <0>        -0.1235
      9 H1          4.2041    0.1075    1.9068 H         1 <0>         0.0562
     10 C9          3.3463   -1.8552    2.1362 C.3       1 <0>        -0.1544
     11 C10         3.7749   -1.9318    3.5789 C.2       1 <0>         0.4868
     12 O1          4.7032   -1.2485    3.9762 O.co2     1 <0>        -0.6423
     13 O2          3.1933   -2.6770    4.3489 O.co2     1 <0>        -0.7518
     14 C11         5.6502   -1.3641    1.3616 C.2       1 <0>         0.4928
     15 O3          6.2243   -1.5033    0.2950 O.co2     1 <0>        -0.7431
     16 O4          6.2229   -1.6380    2.4025 O.co2     1 <0>        -0.6435
     17 H2         -1.1206    1.5976    0.0628 H         1 <0>         0.1090
     18 H3          0.9022    2.9973    0.1746 H         1 <0>         0.1113
     19 H4          3.1293    1.9481    0.1301 H         1 <0>         0.1184
     20 H5          1.3111   -1.9000   -0.1451 H         1 <0>         0.1187
     21 H6         -0.9161   -0.8507   -0.1022 H         1 <0>         0.1119
     22 H7          3.6522   -1.6584   -0.5188 H         1 <0>         0.0589
     23 H8          4.4086   -0.0490   -0.5973 H         1 <0>         0.0664
     24 H9          2.3072   -1.5305    2.0826 H         1 <0>         0.0356
     25 H10         3.4440   -2.8383    1.6755 H         1 <0>         0.0370
@<TRIPOS>BOND
     1    1    6 ar
     2    1    2 ar
     3    1   17 1
     4    2    3 ar
     5    2   18 1
     6    3    4 ar
     7    3   19 1
     8    4    5 ar
     9    4    7 1
    10    5    6 ar
    11    5   20 1
    12    6   21 1
    13    7    8 1
    14    7   22 1
    15    7   23 1
    16    8    9 1
    17    8   10 1
    18    8   14 1
    19   10   11 1
    20   10   24 1
    21   10   25 1
    22   11   12 2
    23   11   13 1
    24   14   15 2
    25   14   16 1
@<TRIPOS>MOLECULE
ZINC00291740
   26    26     0     0     0
SMALL
USER_CHARGES

@<TRIPOS>ATOM
      1 C1         -0.1427    1.1404    0.0397 C.ar      1 <0>        -0.1383
      2 C2          0.9928    1.9257    0.1085 C.ar      1 <0>        -0.1199
      3 C3          2.2431    1.3367    0.0835 C.ar      1 <0>        -0.1199
      4 C4          2.3579   -0.0377   -0.0098 C.ar      1 <0>        -0.0656
      5 C5          1.2224   -0.8231   -0.0777 C.ar      1 <0>        -0.1239
      6 C6         -0.0279   -0.2340   -0.0541 C.ar      1 <0>        -0.1208
      7 C7          3.7210   -0.6797   -0.0381 C.3       1 <0>        -0.0574
      8 C8          4.2327   -0.8535    1.3933 C.3       1 <0>        -0.1415
      9 H1          4.2038    0.1065    1.9086 H         1 <0>         0.0717
     10 C9          3.3458   -1.8566    2.1337 C.3       1 <0>        -0.0847
     11 C10         3.7733   -1.9359    3.5766 C.2       1 <0>         0.4507
     12 O1          4.6931   -1.2596    3.9722 O.2       1 <0>        -0.4502
     13 O2          3.1324   -2.7580    4.4223 O.3       1 <0>        -0.5295
     14 C11         5.6502   -1.3641    1.3616 C.2       1 <0>         0.4917
     15 O3          6.2243   -1.5033    0.2950 O.co2     1 <0>        -0.7023
     16 O4          6.2229   -1.6380    2.4025 O.co2     1 <0>        -0.6707
     17 H2         -1.1196    1.6002    0.0638 H         1 <0>         0.1146
     18 H3          0.9030    2.9995    0.1815 H         1 <0>         0.1164
     19 H4          3.1302    1.9504    0.1366 H         1 <0>         0.1209
     20 H5          1.3122   -1.8969   -0.1510 H         1 <0>         0.1209
     21 H6         -0.9150   -0.8476   -0.1075 H         1 <0>         0.1167
     22 H7          3.6535   -1.6547   -0.5207 H         1 <0>         0.0699
     23 H8          4.4100   -0.0452   -0.5956 H         1 <0>         0.0811
     24 H9          2.3067   -1.5317    2.0800 H         1 <0>         0.0863
     25 H10         3.4437   -2.8388    1.6712 H         1 <0>         0.0903
     26 H11         3.4775   -2.7402    5.3254 H         1 <0>         0.3937
@<TRIPOS>BOND
     1    1    6 ar
     2    1    2 ar
     3    1   17 1
     4    2    3 ar
     5    2   18 1
     6    3    4 ar
     7    3   19 1
     8    4    5 ar
     9    4    7 1
    10    5    6 ar
    11    5   20 1
    12    6   21 1
    13    7    8 1
    14    7   22 1
    15    7   23 1
    16    8    9 1
    17    8   10 1
    18    8   14 1
    19   10   11 1
    20   10   24 1
    21   10   25 1
    22   11   12 2
    23   11   13 1
    24   13   26 1
    25   14   15 2
    26   14   16 1
@<TRIPOS>MOLECULE
ZINC00291743
   25    25     0     0     0
SMALL
USER_CHARGES
(2R)-2-benzylbutanedioic acid
@<TRIPOS>ATOM
      1 C1          1.1598    0.8162    4.3812 C.ar      1 <0>        -0.1430
      2 C2          0.7375    2.0003    3.8061 C.ar      1 <0>        -0.1218
      3 C3         -0.0979    1.9745    2.7051 C.ar      1 <0>        -0.0971
      4 C4         -0.5153    0.7648    2.1823 C.ar      1 <0>        -0.0468
      5 C5         -0.0887   -0.4192    2.7541 C.ar      1 <0>        -0.1196
      6 C6          0.7467   -0.3935    3.8551 C.ar      1 <0>        -0.1280
      7 C7         -1.4310    0.7369    0.9858 C.3       1 <0>        -0.0692
      8 C8         -2.8807    0.6027    1.4561 C.3       1 <0>        -0.1079
      9 H1         -2.9725   -0.2666    2.1072 H         1 <0>         0.0640
     10 C9         -3.7966    0.4301    0.2427 C.3       1 <0>        -0.1374
     11 C10        -5.2066    0.1754    0.7098 C.2       1 <0>         0.4575
     12 O1         -5.4536    0.1360    1.8919 O.co2     1 <0>        -0.6102
     13 C11        -3.2796    1.8425    2.2142 C.2       1 <0>         0.4994
     14 O2         -3.3586    2.9026    1.6399 O.co2     1 <0>        -0.6684
     15 H2          1.8122    0.8364    5.2416 H         1 <0>         0.1087
     16 H3          1.0600    2.9454    4.2173 H         1 <0>         0.1118
     17 H4         -0.4281    2.8996    2.2560 H         1 <0>         0.1208
     18 H5         -0.4118   -1.3644    2.3434 H         1 <0>         0.1158
     19 H6          1.0763   -1.3186    4.3046 H         1 <0>         0.1107
     20 H7         -1.3169    1.6610    0.4192 H         1 <0>         0.0684
     21 H8         -1.1747   -0.1120    0.3518 H         1 <0>         0.0572
     22 H9         -3.7725    1.3363   -0.3626 H         1 <0>         0.0641
     23 H10        -3.4534   -0.4148   -0.3543 H         1 <0>         0.0467
     24 O3         -6.1881   -0.0077   -0.1874 O.co2     1 <0>        -0.8072
     25 O4         -3.5472    1.7691    3.5275 O.co2     1 <0>        -0.7686
@<TRIPOS>BOND
     1    1    6 ar
     2    1    2 ar
     3    1   15 1
     4    2    3 ar
     5    2   16 1
     6    3    4 ar
     7    3   17 1
     8    4    5 ar
     9    4    7 1
    10    5    6 ar
    11    5   18 1
    12    6   19 1
    13    7    8 1
    14    7   20 1
    15    7   21 1
    16    8    9 1
    17    8   10 1
    18    8   13 1
    19   10   11 1
    20   10   22 1
    21   10   23 1
    22   11   12 2
    23   11   24 1
    24   13   14 2
    25   13   25 1
@<TRIPOS>MOLECULE
ZINC04188704
   42    45     0     0     0
SMALL
USER_CHARGES
N-benzyl-N-(4-phenylthiazol-2-yl)-cyclopropanecarboxamide
@<TRIPOS>ATOM
      1 C1          2.9522   -1.1745   -3.9273 C.ar      1 <0>        -0.1082
      2 C2          3.0994    0.1187   -3.4615 C.ar      1 <0>        -0.1232
      3 C3          2.6209    0.4615   -2.2107 C.ar      1 <0>        -0.0901
      4 C4          1.9956   -0.4890   -1.4256 C.ar      1 <0>        -0.1202
      5 C5          1.8535   -1.7836   -1.8890 C.ar      1 <0>        -0.1006
      6 C6          2.3269   -2.1250   -3.1421 C.ar      1 <0>        -0.1236
      7 C7          1.4744   -0.1154   -0.0618 C.3       1 <0>         0.1496
      8 N1          0.1361    0.4659   -0.1930 N.am      1 <0>        -0.4947
      9 C8         -0.0128    1.8383   -0.3516 C.2       1 <0>         0.3252
     10 N2          0.9127    2.7776   -0.4086 N.2       1 <0>        -0.5298
     11 C9          0.5899    4.0527   -0.5652 C.2       1 <0>         0.1191
     12 C10        -0.7275    4.4030   -0.6698 C.2       1 <0>        -0.2415
     13 S1         -1.5079    2.7994   -0.5404 S.3       1 <0>         0.1076
     14 C11         1.6475    5.0907   -0.6259 C.ar      1 <0>        -0.0234
     15 C12         2.9915    4.7213   -0.6173 C.ar      1 <0>        -0.0873
     16 C13         3.9714    5.6911   -0.6789 C.ar      1 <0>        -0.1231
     17 C14         3.6219    7.0283   -0.7379 C.ar      1 <0>        -0.1146
     18 C15         2.2898    7.4010   -0.7418 C.ar      1 <0>        -0.1199
     19 C16         1.3014    6.4395   -0.6860 C.ar      1 <0>        -0.1044
     20 C17        -0.9508   -0.3304   -0.1598 C.2       1 <0>         0.5477
     21 O1         -2.0521    0.1382   -0.3559 O.2       1 <0>        -0.4958
     22 C18        -0.7976   -1.8031    0.1208 C.3       1 <0>        -0.1970
     23 C19        -1.2177   -2.7794   -0.9797 C.3       1 <0>        -0.1433
     24 C20        -2.0759   -2.6288    0.2789 C.3       1 <0>        -0.1400
     25 H1          3.3254   -1.4421   -4.9048 H         1 <0>         0.1231
     26 H2          3.5879    0.8613   -4.0749 H         1 <0>         0.1230
     27 H3          2.7359    1.4718   -1.8468 H         1 <0>         0.1292
     28 H4          1.3689   -2.5273   -1.2738 H         1 <0>         0.1243
     29 H5          2.2117   -3.1352   -3.5062 H         1 <0>         0.1245
     30 H6          2.1437    0.6130    0.3960 H         1 <0>         0.1081
     31 H7          1.4238   -1.0062    0.5644 H         1 <0>         0.1049
     32 H8         -1.1732    5.3781   -0.7996 H         1 <0>         0.1977
     33 H9          3.2655    3.6778   -0.5665 H         1 <0>         0.1297
     34 H10         5.0130    5.4059   -0.6764 H         1 <0>         0.1240
     35 H11         4.3921    7.7842   -0.7814 H         1 <0>         0.1230
     36 H12         2.0227    8.4464   -0.7884 H         1 <0>         0.1256
     37 H13         0.2616    6.7316   -0.6891 H         1 <0>         0.1244
     38 H14         0.0583   -2.0776    0.7373 H         1 <0>         0.1331
     39 H15        -1.6049   -2.3566   -1.9067 H         1 <0>         0.1034
     40 H16        -0.6384   -3.6965   -1.0870 H         1 <0>         0.1115
     41 H17        -2.0608   -3.4469    0.9991 H         1 <0>         0.1108
     42 H18        -3.0277   -2.1068    0.1803 H         1 <0>         0.1113
@<TRIPOS>BOND
     1    1    6 ar
     2    1    2 ar
     3    1   25 1
     4    2    3 ar
     5    2   26 1
     6    3    4 ar
     7    3   27 1
     8    4    5 ar
     9    4    7 1
    10    5    6 ar
    11    5   28 1
    12    6   29 1
    13    7    8 1
    14    7   30 1
    15    7   31 1
    16    8    9 1
    17    8   20 am
    18    9   13 1
    19    9   10 2
    20   10   11 1
    21   11   12 2
    22   11   14 1
    23   12   13 1
    24   12   32 1
    25   14   19 ar
    26   14   15 ar
    27   15   16 ar
    28   15   33 1
    29   16   17 ar
    30   16   34 1
    31   17   18 ar
    32   17   35 1
    33   18   19 ar
    34   18   36 1
    35   19   37 1
    36   20   21 2
    37   20   22 1
    38   22   24 1
    39   22   23 1
    40   22   38 1
    41   23   24 1
    42   23   39 1
    43   23   40 1
    44   24   41 1
    45   24   42 1
@<TRIPOS>MOLECULE
ZINC01372365
   46    49     0     0     0
SMALL
USER_CHARGES
N-(3-chlorophenyl)-4-[[5-[(3-methoxyphenyl)methylsulfanyl]-1,3,4-oxadiazol-2-yl]methyl]thiazol-2-amine
@<TRIPOS>ATOM
      1 C1          0.2561    3.4181    0.8541 C.3       1 <0>         0.0226
      2 O1         -0.5120    3.6374    2.0390 O.3       1 <0>        -0.3151
      3 C2         -1.7630    3.1074    2.0702 C.ar      1 <0>         0.1289
      4 C3         -2.2415    2.3909    0.9827 C.ar      1 <0>        -0.1964
      5 C4         -3.5134    1.8533    1.0168 C.ar      1 <0>        -0.0778
      6 C5         -4.3095    2.0283    2.1339 C.ar      1 <0>        -0.1347
      7 C6         -3.8352    2.7421    3.2187 C.ar      1 <0>        -0.0469
      8 C7         -2.5616    3.2770    3.1917 C.ar      1 <0>        -0.1302
      9 C8         -4.7057    2.9313    4.4342 C.3       1 <0>        -0.0762
     10 S1         -4.4277    1.5692    5.5933 S.3       1 <0>         0.0740
     11 C9         -5.5380    2.0317    6.8809 C.2       1 <0>         0.1274
     12 N1         -6.3059    3.0946    6.9014 N.2       1 <0>        -0.2870
     13 N2         -6.9842    3.1083    7.9945 N.2       1 <0>        -0.2556
     14 C10        -6.6728    2.0700    8.7134 C.2       1 <0>         0.1784
     15 O2         -5.7517    1.3628    8.0297 O.3       1 <0>        -0.2068
     16 C11        -7.2396    1.7209   10.0654 C.3       1 <0>         0.0492
     17 C12        -8.4645    0.8608    9.8897 C.2       1 <0>         0.0913
     18 C13        -8.5548   -0.3481   10.4944 C.2       1 <0>        -0.2418
     19 S2        -10.1691   -0.8773    9.9404 S.3       1 <0>         0.0638
     20 C14       -10.5475    0.5189    8.9797 C.2       1 <0>         0.3429
     21 N3         -9.4713    1.2655    9.1390 N.2       1 <0>        -0.5556
     22 N4        -11.6880    0.7816    8.2356 N.pl3     1 <0>        -0.6260
     23 C15       -12.7794   -0.0890    8.2986 C.ar      1 <0>         0.1811
     24 C16       -13.0730   -0.7526    9.4836 C.ar      1 <0>        -0.1591
     25 C17       -14.1522   -1.6119    9.5434 C.ar      1 <0>        -0.0667
     26 C18       -14.9412   -1.8129    8.4255 C.ar      1 <0>        -0.1298
     27 C19       -14.6523   -1.1535    7.2436 C.ar      1 <0>        -0.0024
     28 C20       -13.5762   -0.2883    7.1787 C.ar      1 <0>        -0.1398
     29 Cl1       -15.6455   -1.4088    5.8428 Cl        1 <0>        -0.0573
     30 H1          1.2406    3.8969    0.9615 H         1 <0>         0.1043
     31 H2         -0.2701    3.8513   -0.0093 H         1 <0>         0.0579
     32 H3          0.3890    2.3374    0.6981 H         1 <0>         0.0580
     33 H4         -1.6199    2.2534    0.1103 H         1 <0>         0.1319
     34 H5         -3.8863    1.2955    0.1705 H         1 <0>         0.1310
     35 H6         -5.3036    1.6068    2.1589 H         1 <0>         0.1298
     36 H7         -2.1898    3.8306    4.0412 H         1 <0>         0.1365
     37 H8         -4.4530    3.8847    4.9213 H         1 <0>         0.1151
     38 H9         -5.7627    2.9439    4.1299 H         1 <0>         0.1149
     39 H10        -6.4859    1.1710   10.6481 H         1 <0>         0.1198
     40 H11        -7.5129    2.6438   10.5979 H         1 <0>         0.1314
     41 H12        -7.8469   -0.8524   11.1354 H         1 <0>         0.2005
     42 H13       -11.7336    1.6752    7.5958 H         1 <0>         0.4559
     43 H14       -12.4573   -0.5967   10.3572 H         1 <0>         0.1364
     44 H15       -14.3807   -2.1275   10.4644 H         1 <0>         0.1418
     45 H16       -15.7847   -2.4855    8.4751 H         1 <0>         0.1396
     46 H17       -13.3530    0.2291    6.2574 H         1 <0>         0.1410
@<TRIPOS>BOND
     1    1    2 1
     2    1   30 1
     3    1   31 1
     4    1   32 1
     5    2    3 1
     6    3    8 ar
     7    3    4 ar
     8    4    5 ar
     9    4   33 1
    10    5    6 ar
    11    5   34 1
    12    6    7 ar
    13    6   35 1
    14    7    8 ar
    15    7    9 1
    16    8   36 1
    17    9   10 1
    18    9   37 1
    19    9   38 1
    20   10   11 1
    21   11   15 1
    22   11   12 2
    23   12   13 1
    24   13   14 2
    25   14   15 1
    26   14   16 1
    27   16   17 1
    28   16   39 1
    29   16   40 1
    30   17   21 1
    31   17   18 2
    32   18   19 1
    33   18   41 1
    34   19   20 1
    35   20   21 2
    36   20   22 1
    37   22   23 1
    38   22   42 1
    39   23   28 ar
    40   23   24 ar
    41   24   25 ar
    42   24   43 1
    43   25   26 ar
    44   25   44 1
    45   26   27 ar
    46   26   45 1
    47   27   28 ar
    48   27   29 1
    49   28   46 1
@<TRIPOS>MOLECULE
ZINC02384679
   27    26     0     0     0
SMALL
USER_CHARGES
2-(2-guanidinoethylsulfanyl)butanedioic acid
@<TRIPOS>ATOM
      1 C1         -4.4237   -2.0959   -1.5888 C.3       1 <0>         0.1155
      2 C2         -4.6803   -1.5153   -0.1968 C.3       1 <0>        -0.1304
      3 S1         -3.5413   -0.1355    0.1023 S.3       1 <0>        -0.1830
      4 C3         -3.9696    0.4335    1.7707 C.3       1 <0>        -0.0576
      5 H1         -3.9095   -0.4034    2.4665 H         1 <0>         0.0803
      6 C4         -2.9915    1.5276    2.2031 C.3       1 <0>        -0.1276
      7 C5         -1.6071    0.9448    2.3239 C.2       1 <0>         0.4610
      8 O1         -1.4216   -0.2257    2.0881 O.co2     1 <0>        -0.6294
      9 C6         -5.3719    0.9853    1.7686 C.2       1 <0>         0.4682
     10 O2         -6.2576    0.3865    2.3312 O.co2     1 <0>        -0.6488
     11 N1         -5.3436   -3.2102   -1.8303 N.pl3     1 <0>        -0.6805
     12 C7         -5.2991   -3.8922   -3.0233 C.cat     1 <0>         0.7343
     13 N2         -4.3913   -3.5285   -3.9896 N.pl3     1 <0>        -0.8077
     14 H2         -4.5843   -1.3228   -2.3403 H         1 <0>         0.0991
     15 H3         -3.3959   -2.4537   -1.6495 H         1 <0>         0.1011
     16 H4         -4.5198   -2.2883    0.5546 H         1 <0>         0.0870
     17 H5         -5.7082   -1.1576   -0.1361 H         1 <0>         0.0902
     18 H6         -3.3011    1.9314    3.1671 H         1 <0>         0.0755
     19 H7         -2.9866    2.3250    1.4599 H         1 <0>         0.0792
     20 H8         -5.9841   -3.4669   -1.1485 H         1 <0>         0.4343
     21 H9         -6.1631   -5.4259   -4.0476 H         1 <0>         0.4449
     22 H10        -3.7823   -2.7906   -3.8297 H         1 <0>         0.4422
     23 H11        -4.3599   -4.0096   -4.8313 H         1 <0>         0.4326
     24 O3         -0.5789    1.7272    2.6878 O.co2     1 <0>        -0.7831
     25 O4         -5.6369    2.1423    1.1417 O.co2     1 <0>        -0.7454
     26 N3         -6.1573   -4.8897   -3.1799 N.pl3     1 <0>        -0.8063
     27 H12        -6.8163   -5.1227   -2.4279 H         1 <0>         0.4544
@<TRIPOS>BOND
     1    1    2 1
     2    1   11 1
     3    1   14 1
     4    1   15 1
     5    2    3 1
     6    2   16 1
     7    2   17 1
     8    3    4 1
     9    4    5 1
    10    4    6 1
    11    4    9 1
    12    6    7 1
    13    6   18 1
    14    6   19 1
    15    7    8 2
    16    7   24 1
    17    9   10 2
    18    9   25 1
    19   11   12 1
    20   11   20 1
    21   12   13 1
    22   12   26 2
    23   13   22 1
    24   13   23 1
    25   21   26 1
    26   26   27 1
@<TRIPOS>MOLECULE
ZINC04521543
   27    26     0     0     0
SMALL
USER_CHARGES
2-(2-guanidinoethylsulfanyl)butanedioic acid
@<TRIPOS>ATOM
      1 C1          0.1720    0.9578   -1.0774 C.3       1 <0>         0.1155
      2 C2          1.1891    0.2601   -0.1721 C.3       1 <0>        -0.1304
      3 S1          0.7577    0.5585    1.5644 S.3       1 <0>        -0.1830
      4 C3          2.0425   -0.3229    2.4935 C.3       1 <0>        -0.0576
      5 H1          2.0717   -1.3646    2.1741 H         1 <0>         0.0803
      6 C4          1.7265   -0.2566    3.9890 C.3       1 <0>        -0.1276
      7 C5          0.4489   -1.0062    4.2662 C.2       1 <0>         0.4610
      8 O1         -0.1477   -1.5387    3.3606 O.co2     1 <0>        -0.6292
      9 C6          3.3806    0.3200    2.2337 C.2       1 <0>         0.4682
     10 O2          4.2139   -0.2624    1.5809 O.co2     1 <0>        -0.6489
     11 N1          0.5203    0.7167   -2.4798 N.pl3     1 <0>        -0.6805
     12 C7         -0.2559    1.2487   -3.4822 C.cat     1 <0>         0.7343
     13 N2         -1.3591    2.0068   -3.1684 N.pl3     1 <0>        -0.8077
     14 H2         -0.8239    0.5623   -0.8773 H         1 <0>         0.1011
     15 H3          0.1839    2.0294   -0.8791 H         1 <0>         0.0990
     16 H4          1.1772   -0.8116   -0.3705 H         1 <0>         0.0871
     17 H5          2.1850    0.6556   -0.3722 H         1 <0>         0.0902
     18 H6          2.5426   -0.7083    4.5532 H         1 <0>         0.0755
     19 H7          1.6096    0.7845    4.2898 H         1 <0>         0.0791
     20 H8          1.2987    0.1818   -2.7012 H         1 <0>         0.4344
     21 H9         -0.4313    1.3668   -5.5079 H         1 <0>         0.4449
     22 H10        -1.5897    2.1664   -2.2398 H         1 <0>         0.4422
     23 H11        -1.9067    2.3821   -3.8756 H         1 <0>         0.4326
     24 O3         -0.0262   -1.0822    5.5194 O.co2     1 <0>        -0.7832
     25 O4          3.6465    1.5394    2.7277 O.co2     1 <0>        -0.7453
     26 N3          0.1124    0.9942   -4.7294 N.pl3     1 <0>        -0.8063
     27 H12         0.9452    0.4221   -4.9122 H         1 <0>         0.4544
@<TRIPOS>BOND
     1    1    2 1
     2    1   11 1
     3    1   14 1
     4    1   15 1
     5    2    3 1
     6    2   16 1
     7    2   17 1
     8    3    4 1
     9    4    5 1
    10    4    6 1
    11    4    9 1
    12    6    7 1
    13    6   18 1
    14    6   19 1
    15    7    8 2
    16    7   24 1
    17    9   10 2
    18    9   25 1
    19   11   12 1
    20   11   20 1
    21   12   13 1
    22   12   26 2
    23   13   22 1
    24   13   23 1
    25   21   26 1
    26   26   27 1
@<TRIPOS>MOLECULE
ZINC00904601
   51    53     0     0     0
SMALL
USER_CHARGES
isopropyl 2-[[4-benzyl-5-(2-methoxyphenyl)-1,2,4-triazol-3-yl]sulfanyl]acetate
@<TRIPOS>ATOM
      1 C1         -2.2975   13.3848    1.2662 C.3       1 <0>        -0.1516
      2 C2         -2.7347   12.1709    0.4438 C.3       1 <0>         0.0814
      3 C3         -3.1023   12.6197   -0.9719 C.3       1 <0>        -0.1723
      4 O1         -1.6463   11.2119    0.3803 O.3       1 <0>        -0.3428
      5 C4         -1.9811    9.9162    0.2760 C.2       1 <0>         0.4849
      6 O2         -3.1451    9.5941    0.2391 O.2       1 <0>        -0.4925
      7 C5         -0.9053    8.8633    0.2051 C.3       1 <0>        -0.1245
      8 S1         -1.6694    7.2281    0.0700 S.3       1 <0>         0.0799
      9 C6         -0.2257    6.2200    0.0063 C.2       1 <0>         0.1372
     10 N1          1.0192    6.6379    0.0510 N.2       1 <0>        -0.2865
     11 N2          1.8234    5.6379   -0.0191 N.2       1 <0>        -0.2456
     12 C7          1.1415    4.5199   -0.1130 C.2       1 <0>         0.2432
     13 N3         -0.1920    4.8587   -0.1056 N.pl3     1 <0>        -0.4524
     14 C8         -1.3369    3.9492   -0.1954 C.3       1 <0>         0.1340
     15 C9         -1.6633    3.6939   -1.6444 C.ar      1 <0>        -0.1247
     16 C10        -2.0557    4.7394   -2.4590 C.ar      1 <0>        -0.0976
     17 C11        -2.3504    4.5061   -3.7893 C.ar      1 <0>        -0.1154
     18 C12        -2.2627    3.2255   -4.3023 C.ar      1 <0>        -0.1053
     19 C13        -1.8753    2.1791   -3.4864 C.ar      1 <0>        -0.1160
     20 C14        -1.5756    2.4133   -2.1574 C.ar      1 <0>        -0.1065
     21 C15         1.7007    3.1559   -0.2140 C.ar      1 <0>        -0.0559
     22 C16         0.8596    2.0693   -0.4569 C.ar      1 <0>        -0.0937
     23 C17         1.3875    0.7982   -0.5502 C.ar      1 <0>        -0.1564
     24 C18         2.7490    0.5959   -0.4041 C.ar      1 <0>        -0.0601
     25 C19         3.5919    1.6644   -0.1628 C.ar      1 <0>        -0.2096
     26 C20         3.0773    2.9469   -0.0664 C.ar      1 <0>         0.1723
     27 O3          3.9049    3.9976    0.1707 O.3       1 <0>        -0.2825
     28 C21         5.2973    3.7081    0.3106 C.3       1 <0>         0.0224
     29 H1         -1.4309   13.8493    0.7958 H         1 <0>         0.0701
     30 H2         -3.1145   14.1047    1.3139 H         1 <0>         0.0818
     31 H3         -2.0356   13.0651    2.2748 H         1 <0>         0.0663
     32 H4         -3.6013   11.7064    0.9142 H         1 <0>         0.0887
     33 H5         -3.4138   11.7549   -1.5578 H         1 <0>         0.0625
     34 H6         -3.9193   13.3396   -0.9242 H         1 <0>         0.0784
     35 H7         -2.2357   13.0842   -1.4424 H         1 <0>         0.0686
     36 H8         -0.2952    8.9059    1.1073 H         1 <0>         0.1409
     37 H9         -0.2771    9.0440   -0.6672 H         1 <0>         0.1406
     38 H10        -1.0912    3.0063    0.2932 H         1 <0>         0.1170
     39 H11        -2.1985    4.3999    0.2971 H         1 <0>         0.1138
     40 H12        -2.1285    5.7392   -2.0571 H         1 <0>         0.1290
     41 H13        -2.6535    5.3236   -4.4267 H         1 <0>         0.1276
     42 H14        -2.4973    3.0424   -5.3406 H         1 <0>         0.1268
     43 H15        -1.8071    1.1785   -3.8871 H         1 <0>         0.1286
     44 H16        -1.2732    1.5957   -1.5198 H         1 <0>         0.1307
     45 H17        -0.2026    2.2238   -0.5762 H         1 <0>         0.1483
     46 H18         0.7359   -0.0424   -0.7382 H         1 <0>         0.1317
     47 H19         3.1548   -0.4022   -0.4788 H         1 <0>         0.1315
     48 H20         4.6532    1.4992   -0.0495 H         1 <0>         0.1373
     49 H21         5.6660    3.2457   -0.6050 H         1 <0>         0.0565
     50 H22         5.8438    4.6328    0.4963 H         1 <0>         0.1044
     51 H23         5.4441    3.0250    1.1472 H         1 <0>         0.0560
@<TRIPOS>BOND
     1    1    2 1
     2    1   29 1
     3    1   30 1
     4    1   31 1
     5    2    3 1
     6    2    4 1
     7    2   32 1
     8    3   33 1
     9    3   34 1
    10    3   35 1
    11    4    5 1
    12    5    6 2
    13    5    7 1
    14    7    8 1
    15    7   36 1
    16    7   37 1
    17    8    9 1
    18    9   13 1
    19    9   10 2
    20   10   11 1
    21   11   12 2
    22   12   13 1
    23   12   21 1
    24   13   14 1
    25   14   15 1
    26   14   38 1
    27   14   39 1
    28   15   20 ar
    29   15   16 ar
    30   16   17 ar
    31   16   40 1
    32   17   18 ar
    33   17   41 1
    34   18   19 ar
    35   18   42 1
    36   19   20 ar
    37   19   43 1
    38   20   44 1
    39   21   26 ar
    40   21   22 ar
    41   22   23 ar
    42   22   45 1
    43   23   24 ar
    44   23   46 1
    45   24   25 ar
    46   24   47 1
    47   25   26 ar
    48   25   48 1
    49   26   27 1
    50   27   28 1
    51   28   49 1
    52   28   50 1
    53   28   51 1
@<TRIPOS>MOLECULE
ZINC13126023
   42    45     0     0     0
SMALL
USER_CHARGES

@<TRIPOS>ATOM
      1 C1         -0.2124    0.6826    0.3697 C.2       1 <0>        -0.2171
      2 C2          1.0377    1.3406    0.3127 C.2       1 <0>        -0.1812
      3 C3          1.9722    0.3878    0.1440 C.2       1 <0>        -0.0599
      4 O1          1.3579   -0.8055    0.0961 O.3       1 <0>        -0.1580
      5 C4          0.0330   -0.6328    0.2324 C.2       1 <0>        -0.0128
      6 C5          3.4567    0.6201    0.0280 C.3       1 <0>         0.1769
      7 N1          4.0408    0.7247    1.3674 N.pl3     1 <0>        -0.4554
      8 C6          4.3191    1.8772    2.0653 C.2       1 <0>         0.2321
      9 N2          4.8317    1.5150    3.2183 N.2       1 <0>        -0.2623
     10 N3          4.8922    0.2332    3.2884 N.2       1 <0>        -0.2883
     11 C7          4.4171   -0.3020    2.1865 C.2       1 <0>         0.1567
     12 S1          4.2920   -2.0230    1.8301 S.3       1 <0>         0.0714
     13 C8          4.9552   -2.8279    3.3143 C.3       1 <0>        -0.1717
     14 C9          4.9054   -4.3239    3.1393 C.2       1 <0>         0.4610
     15 O2          4.4651   -4.8008    2.1129 O.2       1 <0>        -0.4323
     16 C10         5.3706   -5.1712    4.1690 C.2       1 <0>        -0.3016
     17 C11         5.4182   -6.5617    4.2069 C.2       1 <0>        -0.0446
     18 C12         5.9288   -7.1078    5.3568 C.2       1 <0>        -0.1951
     19 C13         6.3422   -6.2830    6.3533 C.2       1 <0>        -0.2095
     20 S2          6.0574   -4.7387    5.7563 S.3       1 <0>         0.2452
     21 C14         4.0859    3.2619    1.6037 C.ar      1 <0>        -0.0254
     22 C15         4.7208    4.3288    2.2422 C.ar      1 <0>        -0.0550
     23 C16         4.5010    5.6187    1.8083 C.ar      1 <0>        -0.1390
     24 C17         3.6490    5.8576    0.7381 C.ar      1 <0>         0.1243
     25 C18         3.0152    4.7991    0.1007 C.ar      1 <0>        -0.1391
     26 C19         3.2346    3.5059    0.5245 C.ar      1 <0>        -0.1166
     27 O3          3.4346    7.1304    0.3138 O.3       1 <0>        -0.4968
     28 H1         -1.1785    1.1467    0.5026 H         1 <0>         0.1545
     29 H2          1.2094    2.4041    0.3893 H         1 <0>         0.1578
     30 H3         -0.7095   -1.4171    0.2322 H         1 <0>         0.2095
     31 H4          3.9145   -0.2139   -0.5039 H         1 <0>         0.1203
     32 H5          3.6380    1.5443   -0.5207 H         1 <0>         0.1397
     33 H6          5.9878   -2.5142    3.4671 H         1 <0>         0.1330
     34 H7          4.3571   -2.5432    4.1800 H         1 <0>         0.1326
     35 H8          5.0749   -7.1713    3.3841 H         1 <0>         0.1522
     36 H9          6.0008   -8.1796    5.4685 H         1 <0>         0.1419
     37 H10         6.7624   -6.5572    7.3096 H         1 <0>         0.1931
     38 H11         5.3830    4.1439    3.0750 H         1 <0>         0.1436
     39 H12         4.9918    6.4446    2.3017 H         1 <0>         0.1401
     40 H13         2.3530    4.9891   -0.7311 H         1 <0>         0.1382
     41 H14         2.7450    2.6828    0.0251 H         1 <0>         0.1417
     42 H15         4.0536    7.4275   -0.3672 H         1 <0>         0.3960
@<TRIPOS>BOND
     1    1    5 2
     2    1    2 1
     3    1   28 1
     4    2    3 2
     5    2   29 1
     6    3    4 1
     7    3    6 1
     8    4    5 1
     9    5   30 1
    10    6    7 1
    11    6   31 1
    12    6   32 1
    13    7   11 1
    14    7    8 1
    15    8    9 2
    16    8   21 1
    17    9   10 1
    18   10   11 2
    19   11   12 1
    20   12   13 1
    21   13   14 1
    22   13   33 1
    23   13   34 1
    24   14   15 2
    25   14   16 1
    26   16   20 1
    27   16   17 2
    28   17   18 1
    29   17   35 1
    30   18   19 2
    31   18   36 1
    32   19   20 1
    33   19   37 1
    34   21   26 ar
    35   21   22 ar
    36   22   23 ar
    37   22   38 1
    38   23   24 ar
    39   23   39 1
    40   24   25 ar
    41   24   27 1
    42   25   26 ar
    43   25   40 1
    44   26   41 1
    45   27   42 1
@<TRIPOS>MOLECULE
ZINC00411881
   34    36     0     0     0
SMALL
USER_CHARGES

@<TRIPOS>ATOM
      1 C1         -0.0166    1.3751    0.0096 C.ar      1 <0>        -0.1296
      2 C2          1.1694    2.0890    0.0021 C.ar      1 <0>        -0.0741
      3 C3          2.3829    1.4275   -0.0130 C.ar      1 <0>        -0.1474
      4 C4          2.4190    0.0428   -0.0212 C.ar      1 <0>         0.1627
      5 C5          1.2214   -0.6834   -0.0136 C.ar      1 <0>        -0.0607
      6 C6          0.0021   -0.0041    0.0020 C.ar      1 <0>        -0.0674
      7 C7          1.2484   -2.1598   -0.0228 C.2       1 <0>         0.2153
      8 N1          2.3190   -2.9165   -0.0322 N.2       1 <0>        -0.2460
      9 N2          1.9679   -4.1542   -0.0382 N.2       1 <0>        -0.2883
     10 C8          0.6580   -4.2370   -0.0328 C.2       1 <0>         0.1230
     11 O1          0.1742   -2.9799   -0.0170 O.3       1 <0>        -0.1989
     12 S1         -0.2931   -5.7202   -0.0380 S.3       1 <0>         0.1249
     13 C9          0.9517   -7.0396   -0.0514 C.3       1 <0>        -0.1844
     14 C10         0.2630   -8.3800   -0.0569 C.2       1 <0>         0.4234
     15 O2         -0.9482   -8.4394   -0.0522 O.2       1 <0>        -0.4275
     16 C11         1.0598   -9.6163   -0.0680 C.ar      1 <0>        -0.1632
     17 C12         2.4573   -9.5517   -0.0675 C.ar      1 <0>        -0.0575
     18 C13         3.1975  -10.7142   -0.0774 C.ar      1 <0>        -0.1216
     19 C14         2.5607  -11.9449   -0.0882 C.ar      1 <0>        -0.0008
     20 C15         1.1769  -12.0165   -0.0887 C.ar      1 <0>        -0.1218
     21 C16         0.4239  -10.8624   -0.0731 C.ar      1 <0>        -0.0410
     22 Cl1         3.5012  -13.4040   -0.1018 Cl        1 <0>        -0.0540
     23 O3          3.6110   -0.6082   -0.0369 O.3       1 <0>        -0.4770
     24 H1         -0.9603    1.9001    0.0259 H         1 <0>         0.1378
     25 H2          1.1463    3.1688    0.0077 H         1 <0>         0.1374
     26 H3          3.3042    1.9911   -0.0188 H         1 <0>         0.1426
     27 H4         -0.9253   -0.5575    0.0082 H         1 <0>         0.1367
     28 H5          1.5711   -6.9458   -0.9434 H         1 <0>         0.1390
     29 H6          1.5785   -6.9569    0.8365 H         1 <0>         0.1388
     30 H7          2.9549   -8.5932   -0.0598 H         1 <0>         0.1451
     31 H8          4.2764  -10.6659   -0.0771 H         1 <0>         0.1446
     32 H9          0.6873  -12.9791   -0.0975 H         1 <0>         0.1445
     33 H10        -0.6546  -10.9197   -0.0693 H         1 <0>         0.1475
     34 H11         3.9651   -0.8017    0.8419 H         1 <0>         0.3978
@<TRIPOS>BOND
     1    1    6 ar
     2    1    2 ar
     3    1   24 1
     4    2    3 ar
     5    2   25 1
     6    3    4 ar
     7    3   26 1
     8    4    5 ar
     9    4   23 1
    10    5    6 ar
    11    5    7 1
    12    6   27 1
    13    7   11 1
    14    7    8 2
    15    8    9 1
    16    9   10 2
    17   10   11 1
    18   10   12 1
    19   12   13 1
    20   13   14 1
    21   13   28 1
    22   13   29 1
    23   14   15 2
    24   14   16 1
    25   16   21 ar
    26   16   17 ar
    27   17   18 ar
    28   17   30 1
    29   18   19 ar
    30   18   31 1
    31   19   20 ar
    32   19   22 1
    33   20   21 ar
    34   20   32 1
    35   21   33 1
    36   23   34 1
@<TRIPOS>MOLECULE
ZINC01223733
   42    44     0     0     0
SMALL
USER_CHARGES

@<TRIPOS>ATOM
      1 C1         -1.3048    2.5033   -2.7507 C.3       1 <0>         0.0331
      2 O1         -1.0752    1.2045   -2.2009 O.3       1 <0>        -0.3426
      3 C2         -0.4128    0.3257   -2.9695 C.2       1 <0>         0.4842
      4 O2         -0.0404    0.6486   -4.0727 O.2       1 <0>        -0.4886
      5 C3         -0.1338   -1.0635   -2.4566 C.3       1 <0>        -0.1227
      6 S1          0.7698   -2.0036   -3.7177 S.3       1 <0>         0.0761
      7 C4          1.0169   -3.5829   -2.9766 C.2       1 <0>         0.1430
      8 N1          0.6151   -3.9548   -1.7822 N.2       1 <0>        -0.2876
      9 N2          0.9618   -5.1719   -1.5588 N.2       1 <0>        -0.2458
     10 C5          1.6063   -5.6522   -2.5969 C.2       1 <0>         0.2346
     11 N3          1.6567   -4.6511   -3.5393 N.pl3     1 <0>        -0.4493
     12 C6          2.2712   -4.7157   -4.8676 C.3       1 <0>         0.1335
     13 C7          3.7224   -4.3216   -4.7695 C.ar      1 <0>        -0.1263
     14 C8          4.0663   -3.0476   -4.3578 C.ar      1 <0>        -0.0983
     15 C9          5.3975   -2.6860   -4.2679 C.ar      1 <0>        -0.1152
     16 C10         6.3848   -3.5986   -4.5891 C.ar      1 <0>        -0.1045
     17 C11         6.0409   -4.8730   -5.0000 C.ar      1 <0>        -0.1162
     18 C12         4.7098   -5.2358   -5.0858 C.ar      1 <0>        -0.1066
     19 C13         2.1673   -7.0128   -2.7300 C.ar      1 <0>        -0.0483
     20 C14         2.9686   -7.3370   -3.8254 C.ar      1 <0>        -0.1183
     21 C15         3.4894   -8.6089   -3.9442 C.ar      1 <0>        -0.1269
     22 C16         3.2199   -9.5658   -2.9809 C.ar      1 <0>        -0.0856
     23 C17         2.4272   -9.2564   -1.8917 C.ar      1 <0>        -0.1441
     24 C18         1.9022   -7.9818   -1.7546 C.ar      1 <0>         0.1539
     25 O3          1.1283   -7.6749   -0.6812 O.3       1 <0>        -0.4747
     26 H1         -0.3492    2.9756   -2.9787 H         1 <0>         0.0651
     27 H2         -1.8923    2.4124   -3.6644 H         1 <0>         0.0652
     28 H3         -1.8482    3.1127   -2.0286 H         1 <0>         0.1084
     29 H4          0.4672   -1.0019   -1.5493 H         1 <0>         0.1410
     30 H5         -1.0758   -1.5651   -2.2350 H         1 <0>         0.1412
     31 H6          2.1961   -5.7323   -5.2536 H         1 <0>         0.1179
     32 H7          1.7538   -4.0323   -5.5409 H         1 <0>         0.1146
     33 H8          3.2949   -2.3345   -4.1068 H         1 <0>         0.1300
     34 H9          5.6662   -1.6904   -3.9469 H         1 <0>         0.1281
     35 H10         7.4248   -3.3159   -4.5195 H         1 <0>         0.1273
     36 H11         6.8123   -5.5859   -5.2513 H         1 <0>         0.1289
     37 H12         4.4412   -6.2326   -5.4032 H         1 <0>         0.1306
     38 H13         3.1804   -6.5933   -4.5793 H         1 <0>         0.1461
     39 H14         4.1095   -8.8591   -4.7923 H         1 <0>         0.1327
     40 H15         3.6310  -10.5594   -3.0812 H         1 <0>         0.1335
     41 H16         2.2205  -10.0081   -1.1443 H         1 <0>         0.1385
     42 H17         0.1850   -7.8387   -0.8168 H         1 <0>         0.3938
@<TRIPOS>BOND
     1    1    2 1
     2    1   26 1
     3    1   27 1
     4    1   28 1
     5    2    3 1
     6    3    4 2
     7    3    5 1
     8    5    6 1
     9    5   29 1
    10    5   30 1
    11    6    7 1
    12    7   11 1
    13    7    8 2
    14    8    9 1
    15    9   10 2
    16   10   11 1
    17   10   19 1
    18   11   12 1
    19   12   13 1
    20   12   31 1
    21   12   32 1
    22   13   18 ar
    23   13   14 ar
    24   14   15 ar
    25   14   33 1
    26   15   16 ar
    27   15   34 1
    28   16   17 ar
    29   16   35 1
    30   17   18 ar
    31   17   36 1
    32   18   37 1
    33   19   24 ar
    34   19   20 ar
    35   20   21 ar
    36   20   38 1
    37   21   22 ar
    38   21   39 1
    39   22   23 ar
    40   22   40 1
    41   23   24 ar
    42   23   41 1
    43   24   25 1
    44   25   42 1
