@<TRIPOS>MOLECULE
ZINC16051731
   29    29     0     0     0
SMALL
USER_CHARGES
(2R)-2-(3-guanidinophenyl)-3-sulfanyl-propanoic acid
@<TRIPOS>ATOM
      1 C1          1.8347    4.3182   -0.3111 C.ar      1 <0>        -0.0797
      2 C2          2.2013    3.0249   -0.6367 C.ar      1 <0>        -0.0691
      3 C3          1.2373    2.0426   -0.7695 C.ar      1 <0>         0.0131
      4 C4         -0.0959    2.3513   -0.5825 C.ar      1 <0>        -0.1173
      5 C5         -0.4668    3.6477   -0.2503 C.ar      1 <0>         0.0967
      6 C6          0.5040    4.6323   -0.1176 C.ar      1 <0>        -0.1975
      7 N1         -1.8156    3.9625   -0.0549 N.pl3     1 <0>        -0.6261
      8 C7         -2.2890    5.2076   -0.4018 C.cat     1 <0>         0.7348
      9 N2         -3.5851    5.5576   -0.1049 N.pl3     1 <0>        -0.8086
     10 C8          1.6413    0.6349   -1.1249 C.3       1 <0>        -0.0980
     11 H1          0.7529    0.0061   -1.1848 H         1 <0>         0.0948
     12 C9          2.3576    0.6358   -2.4768 C.3       1 <0>        -0.0495
     13 S1          2.7125   -1.0723   -2.9741 S.3       1 <0>        -0.1603
     14 C10         2.5679    0.0956   -0.0658 C.2       1 <0>         0.4627
     15 O1          2.8693    0.7838    0.8804 O.co2     1 <0>        -0.6321
     16 H2          2.5900    5.0833   -0.2085 H         1 <0>         0.1393
     17 H3          3.2427    2.7819   -0.7880 H         1 <0>         0.1382
     18 H4         -0.8488    1.5845   -0.6904 H         1 <0>         0.1368
     19 H5          0.2183    5.6423    0.1362 H         1 <0>         0.1365
     20 H6         -2.4175    3.3033    0.3250 H         1 <0>         0.4392
     21 H7         -1.7500    6.9559   -1.2971 H         1 <0>         0.4418
     22 H8         -4.1660    4.9271    0.3491 H         1 <0>         0.4386
     23 H9         -3.9187    6.4351   -0.3493 H         1 <0>         0.4373
     24 H10         1.7206    1.1071   -3.2252 H         1 <0>         0.0706
     25 H11         3.2917    1.1913   -2.3928 H         1 <0>         0.0774
     26 H12         3.3340   -0.9434   -4.1600 H         1 <0>         0.0297
     27 N3         -1.4462    6.0224   -1.0197 N.pl3     1 <0>        -0.8013
     28 H13        -0.4874    5.7141   -1.2192 H         1 <0>         0.4615
     29 O2          3.0583   -1.1491   -0.1737 O.co2     1 <0>        -0.7096
@<TRIPOS>BOND
     1    1    6 ar
     2    1    2 ar
     3    1   16 1
     4    2    3 ar
     5    2   17 1
     6    3    4 ar
     7    3   10 1
     8    4    5 ar
     9    4   18 1
    10    5    6 ar
    11    5    7 1
    12    6   19 1
    13    7    8 1
    14    7   20 1
    15    8    9 1
    16    8   27 2
    17    9   22 1
    18    9   23 1
    19   10   11 1
    20   10   12 1
    21   10   14 1
    22   12   13 1
    23   12   24 1
    24   12   25 1
    25   13   26 1
    26   14   15 2
    27   14   29 1
    28   21   27 1
    29   27   28 1
@<TRIPOS>MOLECULE
ZINC28897513
   29    29     0     0     0
SMALL
USER_CHARGES
(2S)-2-(3-guanidinophenyl)-3-sulfanyl-propanoic acid
@<TRIPOS>ATOM
      1 C1         -2.6981    3.4715    0.1430 C.ar      1 <0>        -0.0810
      2 C2         -3.8073    2.6580    0.2872 C.ar      1 <0>        -0.0746
      3 C3         -3.6589    1.2843    0.3380 C.ar      1 <0>         0.0152
      4 C4         -2.4015    0.7201    0.2454 C.ar      1 <0>        -0.1135
      5 C5         -1.2858    1.5340    0.1010 C.ar      1 <0>         0.1122
      6 C6         -1.4378    2.9140    0.0555 C.ar      1 <0>        -0.2008
      7 N1         -0.0111    0.9658    0.0074 N.pl3     1 <0>        -0.6489
      8 C7          0.9547    1.5660   -0.7684 C.cat     1 <0>         0.7366
      9 N2          0.6522    2.6011   -1.5005 N.pl3     1 <0>        -0.8192
     10 N3          2.2386    1.0737   -0.7710 N.pl3     1 <0>        -0.8543
     11 C8         -4.8704    0.4017    0.4942 C.3       1 <0>        -0.0829
     12 H1         -4.5473   -0.6493    0.5266 H         1 <0>         0.1021
     13 C9         -5.8217    0.6284   -0.6825 C.3       1 <0>        -0.0214
     14 S1         -5.0249    0.0824   -2.2179 S.3       1 <0>        -0.2060
     15 C10        -5.5755    0.7398    1.7825 C.2       1 <0>         0.4755
     16 O1         -5.1390    1.6083    2.5002 O.co2     1 <0>        -0.6167
     17 O2         -6.6883    0.0760    2.1327 O.co2     1 <0>        -0.7416
     18 H2         -2.8174    4.5442    0.1032 H         1 <0>         0.1344
     19 H3         -4.7915    3.0968    0.3599 H         1 <0>         0.1327
     20 H4         -2.2863   -0.3530    0.2855 H         1 <0>         0.1346
     21 H5         -0.5716    3.5500   -0.0522 H         1 <0>         0.1316
     22 H6          0.2196    0.0393    0.5537 H         1 <0>         0.4663
     23 H7          1.4240    3.0807   -2.1205 H         1 <0>         0.4564
     24 H8          3.0103    1.5534   -1.3910 H         1 <0>         0.4592
     25 H9          2.4940    0.2002   -0.1531 H         1 <0>         0.4598
     26 H10        -6.7452    0.0523   -0.5236 H         1 <0>         0.1024
     27 H11        -6.0653    1.6986   -0.7562 H         1 <0>         0.0805
     28 H12        -5.5594    0.1679   -3.1755 H         1 <0>        -0.0109
     29 H13        -0.3748    2.9950   -1.4984 H         1 <0>         0.4721
@<TRIPOS>BOND
     1    1    6 ar
     2    1    2 ar
     3    1   18 1
     4    2    3 ar
     5    2   19 1
     6    3    4 ar
     7    3   11 1
     8    4    5 ar
     9    4   20 1
    10    5    6 ar
    11    5    7 1
    12    6   21 1
    13    7    8 1
    14    7   22 1
    15    8    9 2
    16    8   10 1
    17    9   23 1
    18    9   29 1
    19   10   24 1
    20   10   25 1
    21   11   12 1
    22   11   13 1
    23   11   15 1
    24   13   14 1
    25   13   26 1
    26   13   27 1
    27   14   28 1
    28   15   16 2
    29   15   17 1
@<TRIPOS>MOLECULE
ZINC28897535
   23    23     0     0     0
SMALL
USER_CHARGES
(2R)-2-(3-aminophenyl)-3-sulfanyl-propanoic acid
@<TRIPOS>ATOM
      1 C1         -1.2172    1.7507    0.0173 C.ar      1 <0>        -0.0795
      2 C2         -1.2368    3.1336    0.0293 C.ar      1 <0>        -0.1401
      3 C3         -0.0513    3.8450    0.0222 C.ar      1 <0>         0.0129
      4 C4          1.1572    3.1763    0.0076 C.ar      1 <0>        -0.1997
      5 C5          1.1806    1.7876    0.0004 C.ar      1 <0>         0.2145
      6 C6         -0.0126    1.0758    0.0080 C.ar      1 <0>        -0.2165
      7 N1          2.4008    1.1081   -0.0149 N.pl3     1 <0>        -0.9060
      8 C7         -0.0776    5.3518    0.0301 C.3       1 <0>        -0.0839
      9 H1          0.9556    5.7292    0.0361 H         1 <0>         0.0893
     10 C8         -0.8193    5.8553   -1.2098 C.3       1 <0>        -0.0265
     11 S1         -0.7237    7.6655   -1.2780 S.3       1 <0>        -0.1151
     12 C9         -0.7852    5.8354    1.2696 C.2       1 <0>         0.4647
     13 O1         -1.2231    5.0383    2.0651 O.co2     1 <0>        -0.6311
     14 O2         -0.9289    7.1516    1.4900 O.co2     1 <0>        -0.7262
     15 H2         -2.1451    1.1980    0.0187 H         1 <0>         0.1124
     16 H3         -2.1804    3.6590    0.0400 H         1 <0>         0.1138
     17 H4          2.0829    3.7325    0.0021 H         1 <0>         0.1134
     18 H5          0.0021   -0.0041    0.0020 H         1 <0>         0.1080
     19 H6          2.4178    0.0082   -0.0206 H         1 <0>         0.4069
     20 H7          3.3448    1.6728   -0.0213 H         1 <0>         0.4097
     21 H8         -0.3563    5.4294   -2.1122 H         1 <0>         0.0661
     22 H9         -1.8735    5.5455   -1.1575 H         1 <0>         0.0728
     23 H10        -1.2023    8.2108   -2.1048 H         1 <0>        -0.0600
@<TRIPOS>BOND
     1    1    6 ar
     2    1    2 ar
     3    1   15 1
     4    2    3 ar
     5    2   16 1
     6    3    4 ar
     7    3    8 1
     8    4    5 ar
     9    4   17 1
    10    5    6 ar
    11    5    7 1
    12    6   18 1
    13    7   19 1
    14    7   20 1
    15    8    9 1
    16    8   10 1
    17    8   12 1
    18   10   11 1
    19   10   21 1
    20   10   22 1
    21   11   23 1
    22   12   13 2
    23   12   14 1
@<TRIPOS>MOLECULE
ZINC28897540
   23    23     0     0     0
SMALL
USER_CHARGES
(2S)-2-(3-aminophenyl)-3-sulfanyl-propanoic acid
@<TRIPOS>ATOM
      1 C1         -1.2172    1.7507    0.0173 C.ar      1 <0>        -0.0791
      2 C2         -1.2368    3.1336    0.0308 C.ar      1 <0>        -0.1405
      3 C3         -0.0513    3.8450    0.0233 C.ar      1 <0>         0.0131
      4 C4          1.1572    3.1762    0.0081 C.ar      1 <0>        -0.1999
      5 C5          1.1806    1.7876    0.0004 C.ar      1 <0>         0.2147
      6 C6         -0.0126    1.0758    0.0080 C.ar      1 <0>        -0.2168
      7 N1          2.4008    1.1081   -0.0145 N.pl3     1 <0>        -0.9060
      8 C7         -0.0776    5.3517    0.0322 C.3       1 <0>        -0.0839
      9 H1          0.9554    5.7291    0.0110 H         1 <0>         0.0893
     10 C8         -0.7959    5.8418    1.2911 C.3       1 <0>        -0.0265
     11 S1         -0.6988    7.6512    1.3769 S.3       1 <0>        -0.1151
     12 C9         -0.8082    5.8486   -1.1886 C.2       1 <0>         0.4648
     13 O1         -1.2610    5.0601   -1.9843 O.co2     1 <0>        -0.6311
     14 O2         -0.9559    7.1671   -1.3921 O.co2     1 <0>        -0.7262
     15 H2         -2.1451    1.1980    0.0187 H         1 <0>         0.1124
     16 H3         -2.1803    3.6589    0.0427 H         1 <0>         0.1138
     17 H4          2.0829    3.7326    0.0019 H         1 <0>         0.1134
     18 H5          0.0021   -0.0041    0.0020 H         1 <0>         0.1080
     19 H6          2.4178    0.0082   -0.0206 H         1 <0>         0.4069
     20 H7          3.3448    1.6728   -0.0202 H         1 <0>         0.4097
     21 H8         -1.8509    5.5325    1.2552 H         1 <0>         0.0728
     22 H9         -0.3162    5.4063    2.1800 H         1 <0>         0.0661
     23 H10        -1.1617    8.1876    2.2183 H         1 <0>        -0.0600
@<TRIPOS>BOND
     1    1    6 ar
     2    1    2 ar
     3    1   15 1
     4    2    3 ar
     5    2   16 1
     6    3    4 ar
     7    3    8 1
     8    4    5 ar
     9    4   17 1
    10    5    6 ar
    11    5    7 1
    12    6   18 1
    13    7   19 1
    14    7   20 1
    15    8    9 1
    16    8   10 1
    17    8   12 1
    18   10   11 1
    19   10   21 1
    20   10   22 1
    21   11   23 1
    22   12   13 2
    23   12   14 1
