@<TRIPOS>MOLECULE
ZINC03786250
   67    71     0     0     0
SMALL
USER_CHARGES

@<TRIPOS>ATOM
      1 C1         -2.6654   -1.0370   -0.6440 C.3       1 <0>        -0.1158
      2 C2         -1.6076   -0.7051    0.3767 C.ar      1 <0>        -0.0658
      3 C3         -0.7797    0.3858    0.1839 C.ar      1 <0>        -0.1362
      4 C4          0.1920    0.6936    1.1180 C.ar      1 <0>        -0.0955
      5 C5          0.3387   -0.0882    2.2474 C.ar      1 <0>        -0.1523
      6 C6         -0.4909   -1.1841    2.4439 C.ar      1 <0>         0.1664
      7 C7         -1.4698   -1.4873    1.5064 C.ar      1 <0>        -0.1190
      8 N1         -0.3448   -1.9781    3.5870 N.am      1 <0>        -0.6818
      9 C8         -0.5705   -3.3051    3.5191 C.2       1 <0>         0.7136
     10 O1         -0.8161   -3.8260    2.4483 O.2       1 <0>        -0.5564
     11 N2         -0.5241   -4.0547    4.6382 N.am      1 <0>        -0.7443
     12 C9         -0.7694   -5.4971    4.5644 C.3       1 <0>         0.3108
     13 H1         -0.7064   -5.8255    3.5270 H         1 <0>         0.1655
     14 C10         0.2582   -6.2257    5.3868 C.2       1 <0>         0.5085
     15 O2          0.9436   -7.0752    4.8582 O.2       1 <0>        -0.4958
     16 N3          0.4350   -5.9618    6.6795 N.am      1 <0>        -0.5353
     17 C11        -0.2383   -4.9823    7.3927 C.ar      1 <0>         0.1679
     18 C12         0.5009   -4.2377    8.3144 C.ar      1 <0>        -0.1396
     19 C13        -0.1000   -3.2489    9.0616 C.ar      1 <0>        -0.0725
     20 C14        -1.4501   -2.9824    8.9041 C.ar      1 <0>        -0.1271
     21 C15        -2.1939   -3.7050    8.0005 C.ar      1 <0>        -0.0612
     22 C16        -1.5963   -4.7157    7.2317 C.ar      1 <0>        -0.1337
     23 C17        -2.4506   -5.4454    6.2819 C.2       1 <0>         0.2881
     24 N4         -2.1001   -5.7952    5.0926 N.2       1 <0>        -0.5007
     25 C18        -3.8180   -5.8037    6.7254 C.ar      1 <0>        -0.0735
     26 C19        -4.8226   -6.0291    5.7846 C.ar      1 <0>        -0.0650
     27 C20        -6.0941   -6.3630    6.2039 C.ar      1 <0>        -0.1265
     28 C21        -6.3733   -6.4743    7.5543 C.ar      1 <0>        -0.0969
     29 C22        -5.3811   -6.2515    8.4923 C.ar      1 <0>        -0.1262
     30 C23        -4.1043   -5.9226    8.0852 C.ar      1 <0>        -0.0873
     31 C24         1.4178   -6.7703    7.4053 C.3       1 <0>         0.0527
     32 C25         2.7700   -6.1099    7.3240 C.2       1 <0>         0.3822
     33 O3          2.8999   -5.0669    6.7194 O.2       1 <0>        -0.4297
     34 C26         3.9327   -6.7308    7.9783 C.ar      1 <0>        -0.1755
     35 C27         3.7645   -7.8593    8.7875 C.ar      1 <0>        -0.0700
     36 C28         4.8588   -8.4355    9.3966 C.ar      1 <0>        -0.1373
     37 C29         6.1215   -7.9002    9.2092 C.ar      1 <0>        -0.0781
     38 C30         6.2962   -6.7837    8.4105 C.ar      1 <0>        -0.1348
     39 C31         5.2123   -6.1992    7.7897 C.ar      1 <0>        -0.0180
     40 C32         5.4055   -4.9872    6.9152 C.3       1 <0>        -0.1240
     41 H2         -3.5892   -0.5161   -0.3925 H         1 <0>         0.0714
     42 H3         -2.3285   -0.7226   -1.6318 H         1 <0>         0.0682
     43 H4         -2.8437   -2.1123   -0.6461 H         1 <0>         0.0685
     44 H5         -0.8921    0.9983   -0.6984 H         1 <0>         0.1234
     45 H6          0.8373    1.5459    0.9644 H         1 <0>         0.1269
     46 H7          1.0982    0.1525    2.9766 H         1 <0>         0.1238
     47 H8         -2.1198   -2.3362    1.6588 H         1 <0>         0.1344
     48 H9         -0.0812   -1.5734    4.4282 H         1 <0>         0.4067
     49 H10        -0.3282   -3.6391    5.4925 H         1 <0>         0.3990
     50 H11         1.5540   -4.4396    8.4429 H         1 <0>         0.1322
     51 H12         0.4826   -2.6802    9.7712 H         1 <0>         0.1365
     52 H13        -1.9192   -2.2069    9.4915 H         1 <0>         0.1375
     53 H14        -3.2462   -3.4931    7.8819 H         1 <0>         0.1394
     54 H15        -4.6059   -5.9422    4.7302 H         1 <0>         0.1348
     55 H16        -6.8730   -6.5375    5.4764 H         1 <0>         0.1285
     56 H17        -7.3700   -6.7359    7.8776 H         1 <0>         0.1262
     57 H18        -5.6052   -6.3392    9.5451 H         1 <0>         0.1281
     58 H19        -3.3294   -5.7533    8.8182 H         1 <0>         0.1275
     59 H20         1.1176   -6.8560    8.4497 H         1 <0>         0.1234
     60 H21         1.4713   -7.7636    6.9599 H         1 <0>         0.1317
     61 H22         2.7799   -8.2778    8.9349 H         1 <0>         0.1305
     62 H23         4.7305   -9.3066   10.0220 H         1 <0>         0.1315
     63 H24         6.9749   -8.3562    9.6891 H         1 <0>         0.1300
     64 H25         7.2844   -6.3715    8.2697 H         1 <0>         0.1307
     65 H26         5.1914   -4.0864    7.4904 H         1 <0>         0.0775
     66 H27         6.4356   -4.9555    6.5605 H         1 <0>         0.0630
     67 H28         4.7291   -5.0430    6.0623 H         1 <0>         0.0888
@<TRIPOS>BOND
     1    1    2 1
     2    1   41 1
     3    1   42 1
     4    1   43 1
     5    2    7 ar
     6    2    3 ar
     7    3    4 ar
     8    3   44 1
     9    4    5 ar
    10    4   45 1
    11    5    6 ar
    12    5   46 1
    13    6    7 ar
    14    6    8 1
    15    7   47 1
    16    8    9 am
    17    8   48 1
    18    9   10 2
    19    9   11 am
    20   11   12 1
    21   11   49 1
    22   12   13 1
    23   12   24 1
    24   12   14 1
    25   14   15 2
    26   14   16 am
    27   16   17 1
    28   16   31 1
    29   17   22 ar
    30   17   18 ar
    31   18   19 ar
    32   18   50 1
    33   19   20 ar
    34   19   51 1
    35   20   21 ar
    36   20   52 1
    37   21   22 ar
    38   21   53 1
    39   22   23 1
    40   23   24 2
    41   23   25 1
    42   25   30 ar
    43   25   26 ar
    44   26   27 ar
    45   26   54 1
    46   27   28 ar
    47   27   55 1
    48   28   29 ar
    49   28   56 1
    50   29   30 ar
    51   29   57 1
    52   30   58 1
    53   31   32 1
    54   31   59 1
    55   31   60 1
    56   32   33 2
    57   32   34 1
    58   34   39 ar
    59   34   35 ar
    60   35   36 ar
    61   35   61 1
    62   36   37 ar
    63   36   62 1
    64   37   38 ar
    65   37   63 1
    66   38   39 ar
    67   38   64 1
    68   39   40 1
    69   40   65 1
    70   40   66 1
    71   40   67 1
@<TRIPOS>MOLECULE
ZINC00538559
   46    49     0     0     0
SMALL
USER_CHARGES

@<TRIPOS>ATOM
      1 C1          0.0039    1.3877    0.0353 C.ar      1 <0>        -0.1106
      2 C2          1.1929    2.0925    0.0189 C.ar      1 <0>        -0.1152
      3 C3          2.3977    1.4151   -0.0044 C.ar      1 <0>        -0.0969
      4 C4          2.4133    0.0328   -0.0108 C.ar      1 <0>        -0.0789
      5 C5          1.2243   -0.6720    0.0065 C.ar      1 <0>        -0.1092
      6 C6          0.0195    0.0055    0.0283 C.ar      1 <0>        -0.1144
      7 C7          3.7267   -0.7057   -0.0371 C.3       1 <0>        -0.0821
      8 H1          4.5589   -0.0017   -0.0361 H         1 <0>         0.1349
      9 C8          3.8019   -1.6265   -1.2690 C.3       1 <0>         0.2157
     10 H2          2.8893   -1.5472   -1.8598 H         1 <0>         0.1146
     11 N1          3.9348   -2.9785   -0.7092 N.am      1 <0>        -0.4287
     12 N2          3.9408   -2.9029    0.6822 N.am      1 <0>        -0.5318
     13 C9          3.8282   -1.6459    1.1426 C.2       1 <0>         0.5444
     14 O1          3.8098   -1.3180    2.3101 O.2       1 <0>        -0.4899
     15 C10         4.0348   -4.1138   -1.4286 C.2       1 <0>         0.7309
     16 O2          4.0185   -4.0670   -2.6435 O.2       1 <0>        -0.5311
     17 N3          4.1528   -5.3008   -0.8014 N.am      1 <0>        -0.6829
     18 C11         4.1591   -6.4873   -1.5442 C.ar      1 <0>         0.1745
     19 C12         3.5666   -7.6330   -1.0299 C.ar      1 <0>        -0.1379
     20 C13         3.5743   -8.8023   -1.7648 C.ar      1 <0>        -0.0698
     21 C14         4.1717   -8.8328   -3.0124 C.ar      1 <0>        -0.1043
     22 C15         4.7628   -7.6927   -3.5272 C.ar      1 <0>        -0.0697
     23 C16         4.7529   -6.5192   -2.7990 C.ar      1 <0>        -0.1124
     24 Br1         4.1808  -10.4358   -4.0155 Br        1 <0>        -0.0473
     25 C17         5.0037   -1.2822   -2.1106 C.ar      1 <0>        -0.0990
     26 C18         6.2551   -1.7471   -1.7515 C.ar      1 <0>        -0.0994
     27 C19         7.3574   -1.4313   -2.5235 C.ar      1 <0>        -0.1175
     28 C20         7.2084   -0.6511   -3.6548 C.ar      1 <0>        -0.1098
     29 C21         5.9569   -0.1870   -4.0145 C.ar      1 <0>        -0.1155
     30 C22         4.8539   -0.5063   -3.2448 C.ar      1 <0>        -0.0925
     31 H3         -0.9373    1.9170    0.0580 H         1 <0>         0.1258
     32 H4          1.1807    3.1724    0.0239 H         1 <0>         0.1278
     33 H5          3.3267    1.9657   -0.0179 H         1 <0>         0.1275
     34 H6          1.2365   -1.7519    0.0011 H         1 <0>         0.1175
     35 H7         -0.9095   -0.5451    0.0414 H         1 <0>         0.1255
     36 H8          4.0195   -3.6783    1.2596 H         1 <0>         0.4250
     37 H9          4.2333   -5.3330    0.1647 H         1 <0>         0.4064
     38 H10         3.1004   -7.6099   -0.0559 H         1 <0>         0.1355
     39 H11         3.1139   -9.6938   -1.3652 H         1 <0>         0.1388
     40 H12         5.2284   -7.7192   -4.5013 H         1 <0>         0.1379
     41 H13         5.2102   -5.6283   -3.2033 H         1 <0>         0.1505
     42 H14         6.3715   -2.3566   -0.8676 H         1 <0>         0.1138
     43 H15         8.3352   -1.7938   -2.2425 H         1 <0>         0.1230
     44 H16         8.0698   -0.4038   -4.2576 H         1 <0>         0.1243
     45 H17         5.8405    0.4228   -4.8982 H         1 <0>         0.1266
     46 H18         3.8756   -0.1469   -3.5279 H         1 <0>         0.1257
@<TRIPOS>BOND
     1    1    6 ar
     2    1    2 ar
     3    1   31 1
     4    2    3 ar
     5    2   32 1
     6    3    4 ar
     7    3   33 1
     8    4    5 ar
     9    4    7 1
    10    5    6 ar
    11    5   34 1
    12    6   35 1
    13    7    8 1
    14    7   13 1
    15    7    9 1
    16    9   10 1
    17    9   11 1
    18    9   25 1
    19   11   12 1
    20   11   15 am
    21   12   13 am
    22   12   36 1
    23   13   14 2
    24   15   16 2
    25   15   17 am
    26   17   18 1
    27   17   37 1
    28   18   23 ar
    29   18   19 ar
    30   19   20 ar
    31   19   38 1
    32   20   21 ar
    33   20   39 1
    34   21   22 ar
    35   21   24 1
    36   22   23 ar
    37   22   40 1
    38   23   41 1
    39   25   30 ar
    40   25   26 ar
    41   26   27 ar
    42   26   42 1
    43   27   28 ar
    44   27   43 1
    45   28   29 ar
    46   28   44 1
    47   29   30 ar
    48   29   45 1
    49   30   46 1
@<TRIPOS>MOLECULE
ZINC03780994
   67    68     0     0     0
SMALL
USER_CHARGES
5-dipentylamino-4-(2-naphthylcarbonylamino)-5-oxo-pentanoic acid
@<TRIPOS>ATOM
      1 C1         -2.9532   12.2847   -0.5756 C.3       1 <0>        -0.1517
      2 C2         -3.0558   10.8013   -0.9360 C.3       1 <0>        -0.1261
      3 C3         -3.2864    9.9823    0.3355 C.3       1 <0>        -0.1139
      4 C4         -3.3889    8.4989   -0.0249 C.3       1 <0>        -0.1385
      5 C5         -3.6195    7.6799    1.2467 C.3       1 <0>         0.1186
      6 N1         -3.7177    6.2595    0.9016 N.am      1 <0>        -0.6063
      7 C6         -5.0309    5.6478    0.6834 C.3       1 <0>         0.0933
      8 C7         -5.5474    5.0653    2.0005 C.3       1 <0>        -0.1366
      9 C8         -6.9188    4.4264    1.7726 C.3       1 <0>        -0.1209
     10 C9         -7.4354    3.8440    3.0897 C.3       1 <0>        -0.1225
     11 C10        -8.8068    3.2051    2.8618 C.3       1 <0>        -0.1535
     12 C11        -2.5999    5.5155    0.7849 C.2       1 <0>         0.5218
     13 O1         -1.5168    6.0072    1.0214 O.2       1 <0>        -0.5404
     14 C12        -2.6960    4.0727    0.3605 C.3       1 <0>         0.1253
     15 H1         -3.5187    3.5922    0.8901 H         1 <0>         0.1109
     16 C13        -2.9483    4.0002   -1.1468 C.3       1 <0>        -0.1030
     17 C14        -3.1849    2.5447   -1.5548 C.3       1 <0>        -0.1439
     18 C15        -3.4334    2.4732   -3.0395 C.2       1 <0>         0.4581
     19 O2         -3.4223    3.4828   -3.7032 O.co2     1 <0>        -0.6464
     20 N2         -1.4422    3.3853    0.6794 N.am      1 <0>        -0.7076
     21 C16        -1.4353    2.0516    0.8731 C.2       1 <0>         0.5576
     22 O3         -2.4694    1.4189    0.7832 O.2       1 <0>        -0.5187
     23 C17        -0.1706    1.3582    1.1948 C.ar      1 <0>        -0.1276
     24 C18         1.0239    2.0946    1.2919 C.ar      1 <0>        -0.0867
     25 C19         2.1989    1.4798    1.5807 C.ar      1 <0>        -0.1137
     26 C20         2.2332    0.0885    1.7873 C.ar      1 <0>        -0.0347
     27 C21         3.4375   -0.5699    2.0870 C.ar      1 <0>        -0.1128
     28 C22         3.4399   -1.9174    2.2813 C.ar      1 <0>        -0.1089
     29 C23         2.2632   -2.6583    2.1878 C.ar      1 <0>        -0.1246
     30 C24         1.0776   -2.0557    1.8994 C.ar      1 <0>        -0.0916
     31 C25         1.0358   -0.6651    1.6922 C.ar      1 <0>        -0.0630
     32 C26        -0.1695   -0.0124    1.3928 C.ar      1 <0>        -0.0319
     33 H2         -2.7889   12.8682   -1.4815 H         1 <0>         0.0523
     34 H3         -3.8785   12.6075   -0.0984 H         1 <0>         0.0520
     35 H4         -2.1192   12.4353    0.1098 H         1 <0>         0.0524
     36 H5         -2.1305   10.4786   -1.4133 H         1 <0>         0.0623
     37 H6         -3.8898   10.6508   -1.6214 H         1 <0>         0.0617
     38 H7         -4.2116   10.3050    0.8128 H         1 <0>         0.0603
     39 H8         -2.4523   10.1328    1.0209 H         1 <0>         0.0619
     40 H9         -2.4636    8.1761   -0.5021 H         1 <0>         0.0695
     41 H10        -4.2230    8.3483   -0.7103 H         1 <0>         0.0656
     42 H11        -4.5448    8.0026    1.7240 H         1 <0>         0.0765
     43 H12        -2.7854    7.8304    1.9321 H         1 <0>         0.0799
     44 H13        -5.7282    6.4036    0.3221 H         1 <0>         0.0843
     45 H14        -4.9425    4.8518   -0.0561 H         1 <0>         0.0937
     46 H15        -4.8500    4.3095    2.3618 H         1 <0>         0.0655
     47 H16        -5.6357    5.8613    2.7399 H         1 <0>         0.0644
     48 H17        -7.6162    5.1822    1.4113 H         1 <0>         0.0638
     49 H18        -6.8305    3.6305    1.0331 H         1 <0>         0.0706
     50 H19        -6.7380    3.0882    3.4510 H         1 <0>         0.0616
     51 H20        -7.5237    4.6399    3.8291 H         1 <0>         0.0576
     52 H21        -9.5042    3.9609    2.5005 H         1 <0>         0.0524
     53 H22        -8.7185    2.4092    2.1223 H         1 <0>         0.0568
     54 H23        -9.1748    2.7901    3.8001 H         1 <0>         0.0510
     55 H24        -3.8265    4.5951   -1.3973 H         1 <0>         0.0766
     56 H25        -2.0811    4.3904   -1.6795 H         1 <0>         0.0698
     57 H26        -2.3067    1.9497   -1.3044 H         1 <0>         0.0670
     58 H27        -4.0521    2.1544   -1.0221 H         1 <0>         0.0688
     59 H28        -0.6170    3.8901    0.7512 H         1 <0>         0.4060
     60 H29         1.0057    3.1630    1.1347 H         1 <0>         0.1282
     61 H30         3.1078    2.0588    1.6518 H         1 <0>         0.1318
     62 H31         4.3577   -0.0095    2.1625 H         1 <0>         0.1275
     63 H32         4.3678   -2.4198    2.5111 H         1 <0>         0.1226
     64 H33         2.2928   -3.7262    2.3462 H         1 <0>         0.1238
     65 H34         0.1734   -2.6423    1.8297 H         1 <0>         0.1312
     66 H35        -1.0887   -0.5742    1.3171 H         1 <0>         0.1451
     67 O4         -3.6670    1.2880   -3.6246 O.co2     1 <0>        -0.7744
@<TRIPOS>BOND
     1    1    2 1
     2    1   33 1
     3    1   34 1
     4    1   35 1
     5    2    3 1
     6    2   36 1
     7    2   37 1
     8    3    4 1
     9    3   38 1
    10    3   39 1
    11    4    5 1
    12    4   40 1
    13    4   41 1
    14    5    6 1
    15    5   42 1
    16    5   43 1
    17    6    7 1
    18    6   12 am
    19    7    8 1
    20    7   44 1
    21    7   45 1
    22    8    9 1
    23    8   46 1
    24    8   47 1
    25    9   10 1
    26    9   48 1
    27    9   49 1
    28   10   11 1
    29   10   50 1
    30   10   51 1
    31   11   52 1
    32   11   53 1
    33   11   54 1
    34   12   13 2
    35   12   14 1
    36   14   15 1
    37   14   16 1
    38   14   20 1
    39   16   17 1
    40   16   55 1
    41   16   56 1
    42   17   18 1
    43   17   57 1
    44   17   58 1
    45   18   19 2
    46   18   67 1
    47   20   21 am
    48   20   59 1
    49   21   22 2
    50   21   23 1
    51   23   32 ar
    52   23   24 ar
    53   24   25 ar
    54   24   60 1
    55   25   26 ar
    56   25   61 1
    57   26   31 ar
    58   26   27 ar
    59   27   28 ar
    60   27   62 1
    61   28   29 ar
    62   28   63 1
    63   29   30 ar
    64   29   64 1
    65   30   31 ar
    66   30   65 1
    67   31   32 ar
    68   32   66 1
@<TRIPOS>MOLECULE
ZINC13454576
   78    83     0     0     0
SMALL
USER_CHARGES
2-adamantyl N-[(1R)-2-[[(1S)-1-benzyl-2-hydroxy-ethyl]amino]-1-(1H-indol-3-ylmethyl)-1-methyl-2-oxo-ethyl]carbamate
@<TRIPOS>ATOM
      1 C1         -2.7162    0.8331    3.6203 C.3       1 <0>        -0.1657
      2 C2         -1.2808    1.3627    3.6094 C.3       1 <0>         0.1913
      3 C3         -0.5408    0.8559    4.8489 C.3       1 <0>        -0.0483
      4 C4          0.8320    1.4752    4.9026 C.2       1 <0>        -0.1700
      5 C5          1.9713    0.9322    4.4453 C.2       1 <0>         0.0674
      6 N1          3.0168    1.7871    4.6655 N.pl3     1 <0>        -0.5970
      7 H1          3.9391    1.6144    4.4195 H         1 <0>         0.4134
      8 C6          2.5657    2.9264    5.2934 C.ar      1 <0>         0.0925
      9 C7          1.1773    2.7810    5.4696 C.ar      1 <0>        -0.0907
     10 C8          0.4435    3.7955    6.0868 C.ar      1 <0>        -0.0813
     11 C9          1.0785    4.9263    6.5175 C.ar      1 <0>        -0.1451
     12 C10         2.4479    5.0744    6.3466 C.ar      1 <0>        -0.0995
     13 C11         3.1913    4.0857    5.7397 C.ar      1 <0>        -0.1317
     14 C12        -0.5754    0.8767    2.3695 C.2       1 <0>         0.5303
     15 O1          0.1030   -0.1277    2.4121 O.2       1 <0>        -0.5238
     16 N2         -0.6984    1.5583    1.2133 N.am      1 <0>        -0.7115
     17 C13        -0.0127    1.0858    0.0080 C.3       1 <0>         0.1562
     18 H2          0.0021   -0.0041    0.0020 H         1 <0>         0.1039
     19 C14        -0.7527    1.5927   -1.2315 C.3       1 <0>        -0.0850
     20 C15        -2.1255    0.9734   -1.2852 C.ar      1 <0>        -0.0838
     21 C16        -2.3185   -0.2230   -1.9502 C.ar      1 <0>        -0.1163
     22 C17        -3.5769   -0.7935   -1.9953 C.ar      1 <0>        -0.1159
     23 C18        -4.6442   -0.1623   -1.3844 C.ar      1 <0>        -0.1219
     24 C19        -4.4522    1.0367   -0.7239 C.ar      1 <0>        -0.1160
     25 C20        -3.1929    1.6046   -0.6743 C.ar      1 <0>        -0.1135
     26 C21         1.4227    1.6154   -0.0028 C.3       1 <0>         0.0640
     27 O2          1.4040    3.0401   -0.1124 O.3       1 <0>        -0.5677
     28 N3         -1.3007    2.8275    3.6175 N.am      1 <0>        -0.6998
     29 C22        -1.8837    3.4880    4.6375 C.2       1 <0>         0.6620
     30 O3         -2.3928    2.8684    5.5504 O.2       1 <0>        -0.5671
     31 O4         -1.9019    4.8342    4.6449 O.3       1 <0>        -0.3565
     32 C23        -2.5469    5.4785    5.7750 C.3       1 <0>         0.1245
     33 C24        -4.0294    5.6917    5.4625 C.3       1 <0>        -0.1007
     34 C25        -4.7091    6.3706    6.6533 C.3       1 <0>        -0.1059
     35 C26        -4.0440    7.7229    6.9173 C.3       1 <0>        -0.0894
     36 C27        -4.1816    8.6095    5.6780 C.3       1 <0>        -0.1091
     37 C28        -3.5020    7.9306    4.4871 C.3       1 <0>        -0.0863
     38 C29        -4.1671    6.5783    4.2232 C.3       1 <0>        -0.1042
     39 C30        -2.0194    7.7174    4.7996 C.3       1 <0>        -0.1044
     40 C31        -1.8818    6.8308    6.0389 C.3       1 <0>        -0.0845
     41 C32        -2.5614    7.5098    7.2297 C.3       1 <0>        -0.1073
     42 H3         -2.7014   -0.2568    3.6143 H         1 <0>         0.0751
     43 H4         -3.2264    1.1846    4.5171 H         1 <0>         0.0961
     44 H5         -3.2434    1.1942    2.7372 H         1 <0>         0.0623
     45 H6         -1.0991    1.1318    5.7435 H         1 <0>         0.1014
     46 H7         -0.4483   -0.2290    4.7986 H         1 <0>         0.0901
     47 H8          2.0507   -0.0352    3.9719 H         1 <0>         0.1714
     48 H9         -0.6223    3.6870    6.2234 H         1 <0>         0.1274
     49 H10         0.5103    5.7111    6.9946 H         1 <0>         0.1180
     50 H11         2.9356    5.9738    6.6924 H         1 <0>         0.1221
     51 H12         4.2563    4.2106    5.6106 H         1 <0>         0.1161
     52 H13        -1.2410    2.3616    1.1793 H         1 <0>         0.4000
     53 H14        -0.8452    2.6775   -1.1811 H         1 <0>         0.0883
     54 H15        -0.1944    1.3168   -2.1261 H         1 <0>         0.0884
     55 H16        -1.4855   -0.7139   -2.4313 H         1 <0>         0.1208
     56 H17        -3.7269   -1.7301   -2.5117 H         1 <0>         0.1217
     57 H18        -5.6282   -0.6058   -1.4235 H         1 <0>         0.1210
     58 H19        -5.2862    1.5300   -0.2469 H         1 <0>         0.1211
     59 H20        -3.0430    2.5415   -0.1585 H         1 <0>         0.1161
     60 H21         1.9227    1.3287    0.9223 H         1 <0>         0.0520
     61 H22         1.9595    1.1927   -0.8521 H         1 <0>         0.0554
     62 H23         2.2819    3.4451   -0.1253 H         1 <0>         0.3804
     63 H24        -0.8942    3.3221    2.8887 H         1 <0>         0.4039
     64 H25        -2.4489    4.8469    6.6579 H         1 <0>         0.0859
     65 H26        -4.5033    4.7283    5.2745 H         1 <0>         0.0756
     66 H27        -5.7653    6.5225    6.4308 H         1 <0>         0.0689
     67 H28        -4.6110    5.7390    7.5363 H         1 <0>         0.0655
     68 H29        -4.5282    8.2066    7.7656 H         1 <0>         0.0737
     69 H30        -3.7077    9.5729    5.8660 H         1 <0>         0.0627
     70 H31        -5.2378    8.7614    5.4554 H         1 <0>         0.0620
     71 H32        -3.6000    8.5622    3.6042 H         1 <0>         0.0701
     72 H33        -5.2233    6.7301    4.0006 H         1 <0>         0.0617
     73 H34        -3.6829    6.0946    3.3749 H         1 <0>         0.0654
     74 H35        -1.5456    8.6809    4.9876 H         1 <0>         0.0630
     75 H36        -1.5352    7.2338    3.9512 H         1 <0>         0.0698
     76 H37        -0.8256    6.6790    6.2615 H         1 <0>         0.0828
     77 H38        -2.4634    6.8781    8.1126 H         1 <0>         0.0659
     78 H39        -2.0876    8.4732    7.4177 H         1 <0>         0.0728
@<TRIPOS>BOND
     1    1    2 1
     2    1   42 1
     3    1   43 1
     4    1   44 1
     5    2    3 1
     6    2   14 1
     7    2   28 1
     8    3    4 1
     9    3   45 1
    10    3   46 1
    11    4    9 1
    12    4    5 2
    13    5    6 1
    14    5   47 1
    15    6    7 1
    16    6    8 1
    17    8   13 ar
    18    8    9 ar
    19    9   10 ar
    20   10   11 ar
    21   10   48 1
    22   11   12 ar
    23   11   49 1
    24   12   13 ar
    25   12   50 1
    26   13   51 1
    27   14   15 2
    28   14   16 am
    29   16   17 1
    30   16   52 1
    31   17   18 1
    32   17   19 1
    33   17   26 1
    34   19   20 1
    35   19   53 1
    36   19   54 1
    37   20   25 ar
    38   20   21 ar
    39   21   22 ar
    40   21   55 1
    41   22   23 ar
    42   22   56 1
    43   23   24 ar
    44   23   57 1
    45   24   25 ar
    46   24   58 1
    47   25   59 1
    48   26   27 1
    49   26   60 1
    50   26   61 1
    51   27   62 1
    52   28   29 am
    53   28   63 1
    54   29   30 2
    55   29   31 1
    56   31   32 1
    57   32   40 1
    58   32   33 1
    59   32   64 1
    60   33   38 1
    61   33   34 1
    62   33   65 1
    63   34   35 1
    64   34   66 1
    65   34   67 1
    66   35   41 1
    67   35   36 1
    68   35   68 1
    69   36   37 1
    70   36   69 1
    71   36   70 1
    72   37   38 1
    73   37   39 1
    74   37   71 1
    75   38   72 1
    76   38   73 1
    77   39   40 1
    78   39   74 1
    79   39   75 1
    80   40   41 1
    81   40   76 1
    82   41   77 1
    83   41   78 1
@<TRIPOS>MOLECULE
ZINC13732888
   55    58     0     0     0
SMALL
USER_CHARGES
1-(3,5-dimethylphenyl)-3-[(3R)-1-methyl-2-oxo-5-phenyl-3H-1,4-benzodiazepin-3-yl]urea
@<TRIPOS>ATOM
      1 C1          5.7191    0.1347   -2.7964 C.3       1 <0>        -0.1142
      2 C2          4.5158   -0.2363   -1.9685 C.ar      1 <0>        -0.0618
      3 C3          4.4834   -1.4468   -1.3009 C.ar      1 <0>        -0.1382
      4 C4          3.3813   -1.7908   -0.5398 C.ar      1 <0>        -0.0620
      5 C5          2.3089   -0.9256   -0.4444 C.ar      1 <0>        -0.1279
      6 C6          2.3382    0.2906   -1.1140 C.ar      1 <0>         0.1727
      7 C7          3.4438    0.6304   -1.8824 C.ar      1 <0>        -0.1543
      8 N1          1.2533    1.1695   -1.0193 N.am      1 <0>        -0.6797
      9 C8          0.0034    0.6847   -0.8807 C.2       1 <0>         0.7164
     10 O1         -0.1930   -0.5140   -0.9331 O.2       1 <0>        -0.5692
     11 N2         -1.0295    1.5291   -0.6894 N.am      1 <0>        -0.7028
     12 C9         -2.3890    1.0025   -0.5448 C.3       1 <0>         0.3056
     13 H1         -2.3466   -0.0694   -0.3518 H         1 <0>         0.1291
     14 C10        -3.0779    1.6938    0.6000 C.2       1 <0>         0.5068
     15 O2         -2.4985    2.5820    1.1885 O.2       1 <0>        -0.5070
     16 N3         -4.3067    1.3556    0.9842 N.am      1 <0>        -0.5491
     17 C11        -5.0583    0.3273    0.4372 C.ar      1 <0>         0.1722
     18 C12        -5.8020   -0.4617    1.3174 C.ar      1 <0>        -0.1423
     19 C13        -6.5743   -1.5009    0.8476 C.ar      1 <0>        -0.0725
     20 C14        -6.6209   -1.7738   -0.5097 C.ar      1 <0>        -0.1295
     21 C15        -5.8950   -1.0074   -1.3914 C.ar      1 <0>        -0.0579
     22 C16        -5.1023    0.0541   -0.9283 C.ar      1 <0>        -0.1343
     23 C17        -4.3484    0.8284   -1.9266 C.2       1 <0>         0.2835
     24 N4         -3.1431    1.2495   -1.7731 N.2       1 <0>        -0.5091
     25 C18        -5.0270    1.1428   -3.2054 C.ar      1 <0>        -0.0685
     26 C19        -4.2758    1.3975   -4.3526 C.ar      1 <0>        -0.0676
     27 C20        -4.9138    1.6840   -5.5420 C.ar      1 <0>        -0.1268
     28 C21        -6.2955    1.7303   -5.5955 C.ar      1 <0>        -0.0988
     29 C22        -7.0459    1.4843   -4.4596 C.ar      1 <0>        -0.1253
     30 C23        -6.4196    1.1910   -3.2656 C.ar      1 <0>        -0.0876
     31 C24        -4.9123    2.1313    2.0695 C.3       1 <0>         0.0611
     32 C25         3.3504   -3.1108    0.1865 C.3       1 <0>        -0.1141
     33 H2          5.5798   -0.2179   -3.8183 H         1 <0>         0.0717
     34 H3          5.8383    1.2182   -2.7990 H         1 <0>         0.0665
     35 H4          6.6096   -0.3278   -2.3707 H         1 <0>         0.0681
     36 H5          5.3208   -2.1249   -1.3737 H         1 <0>         0.1227
     37 H6          1.4487   -1.1944    0.1507 H         1 <0>         0.1353
     38 H7          3.4677    1.5736   -2.4080 H         1 <0>         0.1244
     39 H8          1.4009    2.1276   -1.0534 H         1 <0>         0.4096
     40 H9         -0.8729    2.4854   -0.6476 H         1 <0>         0.4095
     41 H10        -5.7711   -0.2552    2.3770 H         1 <0>         0.1356
     42 H11        -7.1447   -2.1039    1.5386 H         1 <0>         0.1364
     43 H12        -7.2274   -2.5890   -0.8757 H         1 <0>         0.1363
     44 H13        -5.9351   -1.2244   -2.4486 H         1 <0>         0.1381
     45 H14        -3.1971    1.3663   -4.3110 H         1 <0>         0.1323
     46 H15        -4.3333    1.8774   -6.4320 H         1 <0>         0.1275
     47 H16        -6.7902    1.9598   -6.5277 H         1 <0>         0.1260
     48 H17        -8.1242    1.5222   -4.5074 H         1 <0>         0.1283
     49 H18        -7.0065    0.9994   -2.3795 H         1 <0>         0.1280
     50 H19        -4.2142    2.9004    2.3999 H         1 <0>         0.1016
     51 H20        -5.8287    2.6014    1.7126 H         1 <0>         0.0743
     52 H21        -5.1448    1.4690    2.9034 H         1 <0>         0.0750
     53 H22         2.9129   -3.8713   -0.4603 H         1 <0>         0.0723
     54 H23         4.3660   -3.4020    0.4543 H         1 <0>         0.0675
     55 H24         2.7498   -3.0138    1.0910 H         1 <0>         0.0661
@<TRIPOS>BOND
     1    1    2 1
     2    1   33 1
     3    1   34 1
     4    1   35 1
     5    2    7 ar
     6    2    3 ar
     7    3    4 ar
     8    3   36 1
     9    4    5 ar
    10    4   32 1
    11    5    6 ar
    12    5   37 1
    13    6    7 ar
    14    6    8 1
    15    7   38 1
    16    8    9 am
    17    8   39 1
    18    9   10 2
    19    9   11 am
    20   11   12 1
    21   11   40 1
    22   12   13 1
    23   12   24 1
    24   12   14 1
    25   14   15 2
    26   14   16 am
    27   16   17 1
    28   16   31 1
    29   17   22 ar
    30   17   18 ar
    31   18   19 ar
    32   18   41 1
    33   19   20 ar
    34   19   42 1
    35   20   21 ar
    36   20   43 1
    37   21   22 ar
    38   21   44 1
    39   22   23 1
    40   23   24 2
    41   23   25 1
    42   25   30 ar
    43   25   26 ar
    44   26   27 ar
    45   26   45 1
    46   27   28 ar
    47   27   46 1
    48   28   29 ar
    49   28   47 1
    50   29   30 ar
    51   29   48 1
    52   30   49 1
    53   31   50 1
    54   31   51 1
    55   31   52 1
    56   32   53 1
    57   32   54 1
    58   32   55 1
@<TRIPOS>MOLECULE
ZINC16740081
   55    58     0     0     0
SMALL
USER_CHARGES
1-(3,5-dimethylphenyl)-3-[(3S)-1-methyl-2-oxo-5-phenyl-3H-1,4-benzodiazepin-3-yl]urea
@<TRIPOS>ATOM
      1 C1          1.0252   10.3184   -7.0272 C.3       1 <0>        -0.1141
      2 C2          0.3025    9.2728   -6.2175 C.ar      1 <0>        -0.0641
      3 C3         -0.9760    8.8849   -6.5741 C.ar      1 <0>        -0.1347
      4 C4         -1.6424    7.9258   -5.8337 C.ar      1 <0>        -0.0633
      5 C5         -1.0326    7.3523   -4.7352 C.ar      1 <0>        -0.1231
      6 C6          0.2512    7.7398   -4.3745 C.ar      1 <0>         0.1658
      7 C7          0.9158    8.7070   -5.1170 C.ar      1 <0>        -0.1518
      8 N1          0.8716    7.1610   -3.2616 N.am      1 <0>        -0.6817
      9 C8          0.1423    6.8394   -2.1748 C.2       1 <0>         0.7129
     10 O1         -1.0658    6.9754   -2.1914 O.2       1 <0>        -0.5552
     11 N2          0.7522    6.3672   -1.0696 N.am      1 <0>        -0.7465
     12 C9         -0.0406    6.0176    0.1117 C.3       1 <0>         0.3089
     13 H1         -1.0384    6.4470    0.0219 H         1 <0>         0.1654
     14 C10         0.6291    6.5537    1.3476 C.2       1 <0>         0.5029
     15 O2          0.0104    7.2968    2.0796 O.2       1 <0>        -0.4980
     16 N3          1.8834    6.2338    1.6582 N.am      1 <0>        -0.5514
     17 C11         2.7198    5.4436    0.8851 C.ar      1 <0>         0.1687
     18 C12         4.0562    5.8350    0.7807 C.ar      1 <0>        -0.1446
     19 C13         4.9474    5.0982    0.0324 C.ar      1 <0>        -0.0722
     20 C14         4.5237    3.9559   -0.6267 C.ar      1 <0>        -0.1297
     21 C15         3.2108    3.5559   -0.5364 C.ar      1 <0>        -0.0610
     22 C16         2.2897    4.2962    0.2276 C.ar      1 <0>        -0.1372
     23 C17         0.9012    3.8120    0.2715 C.2       1 <0>         0.2894
     24 N4         -0.1414    4.5628    0.2210 N.2       1 <0>        -0.5026
     25 C18         0.6883    2.3505    0.3887 C.ar      1 <0>        -0.0741
     26 C19         1.6862    1.5386    0.9273 C.ar      1 <0>        -0.0875
     27 C20         1.4819    0.1782    1.0342 C.ar      1 <0>        -0.1263
     28 C21         0.2901   -0.3807    0.6084 C.ar      1 <0>        -0.0969
     29 C22        -0.7037    0.4195    0.0737 C.ar      1 <0>        -0.1266
     30 C23        -0.5110    1.7812   -0.0388 C.ar      1 <0>        -0.0652
     31 C24         2.4224    6.7584    2.9154 C.3       1 <0>         0.0585
     32 C25        -3.0354    7.5056   -6.2262 C.3       1 <0>        -0.1146
     33 H2          0.8084   11.3064   -6.6212 H         1 <0>         0.0716
     34 H3          2.0987   10.1347   -6.9825 H         1 <0>         0.0661
     35 H4          0.6913   10.2702   -8.0637 H         1 <0>         0.0684
     36 H5         -1.4548    9.3316   -7.4330 H         1 <0>         0.1232
     37 H6         -1.5536    6.6031   -4.1575 H         1 <0>         0.1394
     38 H7          1.9125    9.0137   -4.8363 H         1 <0>         0.1231
     39 H8          1.8266    6.9912   -3.2725 H         1 <0>         0.4063
     40 H9          1.7160    6.2587   -1.0564 H         1 <0>         0.3975
     41 H10         4.3944    6.7242    1.2920 H         1 <0>         0.1371
     42 H11         5.9783    5.4118   -0.0409 H         1 <0>         0.1373
     43 H12         5.2245    3.3792   -1.2120 H         1 <0>         0.1371
     44 H13         2.8857    2.6645   -1.0524 H         1 <0>         0.1388
     45 H14         2.6152    1.9743    1.2641 H         1 <0>         0.1274
     46 H15         2.2540   -0.4517    1.4508 H         1 <0>         0.1283
     47 H16         0.1348   -1.4460    0.6942 H         1 <0>         0.1265
     48 H17        -1.6321   -0.0225   -0.2566 H         1 <0>         0.1288
     49 H18        -1.2873    2.4048   -0.4570 H         1 <0>         0.1349
     50 H19         1.6612    7.3578    3.4149 H         1 <0>         0.1020
     51 H20         2.7128    5.9291    3.5604 H         1 <0>         0.0742
     52 H21         3.2940    7.3786    2.7064 H         1 <0>         0.0744
     53 H22        -3.7627    8.1400   -5.7195 H         1 <0>         0.0729
     54 H23        -3.1549    7.6060   -7.3050 H         1 <0>         0.0674
     55 H24        -3.1963    6.4667   -5.9380 H         1 <0>         0.0671
@<TRIPOS>BOND
     1    1    2 1
     2    1   33 1
     3    1   34 1
     4    1   35 1
     5    2    7 ar
     6    2    3 ar
     7    3    4 ar
     8    3   36 1
     9    4    5 ar
    10    4   32 1
    11    5    6 ar
    12    5   37 1
    13    6    7 ar
    14    6    8 1
    15    7   38 1
    16    8    9 am
    17    8   39 1
    18    9   10 2
    19    9   11 am
    20   11   12 1
    21   11   40 1
    22   12   13 1
    23   12   24 1
    24   12   14 1
    25   14   15 2
    26   14   16 am
    27   16   17 1
    28   16   31 1
    29   17   22 ar
    30   17   18 ar
    31   18   19 ar
    32   18   41 1
    33   19   20 ar
    34   19   42 1
    35   20   21 ar
    36   20   43 1
    37   21   22 ar
    38   21   44 1
    39   22   23 1
    40   23   24 2
    41   23   25 1
    42   25   30 ar
    43   25   26 ar
    44   26   27 ar
    45   26   45 1
    46   27   28 ar
    47   27   46 1
    48   28   29 ar
    49   28   47 1
    50   29   30 ar
    51   29   48 1
    52   30   49 1
    53   31   50 1
    54   31   51 1
    55   31   52 1
    56   32   53 1
    57   32   54 1
    58   32   55 1
@<TRIPOS>MOLECULE
ZINC13732828
   49    52     0     0     0
SMALL
USER_CHARGES
3-(4-bromophenyl)-1-[(3S)-1-methyl-2-oxo-5-phenyl-3H-1,4-benzodiazepin-3-yl]urea
@<TRIPOS>ATOM
      1 C1          2.4169    6.7546    2.9165 C.3       1 <0>         0.0583
      2 N1          1.8803    6.2303    1.6582 N.am      1 <0>        -0.5514
      3 C2          2.7189    5.4426    0.8851 C.ar      1 <0>         0.1684
      4 C3          4.0547    5.8368    0.7824 C.ar      1 <0>        -0.1446
      5 C4          4.9481    5.1025    0.0343 C.ar      1 <0>        -0.0719
      6 C5          4.5272    3.9601   -0.6265 C.ar      1 <0>        -0.1295
      7 C6          3.2150    3.5574   -0.5380 C.ar      1 <0>        -0.0609
      8 C7          2.2918    4.2951    0.2259 C.ar      1 <0>        -0.1380
      9 C8          0.9041    3.8082    0.2679 C.2       1 <0>         0.2906
     10 N2         -0.1399    4.5570    0.2171 N.2       1 <0>        -0.5031
     11 C9         -0.0418    6.0122    0.1096 C.3       1 <0>         0.3087
     12 H1         -1.0403    6.4397    0.0191 H         1 <0>         0.1660
     13 C10         0.6256    6.5481    1.3467 C.2       1 <0>         0.5026
     14 O1          0.0048    7.2892    2.0789 O.2       1 <0>        -0.4972
     15 N3          0.7515    6.3645   -1.0706 N.am      1 <0>        -0.7451
     16 C11         0.1418    6.8368   -2.1759 C.2       1 <0>         0.7137
     17 O2         -1.0665    6.9704   -2.1936 O.2       1 <0>        -0.5536
     18 N4          0.8716    7.1610   -3.2616 N.am      1 <0>        -0.6822
     19 C12         0.2510    7.7400   -4.3748 C.ar      1 <0>         0.1767
     20 C13        -1.0305    7.3482   -4.7387 C.ar      1 <0>        -0.1122
     21 C14        -1.6424    7.9245   -5.8346 C.ar      1 <0>        -0.0698
     22 C15        -0.9755    8.8838   -6.5759 C.ar      1 <0>        -0.1058
     23 C16         0.3035    9.2722   -6.2186 C.ar      1 <0>        -0.0704
     24 C17         0.9180    8.7029   -5.1205 C.ar      1 <0>        -0.1395
     25 Br1        -1.8135    9.6650   -8.0803 Br        1 <0>        -0.0490
     26 C18         0.6939    2.3462    0.3832 C.ar      1 <0>        -0.0750
     27 C19         1.6929    1.5356    0.9219 C.ar      1 <0>        -0.0873
     28 C20         1.4911    0.1747    1.0272 C.ar      1 <0>        -0.1262
     29 C21         0.3008   -0.3861    0.5996 C.ar      1 <0>        -0.0964
     30 C22        -0.6940    0.4129    0.0648 C.ar      1 <0>        -0.1266
     31 C23        -0.5039    1.7750   -0.0460 C.ar      1 <0>        -0.0650
     32 H2          1.6541    7.3520    3.4159 H         1 <0>         0.1022
     33 H3          2.7083    5.9251    3.5609 H         1 <0>         0.0744
     34 H4          3.2875    7.3768    2.7091 H         1 <0>         0.0747
     35 H5          4.3906    6.7260    1.2951 H         1 <0>         0.1373
     36 H6          5.9784    5.4182   -0.0376 H         1 <0>         0.1375
     37 H7          5.2298    3.3854   -1.2118 H         1 <0>         0.1373
     38 H8          2.8922    2.6660   -1.0553 H         1 <0>         0.1390
     39 H9          1.7155    6.2579   -1.0565 H         1 <0>         0.3983
     40 H10         1.8269    6.9931   -3.2717 H         1 <0>         0.4091
     41 H11        -1.5498    6.5963   -4.1631 H         1 <0>         0.1492
     42 H12        -2.6407    7.6232   -6.1157 H         1 <0>         0.1375
     43 H13         0.8219   10.0209   -6.7991 H         1 <0>         0.1380
     44 H14         1.9165    9.0062   -4.8423 H         1 <0>         0.1347
     45 H15         2.6207    1.9728    1.2601 H         1 <0>         0.1274
     46 H16         2.2640   -0.4541    1.4438 H         1 <0>         0.1284
     47 H17         0.1474   -1.4518    0.6840 H         1 <0>         0.1267
     48 H18        -1.6213   -0.0306   -0.2669 H         1 <0>         0.1289
     49 H19        -1.2809    2.3976   -0.4644 H         1 <0>         0.1350
@<TRIPOS>BOND
     1    1    2 1
     2    1   32 1
     3    1   33 1
     4    1   34 1
     5    2   13 am
     6    2    3 1
     7    3    8 ar
     8    3    4 ar
     9    4    5 ar
    10    4   35 1
    11    5    6 ar
    12    5   36 1
    13    6    7 ar
    14    6   37 1
    15    7    8 ar
    16    7   38 1
    17    8    9 1
    18    9   10 2
    19    9   26 1
    20   10   11 1
    21   11   12 1
    22   11   13 1
    23   11   15 1
    24   13   14 2
    25   15   16 am
    26   15   39 1
    27   16   17 2
    28   16   18 am
    29   18   19 1
    30   18   40 1
    31   19   24 ar
    32   19   20 ar
    33   20   21 ar
    34   20   41 1
    35   21   22 ar
    36   21   42 1
    37   22   23 ar
    38   22   25 1
    39   23   24 ar
    40   23   43 1
    41   24   44 1
    42   26   31 ar
    43   26   27 ar
    44   27   28 ar
    45   27   45 1
    46   28   29 ar
    47   28   46 1
    48   29   30 ar
    49   29   47 1
    50   30   31 ar
    51   30   48 1
    52   31   49 1
@<TRIPOS>MOLECULE
ZINC13732963
   55    59     0     0     0
SMALL
USER_CHARGES
1-[(3S)-1-methyl-2-oxo-5-phenyl-3H-1,4-benzodiazepin-3-yl]-3-(1-naphthyl)urea
@<TRIPOS>ATOM
      1 C1          2.4012    1.1795   -0.1688 C.3       1 <0>         0.0585
      2 N1          1.1527    1.9373   -0.0539 N.am      1 <0>        -0.5510
      3 C2          1.2478    3.3183    0.0177 C.ar      1 <0>         0.1680
      4 C3          2.2783    3.8508    0.7954 C.ar      1 <0>        -0.1448
      5 C4          2.4370    5.2138    0.9130 C.ar      1 <0>        -0.0721
      6 C5          1.5715    6.0735    0.2568 C.ar      1 <0>        -0.1296
      7 C6          0.5507    5.5671   -0.5136 C.ar      1 <0>        -0.0601
      8 C7          0.3750    4.1807   -0.6424 C.ar      1 <0>        -0.1380
      9 C8         -0.7406    3.7092   -1.4778 C.2       1 <0>         0.2910
     10 N2         -1.5039    2.7146   -1.1924 N.2       1 <0>        -0.5034
     11 C9         -1.3241    1.9284    0.0207 C.3       1 <0>         0.3095
     12 H1         -2.1133    1.1795    0.0877 H         1 <0>         0.1662
     13 C10         0.0156    1.2457   -0.0268 C.2       1 <0>         0.5025
     14 O1          0.0607    0.0339   -0.0458 O.2       1 <0>        -0.4972
     15 N3         -1.3832    2.8126    1.1873 N.am      1 <0>        -0.7461
     16 C11        -2.4784    2.8197    1.9727 C.2       1 <0>         0.7132
     17 O2         -3.4175    2.0922    1.7130 O.2       1 <0>        -0.5516
     18 N4         -2.5328    3.6331    3.0459 N.am      1 <0>        -0.6726
     19 C12        -3.6318    3.5820    3.9057 C.ar      1 <0>         0.1651
     20 C13        -4.8549    3.1445    3.4454 C.ar      1 <0>        -0.1333
     21 C14        -5.9553    3.0850    4.2953 C.ar      1 <0>        -0.0903
     22 C15        -5.8579    3.4656    5.5990 C.ar      1 <0>        -0.1269
     23 C16        -4.6300    3.9229    6.1065 C.ar      1 <0>        -0.0340
     24 C17        -3.5015    3.9832    5.2521 C.ar      1 <0>        -0.0651
     25 C18        -2.2757    4.4411    5.7603 C.ar      1 <0>        -0.1113
     26 C19        -2.1863    4.8199    7.0650 C.ar      1 <0>        -0.1135
     27 C20        -3.2957    4.7610    7.9063 C.ar      1 <0>        -0.1162
     28 C21        -4.4999    4.3228    7.4479 C.ar      1 <0>        -0.1019
     29 C22        -1.0038    4.4344   -2.7425 C.ar      1 <0>        -0.0746
     30 C23        -2.2769    4.4099   -3.3117 C.ar      1 <0>        -0.0651
     31 C24        -2.5172    5.0917   -4.4870 C.ar      1 <0>        -0.1265
     32 C25        -1.4957    5.7894   -5.1065 C.ar      1 <0>        -0.0966
     33 C26        -0.2296    5.8131   -4.5496 C.ar      1 <0>        -0.1262
     34 C27         0.0218    5.1396   -3.3718 C.ar      1 <0>        -0.0869
     35 H2          2.1766    0.1140   -0.2156 H         1 <0>         0.1022
     36 H3          2.9266    1.4802   -1.0753 H         1 <0>         0.0744
     37 H4          3.0295    1.3806    0.6989 H         1 <0>         0.0745
     38 H5          2.9574    3.1871    1.3099 H         1 <0>         0.1372
     39 H6          3.2379    5.6131    1.5177 H         1 <0>         0.1375
     40 H7          1.6980    7.1419    0.3504 H         1 <0>         0.1372
     41 H8         -0.1209    6.2419   -1.0235 H         1 <0>         0.1388
     42 H9         -0.6341    3.3929    1.3944 H         1 <0>         0.3977
     43 H10        -1.8085    4.2540    3.2210 H         1 <0>         0.4062
     44 H11        -4.9597    2.8408    2.4143 H         1 <0>         0.1575
     45 H12        -6.9030    2.7348    3.9135 H         1 <0>         0.1280
     46 H13        -6.7238    3.4157    6.2427 H         1 <0>         0.1284
     47 H14        -1.4076    4.4917    5.1199 H         1 <0>         0.1174
     48 H15        -1.2419    5.1712    7.4537 H         1 <0>         0.1235
     49 H16        -3.1984    5.0673    8.9373 H         1 <0>         0.1246
     50 H17        -5.3511    4.2821    8.1114 H         1 <0>         0.1300
     51 H18        -3.0738    3.8616   -2.8315 H         1 <0>         0.1348
     52 H19        -3.5036    5.0769   -4.9266 H         1 <0>         0.1289
     53 H20        -1.6875    6.3175   -6.0289 H         1 <0>         0.1266
     54 H21         0.5638    6.3595   -5.0378 H         1 <0>         0.1283
     55 H22         1.0108    5.1582   -2.9383 H         1 <0>         0.1271
@<TRIPOS>BOND
     1    1    2 1
     2    1   35 1
     3    1   36 1
     4    1   37 1
     5    2   13 am
     6    2    3 1
     7    3    8 ar
     8    3    4 ar
     9    4    5 ar
    10    4   38 1
    11    5    6 ar
    12    5   39 1
    13    6    7 ar
    14    6   40 1
    15    7    8 ar
    16    7   41 1
    17    8    9 1
    18    9   10 2
    19    9   29 1
    20   10   11 1
    21   11   12 1
    22   11   13 1
    23   11   15 1
    24   13   14 2
    25   15   16 am
    26   15   42 1
    27   16   17 2
    28   16   18 am
    29   18   19 1
    30   18   43 1
    31   19   24 ar
    32   19   20 ar
    33   20   21 ar
    34   20   44 1
    35   21   22 ar
    36   21   45 1
    37   22   23 ar
    38   22   46 1
    39   23   28 ar
    40   23   24 ar
    41   24   25 ar
    42   25   26 ar
    43   25   47 1
    44   26   27 ar
    45   26   48 1
    46   27   28 ar
    47   27   49 1
    48   28   50 1
    49   29   34 ar
    50   29   30 ar
    51   30   31 ar
    52   30   51 1
    53   31   32 ar
    54   31   52 1
    55   32   33 ar
    56   32   53 1
    57   33   34 ar
    58   33   54 1
    59   34   55 1
@<TRIPOS>MOLECULE
ZINC13732965
   55    59     0     0     0
SMALL
USER_CHARGES
1-[(3R)-1-methyl-2-oxo-5-phenyl-3H-1,4-benzodiazepin-3-yl]-3-(1-naphthyl)urea
@<TRIPOS>ATOM
      1 C1         -3.9459    0.5858   -1.8863 C.3       1 <0>         0.0611
      2 N1         -3.1988    1.3634   -0.8947 N.am      1 <0>        -0.5490
      3 C2         -3.8952    2.3266   -0.1814 C.ar      1 <0>         0.1723
      4 C3         -4.8272    3.0949   -0.8825 C.ar      1 <0>        -0.1422
      5 C4         -5.5590    4.0693   -0.2407 C.ar      1 <0>        -0.0722
      6 C5         -5.3759    4.2975    1.1132 C.ar      1 <0>        -0.1295
      7 C6         -4.4617    3.5513    1.8197 C.ar      1 <0>        -0.0580
      8 C7         -3.7081    2.5550    1.1802 C.ar      1 <0>        -0.1347
      9 C8         -2.7454    1.7986    1.9962 C.2       1 <0>         0.2844
     10 N2         -1.5667    1.4544    1.6127 N.2       1 <0>        -0.5096
     11 C9         -1.0597    1.7873    0.2821 C.3       1 <0>         0.3055
     12 H1         -1.1120    2.8652    0.1288 H         1 <0>         0.1299
     13 C10        -1.9042    1.0901   -0.7494 C.2       1 <0>         0.5065
     14 O1         -1.3920    0.2577   -1.4675 O.2       1 <0>        -0.5072
     15 N3          0.3305    1.3414    0.1609 N.am      1 <0>        -0.7017
     16 C11         1.3322    2.2426    0.1896 C.2       1 <0>         0.7173
     17 O2          1.0824    3.4253    0.3210 O.2       1 <0>        -0.5674
     18 N4          2.6108    1.8329    0.0726 N.am      1 <0>        -0.6730
     19 C12         3.6411    2.7725   -0.0004 C.ar      1 <0>         0.1673
     20 C13         3.5081    3.9992    0.6136 C.ar      1 <0>        -0.1290
     21 C14         4.5309    4.9409    0.5510 C.ar      1 <0>        -0.0921
     22 C15         5.6842    4.6822   -0.1251 C.ar      1 <0>        -0.1261
     23 C16         5.8574    3.4456   -0.7694 C.ar      1 <0>        -0.0348
     24 C17         4.8253    2.4769   -0.7082 C.ar      1 <0>        -0.0645
     25 C18         4.9997    1.2422   -1.3529 C.ar      1 <0>        -0.1098
     26 C19         6.1556    0.9912   -2.0272 C.ar      1 <0>        -0.1143
     27 C20         7.1715    1.9431   -2.0875 C.ar      1 <0>        -0.1153
     28 C21         7.0374    3.1506   -1.4742 C.ar      1 <0>        -0.1036
     29 C22        -3.1646    1.4046    3.3614 C.ar      1 <0>        -0.0688
     30 C23        -2.2062    1.1538    4.3431 C.ar      1 <0>        -0.0674
     31 C24        -2.6031    0.7932    5.6145 C.ar      1 <0>        -0.1268
     32 C25        -3.9482    0.6687    5.9130 C.ar      1 <0>        -0.0986
     33 C26        -4.9034    0.9101    4.9418 C.ar      1 <0>        -0.1254
     34 C27        -4.5191    1.2774    3.6685 C.ar      1 <0>        -0.0875
     35 H2         -3.2772   -0.1282   -2.3671 H         1 <0>         0.1015
     36 H3         -4.7558    0.0491   -1.3920 H         1 <0>         0.0744
     37 H4         -4.3608    1.2578   -2.6375 H         1 <0>         0.0751
     38 H5         -4.9759    2.9229   -1.9383 H         1 <0>         0.1357
     39 H6         -6.2766    4.6569   -0.7942 H         1 <0>         0.1364
     40 H7         -5.9511    5.0620    1.6144 H         1 <0>         0.1364
     41 H8         -4.3230    3.7332    2.8753 H         1 <0>         0.1383
     42 H9          0.5298    0.3979    0.0561 H         1 <0>         0.4096
     43 H10         2.8154    0.8853    0.0390 H         1 <0>         0.4093
     44 H11         2.6015    4.2308    1.1529 H         1 <0>         0.1516
     45 H12         4.4062    5.8940    1.0433 H         1 <0>         0.1272
     46 H13         6.4654    5.4269   -0.1658 H         1 <0>         0.1281
     47 H14         4.2210    0.4949   -1.3138 H         1 <0>         0.1201
     48 H15         6.2871    0.0404   -2.5223 H         1 <0>         0.1239
     49 H16         8.0789    1.7191   -2.6287 H         1 <0>         0.1243
     50 H17         7.8334    3.8785   -1.5287 H         1 <0>         0.1296
     51 H18        -1.1557    1.2460    4.1099 H         1 <0>         0.1325
     52 H19        -1.8620    0.6034    6.3768 H         1 <0>         0.1276
     53 H20        -4.2538    0.3815    6.9083 H         1 <0>         0.1260
     54 H21        -5.9520    0.8113    5.1808 H         1 <0>         0.1283
     55 H22        -5.2657    1.4663    2.9113 H         1 <0>         0.1281
@<TRIPOS>BOND
     1    1    2 1
     2    1   35 1
     3    1   36 1
     4    1   37 1
     5    2   13 am
     6    2    3 1
     7    3    8 ar
     8    3    4 ar
     9    4    5 ar
    10    4   38 1
    11    5    6 ar
    12    5   39 1
    13    6    7 ar
    14    6   40 1
    15    7    8 ar
    16    7   41 1
    17    8    9 1
    18    9   10 2
    19    9   29 1
    20   10   11 1
    21   11   12 1
    22   11   13 1
    23   11   15 1
    24   13   14 2
    25   15   16 am
    26   15   42 1
    27   16   17 2
    28   16   18 am
    29   18   19 1
    30   18   43 1
    31   19   24 ar
    32   19   20 ar
    33   20   21 ar
    34   20   44 1
    35   21   22 ar
    36   21   45 1
    37   22   23 ar
    38   22   46 1
    39   23   28 ar
    40   23   24 ar
    41   24   25 ar
    42   25   26 ar
    43   25   47 1
    44   26   27 ar
    45   26   48 1
    46   27   28 ar
    47   27   49 1
    48   28   50 1
    49   29   34 ar
    50   29   30 ar
    51   30   31 ar
    52   30   51 1
    53   31   32 ar
    54   31   52 1
    55   32   33 ar
    56   32   53 1
    57   33   34 ar
    58   33   54 1
    59   34   55 1
@<TRIPOS>MOLECULE
ZINC13732792
   49    52     0     0     0
SMALL
USER_CHARGES
3-(2-chlorophenyl)-1-[(3S)-1-methyl-2-oxo-5-phenyl-3H-1,4-benzodiazepin-3-yl]urea
@<TRIPOS>ATOM
      1 C1         -2.0245    9.0598   -2.6742 C.3       1 <0>         0.0648
      2 N1         -2.2392    8.0208   -1.6639 N.am      1 <0>        -0.5493
      3 C2         -3.5124    7.9037   -1.1283 C.ar      1 <0>         0.1730
      4 C3         -4.5916    8.0419   -2.0037 C.ar      1 <0>        -0.1449
      5 C4         -5.8861    7.9442   -1.5436 C.ar      1 <0>        -0.0715
      6 C5         -6.1305    7.7065   -0.2010 C.ar      1 <0>        -0.1301
      7 C6         -5.0800    7.5663    0.6757 C.ar      1 <0>        -0.0571
      8 C7         -3.7553    7.6625    0.2223 C.ar      1 <0>        -0.1352
      9 C8         -2.6813    7.5002    1.2146 C.2       1 <0>         0.2844
     10 N2         -1.5866    6.8554    1.0149 N.2       1 <0>        -0.5094
     11 C9         -1.2939    6.2083   -0.2633 C.3       1 <0>         0.3054
     12 H1         -2.0928    5.5089   -0.5098 H         1 <0>         0.1297
     13 C10        -1.1973    7.2606   -1.3340 C.2       1 <0>         0.5057
     14 O1         -0.1420    7.4228   -1.9092 O.2       1 <0>        -0.5047
     15 N3         -0.0224    5.4869   -0.1682 N.am      1 <0>        -0.7007
     16 C11        -0.0158    4.1424   -0.0748 C.2       1 <0>         0.7203
     17 O2         -1.0651    3.5281   -0.0695 O.2       1 <0>        -0.5698
     18 N4          1.1540    3.4787    0.0127 N.am      1 <0>        -0.6780
     19 C12         1.1661    2.0787    0.0153 C.ar      1 <0>         0.1743
     20 C13         0.1364    1.3752    0.6258 C.ar      1 <0>        -0.1091
     21 C14         0.1513   -0.0059    0.6272 C.ar      1 <0>        -0.0953
     22 C15         1.1901   -0.6888    0.0214 C.ar      1 <0>        -0.1226
     23 C16         2.2174    0.0080   -0.5876 C.ar      1 <0>        -0.0917
     24 C17         2.2089    1.3902   -0.5922 C.ar      1 <0>        -0.0655
     25 Cl1         3.4989    2.2648   -1.3570 Cl        1 <0>        -0.0647
     26 C18        -2.8756    8.1258    2.5434 C.ar      1 <0>        -0.0686
     27 C19        -3.7190    9.2279    2.6818 C.ar      1 <0>        -0.0874
     28 C20        -3.8990    9.8038    3.9227 C.ar      1 <0>        -0.1252
     29 C21        -3.2377    9.2959    5.0266 C.ar      1 <0>        -0.0988
     30 C22        -2.3960    8.2058    4.8948 C.ar      1 <0>        -0.1267
     31 C23        -2.2114    7.6185    3.6600 C.ar      1 <0>        -0.0676
     32 H2         -1.7213    9.9853   -2.1847 H         1 <0>         0.0701
     33 H3         -1.2428    8.7403   -3.3634 H         1 <0>         0.0919
     34 H4         -2.9495    9.2267   -3.2260 H         1 <0>         0.0856
     35 H5         -4.4094    8.2271   -3.0520 H         1 <0>         0.1366
     36 H6         -6.7121    8.0526   -2.2309 H         1 <0>         0.1365
     37 H7         -7.1464    7.6317    0.1577 H         1 <0>         0.1364
     38 H8         -5.2761    7.3810    1.7215 H         1 <0>         0.1383
     39 H9          0.8147    5.9769   -0.1725 H         1 <0>         0.4105
     40 H10         1.9875    3.9710    0.0738 H         1 <0>         0.4118
     41 H11        -0.6777    1.9074    1.0952 H         1 <0>         0.1507
     42 H12        -0.6497   -0.5533    1.1016 H         1 <0>         0.1336
     43 H13         1.1989   -1.7687    0.0238 H         1 <0>         0.1343
     44 H14         3.0273   -0.5282   -1.0598 H         1 <0>         0.1380
     45 H15        -4.2326    9.6279    1.8200 H         1 <0>         0.1279
     46 H16        -4.5545   10.6552    4.0317 H         1 <0>         0.1283
     47 H17        -3.3788    9.7524    5.9952 H         1 <0>         0.1260
     48 H18        -1.8822    7.8139    5.7602 H         1 <0>         0.1275
     49 H19        -1.5535    6.7681    3.5582 H         1 <0>         0.1323
@<TRIPOS>BOND
     1    1    2 1
     2    1   32 1
     3    1   33 1
     4    1   34 1
     5    2   13 am
     6    2    3 1
     7    3    8 ar
     8    3    4 ar
     9    4    5 ar
    10    4   35 1
    11    5    6 ar
    12    5   36 1
    13    6    7 ar
    14    6   37 1
    15    7    8 ar
    16    7   38 1
    17    8    9 1
    18    9   10 2
    19    9   26 1
    20   10   11 1
    21   11   12 1
    22   11   13 1
    23   11   15 1
    24   13   14 2
    25   15   16 am
    26   15   39 1
    27   16   17 2
    28   16   18 am
    29   18   19 1
    30   18   40 1
    31   19   24 ar
    32   19   20 ar
    33   20   21 ar
    34   20   41 1
    35   21   22 ar
    36   21   42 1
    37   22   23 ar
    38   22   43 1
    39   23   24 ar
    40   23   44 1
    41   24   25 1
    42   26   31 ar
    43   26   27 ar
    44   27   28 ar
    45   27   45 1
    46   28   29 ar
    47   28   46 1
    48   29   30 ar
    49   29   47 1
    50   30   31 ar
    51   30   48 1
    52   31   49 1
@<TRIPOS>MOLECULE
ZINC13732795
   49    52     0     0     0
SMALL
USER_CHARGES
3-(2-chlorophenyl)-1-[(3R)-1-methyl-2-oxo-5-phenyl-3H-1,4-benzodiazepin-3-yl]urea
@<TRIPOS>ATOM
      1 C1          2.0099    6.3586    2.9665 C.3       1 <0>         0.0610
      2 N1          1.6441    5.8816    1.6305 N.am      1 <0>        -0.5494
      3 C2          2.6382    5.2845    0.8710 C.ar      1 <0>         0.1731
      4 C3          3.9097    5.8605    0.9118 C.ar      1 <0>        -0.1422
      5 C4          4.9486    5.3212    0.1859 C.ar      1 <0>        -0.0721
      6 C5          4.7402    4.1963   -0.5952 C.ar      1 <0>        -0.1296
      7 C6          3.4942    3.6163   -0.6486 C.ar      1 <0>        -0.0581
      8 C7          2.4242    4.1536    0.0907 C.ar      1 <0>        -0.1354
      9 C8          1.1188    3.4844   -0.0219 C.2       1 <0>         0.2847
     10 N2         -0.0131    4.0892   -0.1012 N.2       1 <0>        -0.5093
     11 C9         -0.1117    5.5482   -0.0859 C.3       1 <0>         0.3057
     12 H1          0.4996    5.9638   -0.8870 H         1 <0>         0.1298
     13 C10         0.3832    6.0560    1.2408 C.2       1 <0>         0.5063
     14 O1         -0.3864    6.6398    1.9742 O.2       1 <0>        -0.5065
     15 N3         -1.5086    5.9475   -0.2741 N.am      1 <0>        -0.7009
     16 C11        -1.9137    6.4441   -1.4598 C.2       1 <0>         0.7197
     17 O2         -1.1198    6.5606   -2.3733 O.2       1 <0>        -0.5685
     18 N4         -3.1988    6.8115   -1.6328 N.am      1 <0>        -0.6787
     19 C12        -3.6481    7.2125   -2.8967 C.ar      1 <0>         0.1783
     20 C13        -3.1189    6.6297   -4.0404 C.ar      1 <0>        -0.1090
     21 C14        -3.5645    7.0271   -5.2860 C.ar      1 <0>        -0.0931
     22 C15        -4.5368    8.0044   -5.3953 C.ar      1 <0>        -0.1236
     23 C16        -5.0666    8.5869   -4.2588 C.ar      1 <0>        -0.0900
     24 C17        -4.6287    8.1905   -3.0091 C.ar      1 <0>        -0.0666
     25 Cl1        -5.2989    8.9174   -1.5822 Cl        1 <0>        -0.0645
     26 C18         1.1071    2.0031   -0.0393 C.ar      1 <0>        -0.0686
     27 C19         2.1551    1.2878    0.5398 C.ar      1 <0>        -0.0874
     28 C20         2.1383   -0.0918    0.5208 C.ar      1 <0>        -0.1253
     29 C21         1.0849   -0.7655   -0.0711 C.ar      1 <0>        -0.0987
     30 C22         0.0423   -0.0615   -0.6468 C.ar      1 <0>        -0.1268
     31 C23         0.0480    1.3182   -0.6345 C.ar      1 <0>        -0.0675
     32 H2          1.1371    6.8023    3.4455 H         1 <0>         0.1016
     33 H3          2.3670    5.5213    3.5661 H         1 <0>         0.0744
     34 H4          2.7978    7.1071    2.8820 H         1 <0>         0.0751
     35 H5          4.0802    6.7373    1.5187 H         1 <0>         0.1357
     36 H6          5.9272    5.7763    0.2254 H         1 <0>         0.1365
     37 H7          5.5566    3.7746   -1.1627 H         1 <0>         0.1364
     38 H8          3.3373    2.7394   -1.2593 H         1 <0>         0.1383
     39 H9         -2.1420    5.8546    0.4547 H         1 <0>         0.4106
     40 H10        -3.8125    6.7980   -0.8817 H         1 <0>         0.4118
     41 H11        -2.3599    5.8661   -3.9563 H         1 <0>         0.1441
     42 H12        -3.1533    6.5736   -6.1757 H         1 <0>         0.1337
     43 H13        -4.8832    8.3131   -6.3705 H         1 <0>         0.1346
     44 H14        -5.8261    9.3497   -4.3475 H         1 <0>         0.1382
     45 H15         2.9758    1.8126    1.0061 H         1 <0>         0.1280
     46 H16         2.9494   -0.6468    0.9686 H         1 <0>         0.1283
     47 H17         1.0762   -1.8454   -0.0835 H         1 <0>         0.1260
     48 H18        -0.7775   -0.5930   -1.1071 H         1 <0>         0.1276
     49 H19        -0.7661    1.8667   -1.0849 H         1 <0>         0.1323
@<TRIPOS>BOND
     1    1    2 1
     2    1   32 1
     3    1   33 1
     4    1   34 1
     5    2   13 am
     6    2    3 1
     7    3    8 ar
     8    3    4 ar
     9    4    5 ar
    10    4   35 1
    11    5    6 ar
    12    5   36 1
    13    6    7 ar
    14    6   37 1
    15    7    8 ar
    16    7   38 1
    17    8    9 1
    18    9   10 2
    19    9   26 1
    20   10   11 1
    21   11   12 1
    22   11   13 1
    23   11   15 1
    24   13   14 2
    25   15   16 am
    26   15   39 1
    27   16   17 2
    28   16   18 am
    29   18   19 1
    30   18   40 1
    31   19   24 ar
    32   19   20 ar
    33   20   21 ar
    34   20   41 1
    35   21   22 ar
    36   21   42 1
    37   22   23 ar
    38   22   43 1
    39   23   24 ar
    40   23   44 1
    41   24   25 1
    42   26   31 ar
    43   26   27 ar
    44   27   28 ar
    45   27   45 1
    46   28   29 ar
    47   28   46 1
    48   29   30 ar
    49   29   47 1
    50   30   31 ar
    51   30   48 1
    52   31   49 1
@<TRIPOS>MOLECULE
ZINC13732758
   55    58     0     0     0
SMALL
USER_CHARGES
3-cyclohexyl-1-[(3S)-1-methyl-2-oxo-5-phenyl-3H-1,4-benzodiazepin-3-yl]urea
@<TRIPOS>ATOM
      1 C1         -3.5175   -0.6848    1.9486 C.3       1 <0>         0.0586
      2 N1         -2.5476   -0.2079    0.9597 N.am      1 <0>        -0.5513
      3 C2         -2.0632   -1.1291    0.0441 C.ar      1 <0>         0.1689
      4 C3         -1.7695   -2.4098    0.5171 C.ar      1 <0>        -0.1448
      5 C4         -1.2868   -3.3792   -0.3339 C.ar      1 <0>        -0.0729
      6 C5         -1.0868   -3.0907   -1.6739 C.ar      1 <0>        -0.1300
      7 C6         -1.3696   -1.8345   -2.1574 C.ar      1 <0>        -0.0606
      8 C7         -1.8620   -0.8359   -1.3030 C.ar      1 <0>        -0.1346
      9 C8         -2.1386    0.4859   -1.8870 C.2       1 <0>         0.2865
     10 N2         -1.8738    1.6117   -1.3221 N.2       1 <0>        -0.5011
     11 C9         -1.2608    1.6817    0.0038 C.3       1 <0>         0.3082
     12 H1         -1.0695    2.7230    0.2630 H         1 <0>         0.1639
     13 C10        -2.2007    1.0763    1.0103 C.2       1 <0>         0.5031
     14 O1         -2.6546    1.7765    1.8904 O.2       1 <0>        -0.4997
     15 N3          0.0009    0.9371    0.0009 N.am      1 <0>        -0.7512
     16 C11         1.1744    1.5998   -0.0146 C.2       1 <0>         0.7120
     17 O2          1.1860    2.8156   -0.0211 O.2       1 <0>        -0.5732
     18 N4          2.3351    0.9148   -0.0229 N.am      1 <0>        -0.7379
     19 C12         3.6107    1.6351   -0.0397 C.3       1 <0>         0.1629
     20 C13         3.9782    1.9878   -1.4824 C.3       1 <0>        -0.1292
     21 C14         5.3104    2.7401   -1.4999 C.3       1 <0>        -0.1175
     22 C15         6.4035    1.8556   -0.8968 C.3       1 <0>        -0.1224
     23 C16         6.0360    1.5030    0.5459 C.3       1 <0>        -0.1160
     24 C17         4.7038    0.7507    0.5635 C.3       1 <0>        -0.1260
     25 C18        -2.7684    0.5248   -3.2274 C.ar      1 <0>        -0.0732
     26 C19        -2.6231    1.6512   -4.0368 C.ar      1 <0>        -0.0655
     27 C20        -3.2076    1.6794   -5.2864 C.ar      1 <0>        -0.1267
     28 C21        -3.9456    0.5975   -5.7325 C.ar      1 <0>        -0.0975
     29 C22        -4.0981   -0.5203   -4.9318 C.ar      1 <0>        -0.1264
     30 C23        -3.5139   -0.5625   -3.6825 C.ar      1 <0>        -0.0880
     31 H2         -3.8097    0.1403    2.5982 H         1 <0>         0.1018
     32 H3         -4.3978   -1.0731    1.4363 H         1 <0>         0.0738
     33 H4         -3.0668   -1.4764    2.5472 H         1 <0>         0.0741
     34 H5         -1.9226   -2.6425    1.5606 H         1 <0>         0.1366
     35 H6         -1.0636   -4.3659    0.0443 H         1 <0>         0.1368
     36 H7         -0.7082   -3.8525   -2.3392 H         1 <0>         0.1364
     37 H8         -1.2123   -1.6151   -3.2031 H         1 <0>         0.1381
     38 H9         -0.0083   -0.0328    0.0061 H         1 <0>         0.3957
     39 H10         2.3259   -0.0552   -0.0177 H         1 <0>         0.3946
     40 H11         3.5191    2.5498    0.5460 H         1 <0>         0.0902
     41 H12         4.0698    1.0730   -2.0680 H         1 <0>         0.0621
     42 H13         3.1995    2.6179   -1.9121 H         1 <0>         0.0681
     43 H14         5.2188    3.6548   -0.9143 H         1 <0>         0.0653
     44 H15         5.5722    2.9913   -2.5277 H         1 <0>         0.0655
     45 H16         7.3526    2.3916   -0.9093 H         1 <0>         0.0648
     46 H17         6.4951    0.9409   -1.4824 H         1 <0>         0.0624
     47 H18         5.9444    2.4177    1.1315 H         1 <0>         0.0663
     48 H19         6.8147    0.8729    0.9756 H         1 <0>         0.0681
     49 H20         4.4419    0.4994    1.5913 H         1 <0>         0.0685
     50 H21         4.7954   -0.1641   -0.0222 H         1 <0>         0.0677
     51 H22        -2.0507    2.4980   -3.6880 H         1 <0>         0.1349
     52 H23        -3.0926    2.5496   -5.9156 H         1 <0>         0.1285
     53 H24        -4.4047    0.6259   -6.7096 H         1 <0>         0.1262
     54 H25        -4.6759   -1.3616   -5.2852 H         1 <0>         0.1280
     55 H26        -3.6340   -1.4356   -3.0582 H         1 <0>         0.1272
@<TRIPOS>BOND
     1    1    2 1
     2    1   31 1
     3    1   32 1
     4    1   33 1
     5    2   13 am
     6    2    3 1
     7    3    8 ar
     8    3    4 ar
     9    4    5 ar
    10    4   34 1
    11    5    6 ar
    12    5   35 1
    13    6    7 ar
    14    6   36 1
    15    7    8 ar
    16    7   37 1
    17    8    9 1
    18    9   10 2
    19    9   25 1
    20   10   11 1
    21   11   12 1
    22   11   13 1
    23   11   15 1
    24   13   14 2
    25   15   16 am
    26   15   38 1
    27   16   17 2
    28   16   18 am
    29   18   19 1
    30   18   39 1
    31   19   24 1
    32   19   20 1
    33   19   40 1
    34   20   21 1
    35   20   41 1
    36   20   42 1
    37   21   22 1
    38   21   43 1
    39   21   44 1
    40   22   23 1
    41   22   45 1
    42   22   46 1
    43   23   24 1
    44   23   47 1
    45   23   48 1
    46   24   49 1
    47   24   50 1
    48   25   30 ar
    49   25   26 ar
    50   26   27 ar
    51   26   51 1
    52   27   28 ar
    53   27   52 1
    54   28   29 ar
    55   28   53 1
    56   29   30 ar
    57   29   54 1
    58   30   55 1
@<TRIPOS>MOLECULE
ZINC13732805
   49    52     0     0     0
SMALL
USER_CHARGES
3-(3,4-dichlorophenyl)-1-[(3S)-1-methyl-2-oxo-5-phenyl-3H-1,4-benzodiazepin-3-yl]urea
@<TRIPOS>ATOM
      1 C1          0.2494   -0.1490    0.3028 C.3       1 <0>         0.0665
      2 N1          0.0838    1.3053    0.2397 N.am      1 <0>        -0.5508
      3 C2          1.2204    2.0689    0.0238 C.ar      1 <0>         0.1665
      4 C3          2.3871    1.6845    0.6881 C.ar      1 <0>        -0.1437
      5 C4          3.5562    2.3934    0.5214 C.ar      1 <0>        -0.0721
      6 C5          3.5853    3.4998   -0.3115 C.ar      1 <0>        -0.1294
      7 C6          2.4458    3.8934   -0.9736 C.ar      1 <0>        -0.0605
      8 C7          1.2466    3.1822   -0.8135 C.ar      1 <0>        -0.1377
      9 C8          0.0657    3.6618   -1.5485 C.2       1 <0>         0.2903
     10 N2         -1.1284    3.7060   -1.0736 N.2       1 <0>        -0.5032
     11 C9         -1.4356    3.2622    0.2855 C.3       1 <0>         0.3084
     12 H1         -2.4887    3.4442    0.4997 H         1 <0>         0.1663
     13 C10        -1.1471    1.7896    0.3890 C.2       1 <0>         0.5012
     14 O1         -2.0592    1.0240    0.6190 O.2       1 <0>        -0.4953
     15 N3         -0.6060    3.9996    1.2417 N.am      1 <0>        -0.7438
     16 C11        -1.1492    4.9813    1.9885 C.2       1 <0>         0.7133
     17 O2         -2.3278    5.2549    1.8687 O.2       1 <0>        -0.5516
     18 N4         -0.3859    5.6596    2.8682 N.am      1 <0>        -0.6803
     19 C12        -0.9689    6.6134    3.7110 C.ar      1 <0>         0.1791
     20 C13        -0.4996    6.7748    5.0081 C.ar      1 <0>        -0.1287
     21 C14        -1.0761    7.7161    5.8381 C.ar      1 <0>        -0.0775
     22 C15        -2.1204    8.4990    5.3786 C.ar      1 <0>        -0.0470
     23 C16        -2.5906    8.3404    4.0858 C.ar      1 <0>        -0.0111
     24 C17        -2.0133    7.4031    3.2497 C.ar      1 <0>        -0.1003
     25 Cl1        -3.9007    9.3246    3.5123 Cl        1 <0>        -0.0395
     26 Cl2        -2.8420    9.6821    6.4242 Cl        1 <0>        -0.0461
     27 C18         0.2675    4.1283   -2.9401 C.ar      1 <0>        -0.0753
     28 C19        -0.6392    5.0157   -3.5195 C.ar      1 <0>        -0.0649
     29 C20        -0.4438    5.4497   -4.8146 C.ar      1 <0>        -0.1265
     30 C21         0.6438    4.9991   -5.5414 C.ar      1 <0>        -0.0962
     31 C22         1.5439    4.1150   -4.9738 C.ar      1 <0>        -0.1263
     32 C23         1.3617    3.6773   -3.6781 C.ar      1 <0>        -0.0873
     33 H2          0.4421   -0.4484    1.3330 H         1 <0>         0.0707
     34 H3         -0.6598   -0.6339   -0.0525 H         1 <0>         0.0913
     35 H4          1.0891   -0.4466   -0.3252 H         1 <0>         0.0825
     36 H5          2.3724    0.8230    1.3393 H         1 <0>         0.1368
     37 H6          4.4518    2.0858    1.0407 H         1 <0>         0.1376
     38 H7          4.5032    4.0540   -0.4407 H         1 <0>         0.1372
     39 H8          2.4742    4.7565   -1.6222 H         1 <0>         0.1390
     40 H9          0.3343    3.7813    1.3373 H         1 <0>         0.3988
     41 H10         0.5673    5.4870    2.9173 H         1 <0>         0.4115
     42 H11         0.3154    6.1643    5.3677 H         1 <0>         0.1423
     43 H12        -0.7111    7.8417    6.8468 H         1 <0>         0.1490
     44 H13        -2.3768    7.2827    2.2398 H         1 <0>         0.1603
     45 H14        -1.4908    5.3650   -2.9544 H         1 <0>         0.1351
     46 H15        -1.1433    6.1395   -5.2632 H         1 <0>         0.1290
     47 H16         0.7905    5.3386   -6.5561 H         1 <0>         0.1267
     48 H17         2.3908    3.7665   -5.5463 H         1 <0>         0.1284
     49 H18         2.0646    2.9866   -3.2363 H         1 <0>         0.1274
@<TRIPOS>BOND
     1    1    2 1
     2    1   33 1
     3    1   34 1
     4    1   35 1
     5    2   13 am
     6    2    3 1
     7    3    8 ar
     8    3    4 ar
     9    4    5 ar
    10    4   36 1
    11    5    6 ar
    12    5   37 1
    13    6    7 ar
    14    6   38 1
    15    7    8 ar
    16    7   39 1
    17    8    9 1
    18    9   10 2
    19    9   27 1
    20   10   11 1
    21   11   12 1
    22   11   13 1
    23   11   15 1
    24   13   14 2
    25   15   16 am
    26   15   40 1
    27   16   17 2
    28   16   18 am
    29   18   19 1
    30   18   41 1
    31   19   24 ar
    32   19   20 ar
    33   20   21 ar
    34   20   42 1
    35   21   22 ar
    36   21   43 1
    37   22   23 ar
    38   22   26 1
    39   23   24 ar
    40   23   25 1
    41   24   44 1
    42   27   32 ar
    43   27   28 ar
    44   28   29 ar
    45   28   45 1
    46   29   30 ar
    47   29   46 1
    48   30   31 ar
    49   30   47 1
    50   31   32 ar
    51   31   48 1
    52   32   49 1
@<TRIPOS>MOLECULE
ZINC13732808
   49    52     0     0     0
SMALL
USER_CHARGES
3-(3,4-dichlorophenyl)-1-[(3R)-1-methyl-2-oxo-5-phenyl-3H-1,4-benzodiazepin-3-yl]urea
@<TRIPOS>ATOM
      1 C1          2.0028    6.4361    2.9815 C.3       1 <0>         0.0609
      2 N1          1.6472    5.9523    1.6452 N.am      1 <0>        -0.5491
      3 C2          2.6514    5.3676    0.8893 C.ar      1 <0>         0.1727
      4 C3          3.9149    5.9609    0.9327 C.ar      1 <0>        -0.1421
      5 C4          4.9630    5.4347    0.2105 C.ar      1 <0>        -0.0717
      6 C5          4.7721    4.3060   -0.5695 C.ar      1 <0>        -0.1293
      7 C6          3.5343    3.7090   -0.6255 C.ar      1 <0>        -0.0580
      8 C7          2.4550    4.2328    0.1100 C.ar      1 <0>        -0.1358
      9 C8          1.1592    3.5458   -0.0052 C.2       1 <0>         0.2862
     10 N2          0.0194    4.1350   -0.0884 N.2       1 <0>        -0.5103
     11 C9         -0.0991    5.5925   -0.0756 C.3       1 <0>         0.3052
     12 H1          0.5087    6.0152   -0.8756 H         1 <0>         0.1300
     13 C10         0.3851    6.1089    1.2518 C.2       1 <0>         0.5065
     14 O1         -0.3943    6.6832    1.9822 O.2       1 <0>        -0.5074
     15 N3         -1.5008    5.9726   -0.2682 N.am      1 <0>        -0.6999
     16 C11        -1.9093    6.4618   -1.4557 C.2       1 <0>         0.7186
     17 O2         -1.1145    6.5878   -2.3672 O.2       1 <0>        -0.5673
     18 N4         -3.1988    6.8115   -1.6328 N.am      1 <0>        -0.6796
     19 C12        -3.6481    7.2125   -2.8967 C.ar      1 <0>         0.1864
     20 C13        -3.1184    6.6292   -4.0404 C.ar      1 <0>        -0.1027
     21 C14        -3.5628    7.0261   -5.2863 C.ar      1 <0>        -0.0759
     22 C15        -4.5356    8.0041   -5.3963 C.ar      1 <0>        -0.0478
     23 C16        -5.0657    8.5875   -4.2578 C.ar      1 <0>        -0.0101
     24 C17        -4.6277    8.1897   -3.0084 C.ar      1 <0>        -0.1284
     25 Cl1        -6.2864    9.8137   -4.3993 Cl        1 <0>        -0.0417
     26 Cl2        -5.0928    8.4998   -6.9639 Cl        1 <0>        -0.0468
     27 C18         1.1677    2.0644   -0.0204 C.ar      1 <0>        -0.0693
     28 C19         2.2226    1.3642    0.5644 C.ar      1 <0>        -0.0872
     29 C20         2.2247   -0.0155    0.5474 C.ar      1 <0>        -0.1252
     30 C21         1.1832   -0.7043   -0.0482 C.ar      1 <0>        -0.0983
     31 C22         0.1337   -0.0154   -0.6296 C.ar      1 <0>        -0.1268
     32 C23         0.1206    1.3643   -0.6194 C.ar      1 <0>        -0.0673
     33 H2          1.1227    6.8686    3.4574 H         1 <0>         0.1017
     34 H3          2.3696    5.6046    3.5833 H         1 <0>         0.0746
     35 H4          2.7807    7.1951    2.8980 H         1 <0>         0.0753
     36 H5          4.0718    6.8409    1.5389 H         1 <0>         0.1359
     37 H6          5.9352    5.9032    0.2520 H         1 <0>         0.1366
     38 H7          5.5957    3.8946   -1.1342 H         1 <0>         0.1366
     39 H8          3.3910    2.8292   -1.2353 H         1 <0>         0.1385
     40 H9         -2.1349    5.8721    0.4590 H         1 <0>         0.4111
     41 H10        -3.8156    6.7852   -0.8847 H         1 <0>         0.4140
     42 H11        -2.3591    5.8659   -3.9555 H         1 <0>         0.1503
     43 H12        -3.1509    6.5725   -6.1756 H         1 <0>         0.1479
     44 H13        -5.0445    8.6413   -2.1203 H         1 <0>         0.1468
     45 H14         3.0340    1.9008    1.0336 H         1 <0>         0.1280
     46 H15         3.0412   -0.5588    0.9997 H         1 <0>         0.1284
     47 H16         1.1892   -1.7842   -0.0590 H         1 <0>         0.1261
     48 H17        -0.6767   -0.5586   -1.0928 H         1 <0>         0.1277
     49 H18        -0.6988    1.9011   -1.0742 H         1 <0>         0.1323
@<TRIPOS>BOND
     1    1    2 1
     2    1   33 1
     3    1   34 1
     4    1   35 1
     5    2   13 am
     6    2    3 1
     7    3    8 ar
     8    3    4 ar
     9    4    5 ar
    10    4   36 1
    11    5    6 ar
    12    5   37 1
    13    6    7 ar
    14    6   38 1
    15    7    8 ar
    16    7   39 1
    17    8    9 1
    18    9   10 2
    19    9   27 1
    20   10   11 1
    21   11   12 1
    22   11   13 1
    23   11   15 1
    24   13   14 2
    25   15   16 am
    26   15   40 1
    27   16   17 2
    28   16   18 am
    29   18   19 1
    30   18   41 1
    31   19   24 ar
    32   19   20 ar
    33   20   21 ar
    34   20   42 1
    35   21   22 ar
    36   21   43 1
    37   22   23 ar
    38   22   26 1
    39   23   24 ar
    40   23   25 1
    41   24   44 1
    42   27   32 ar
    43   27   28 ar
    44   28   29 ar
    45   28   45 1
    46   29   30 ar
    47   29   46 1
    48   30   31 ar
    49   30   47 1
    50   31   32 ar
    51   31   48 1
    52   32   49 1
@<TRIPOS>MOLECULE
ZINC13732753
   51    53     0     0     0
SMALL
USER_CHARGES
1-tert-butyl-3-[(3S)-1-methyl-2-oxo-5-phenyl-3H-1,4-benzodiazepin-3-yl]urea
@<TRIPOS>ATOM
      1 C1         -0.7360    8.7996   -4.1056 C.3       1 <0>        -0.1659
      2 C2          0.2270    7.6692   -4.4741 C.3       1 <0>         0.1861
      3 C3          1.2931    8.2002   -5.4345 C.3       1 <0>        -0.1553
      4 C4         -0.5498    6.5373   -5.1497 C.3       1 <0>        -0.1649
      5 N1          0.8721    7.1621   -3.2604 N.am      1 <0>        -0.7347
      6 C5          0.1245    6.6421   -2.2669 C.2       1 <0>         0.7139
      7 O1         -1.0853    6.5937   -2.3779 O.2       1 <0>        -0.5695
      8 N2          0.7180    6.1756   -1.1504 N.am      1 <0>        -0.7518
      9 C6         -0.0946    5.6103   -0.0704 C.3       1 <0>         0.3090
     10 H1         -1.1384    5.8891   -0.2147 H         1 <0>         0.1640
     11 C7          0.3885    6.1347    1.2543 C.2       1 <0>         0.5028
     12 O2         -0.3926    6.7100    1.9822 O.2       1 <0>        -0.5002
     13 N3          1.6509    5.9831    1.6484 N.am      1 <0>        -0.5516
     14 C8          2.6566    5.3974    0.8953 C.ar      1 <0>         0.1694
     15 C9          3.9187    5.9939    0.9362 C.ar      1 <0>        -0.1448
     16 C10         4.9683    5.4668    0.2169 C.ar      1 <0>        -0.0731
     17 C11         4.7801    4.3344   -0.5584 C.ar      1 <0>        -0.1301
     18 C12         3.5436    3.7342   -0.6120 C.ar      1 <0>        -0.0611
     19 C13         2.4639    4.2595    0.1206 C.ar      1 <0>        -0.1349
     20 C14         1.1701    3.5679    0.0096 C.2       1 <0>         0.2871
     21 N4          0.0285    4.1531   -0.0762 N.2       1 <0>        -0.5018
     22 C15         1.1833    2.0865    0.0020 C.ar      1 <0>        -0.0730
     23 C16         0.1252    1.3798   -0.5693 C.ar      1 <0>        -0.0655
     24 C17         0.1434    0.0001   -0.5737 C.ar      1 <0>        -0.1267
     25 C18         1.2081   -0.6822   -0.0126 C.ar      1 <0>        -0.0977
     26 C19         2.2607    0.0131    0.5551 C.ar      1 <0>        -0.1263
     27 C20         2.2540    1.3929    0.5656 C.ar      1 <0>        -0.0882
     28 C21         2.0051    6.4733    2.9828 C.3       1 <0>         0.0586
     29 H2         -0.1826    9.6059   -3.6243 H         1 <0>         0.0526
     30 H3         -1.2160    9.1768   -5.0086 H         1 <0>         0.0645
     31 H4         -1.4955    8.4213   -3.4214 H         1 <0>         0.0804
     32 H5          1.9791    7.3949   -5.6970 H         1 <0>         0.0620
     33 H6          0.8131    8.5774   -6.3375 H         1 <0>         0.0769
     34 H7          1.8465    9.0065   -4.9532 H         1 <0>         0.0618
     35 H8         -1.3093    6.1590   -4.4654 H         1 <0>         0.0805
     36 H9         -1.0298    6.9146   -6.0527 H         1 <0>         0.0641
     37 H10         0.1363    5.7320   -5.4122 H         1 <0>         0.0525
     38 H11         1.8373    7.2007   -3.1719 H         1 <0>         0.3940
     39 H12         1.6832    6.2142   -1.0618 H         1 <0>         0.3951
     40 H13         4.0733    6.8772    1.5382 H         1 <0>         0.1365
     41 H14         5.9395    5.9373    0.2570 H         1 <0>         0.1367
     42 H15         5.6046    3.9227   -1.1214 H         1 <0>         0.1363
     43 H16         3.4025    2.8514   -1.2179 H         1 <0>         0.1382
     44 H17        -0.7045    1.9115   -1.0112 H         1 <0>         0.1347
     45 H18        -0.6754   -0.5482   -1.0157 H         1 <0>         0.1284
     46 H19         1.2176   -1.7622   -0.0182 H         1 <0>         0.1262
     47 H20         3.0893   -0.5251    0.9913 H         1 <0>         0.1280
     48 H21         3.0760    1.9347    1.0097 H         1 <0>         0.1272
     49 H22         1.1237    6.9052    3.4569 H         1 <0>         0.1017
     50 H23         2.3741    5.6452    3.5879 H         1 <0>         0.0737
     51 H24         2.7808    7.2341    2.8964 H         1 <0>         0.0739
@<TRIPOS>BOND
     1    1    2 1
     2    1   29 1
     3    1   30 1
     4    1   31 1
     5    2    3 1
     6    2    4 1
     7    2    5 1
     8    3   32 1
     9    3   33 1
    10    3   34 1
    11    4   35 1
    12    4   36 1
    13    4   37 1
    14    5    6 am
    15    5   38 1
    16    6    7 2
    17    6    8 am
    18    8    9 1
    19    8   39 1
    20    9   10 1
    21    9   21 1
    22    9   11 1
    23   11   12 2
    24   11   13 am
    25   13   14 1
    26   13   28 1
    27   14   19 ar
    28   14   15 ar
    29   15   16 ar
    30   15   40 1
    31   16   17 ar
    32   16   41 1
    33   17   18 ar
    34   17   42 1
    35   18   19 ar
    36   18   43 1
    37   19   20 1
    38   20   21 2
    39   20   22 1
    40   22   27 ar
    41   22   23 ar
    42   23   24 ar
    43   23   44 1
    44   24   25 ar
    45   24   45 1
    46   25   26 ar
    47   25   46 1
    48   26   27 ar
    49   26   47 1
    50   27   48 1
    51   28   49 1
    52   28   50 1
    53   28   51 1
@<TRIPOS>MOLECULE
ZINC13732756
   51    53     0     0     0
SMALL
USER_CHARGES
1-tert-butyl-3-[(3R)-1-methyl-2-oxo-5-phenyl-3H-1,4-benzodiazepin-3-yl]urea
@<TRIPOS>ATOM
      1 C1          1.3174    2.7480    1.2667 C.3       1 <0>        -0.1643
      2 C2          1.2614    1.8607    0.0215 C.3       1 <0>         0.1864
      3 C3          2.4612    0.9114    0.0174 C.3       1 <0>        -0.1557
      4 C4          1.3006    2.7376   -1.2317 C.3       1 <0>        -0.1656
      5 N1          0.0214    1.0806    0.0331 N.am      1 <0>        -0.7337
      6 C5         -1.1705    1.7097    0.0329 C.2       1 <0>         0.7178
      7 O1         -1.2167    2.9247    0.0282 O.2       1 <0>        -0.5845
      8 N2         -2.3113    0.9920    0.0380 N.am      1 <0>        -0.7088
      9 C6         -3.6069    1.6758    0.0377 C.3       1 <0>         0.3062
     10 H1         -3.4672    2.7225   -0.2325 H         1 <0>         0.1279
     11 C7         -4.5242    1.0170   -0.9561 C.2       1 <0>         0.5062
     12 O2         -4.1397    0.0338   -1.5532 O.2       1 <0>        -0.5079
     13 N3         -5.7466    1.4852   -1.1974 N.am      1 <0>        -0.5500
     14 C8         -6.2898    2.6266   -0.6283 C.ar      1 <0>         0.1728
     15 C9         -7.0517    3.4550   -1.4550 C.ar      1 <0>        -0.1428
     16 C10        -7.6247    4.6057   -0.9603 C.ar      1 <0>        -0.0731
     17 C11        -7.4500    4.9529    0.3693 C.ar      1 <0>        -0.1301
     18 C12        -6.7028    4.1491    1.1983 C.ar      1 <0>        -0.0586
     19 C13        -6.1114    2.9742    0.7090 C.ar      1 <0>        -0.1333
     20 C14        -5.3213    2.1652    1.6502 C.2       1 <0>         0.2803
     21 N4         -4.2065    1.5895    1.3687 N.2       1 <0>        -0.5072
     22 C15        -5.8475    2.0053    3.0259 C.ar      1 <0>        -0.0675
     23 C16        -4.9819    1.6976    4.0753 C.ar      1 <0>        -0.0677
     24 C17        -5.4771    1.5556    5.3553 C.ar      1 <0>        -0.1270
     25 C18        -6.8309    1.7066    5.5969 C.ar      1 <0>        -0.0996
     26 C19        -7.6954    2.0062    4.5592 C.ar      1 <0>        -0.1255
     27 C20        -7.2113    2.1563    3.2758 C.ar      1 <0>        -0.0885
     28 C21        -6.5835    0.7355   -2.1375 C.3       1 <0>         0.0612
     29 H2          1.2895    2.1233    2.1595 H         1 <0>         0.0533
     30 H3          2.2400    3.3284    1.2581 H         1 <0>         0.0631
     31 H4          0.4626    3.4244    1.2697 H         1 <0>         0.0793
     32 H5          2.4213    0.2793   -0.8697 H         1 <0>         0.0624
     33 H6          3.3838    1.4918    0.0088 H         1 <0>         0.0761
     34 H7          2.4333    0.2867    0.9102 H         1 <0>         0.0627
     35 H8          0.4458    3.4140   -1.2287 H         1 <0>         0.0793
     36 H9          2.2232    3.3180   -1.2403 H         1 <0>         0.0636
     37 H10         1.2607    2.1055   -2.1188 H         1 <0>         0.0530
     38 H11         0.0583    0.1114    0.0369 H         1 <0>         0.3971
     39 H12        -2.2744    0.0227    0.0418 H         1 <0>         0.4066
     40 H13        -7.1927    3.1911   -2.4928 H         1 <0>         0.1352
     41 H14        -8.2115    5.2381   -1.6100 H         1 <0>         0.1360
     42 H15        -7.9006    5.8554    0.7550 H         1 <0>         0.1359
     43 H16        -6.5699    4.4244    2.2342 H         1 <0>         0.1379
     44 H17        -3.9255    1.5747    3.8870 H         1 <0>         0.1326
     45 H18        -4.8072    1.3214    6.1694 H         1 <0>         0.1272
     46 H19        -7.2146    1.5897    6.5997 H         1 <0>         0.1256
     47 H20        -8.7513    2.1225    4.7539 H         1 <0>         0.1280
     48 H21        -7.8871    2.3898    2.4664 H         1 <0>         0.1280
     49 H22        -6.0325   -0.1309   -2.5032 H         1 <0>         0.1012
     50 H23        -7.4898    0.4027   -1.6315 H         1 <0>         0.0738
     51 H24        -6.8509    1.3770   -2.9772 H         1 <0>         0.0745
@<TRIPOS>BOND
     1    1    2 1
     2    1   29 1
     3    1   30 1
     4    1   31 1
     5    2    3 1
     6    2    4 1
     7    2    5 1
     8    3   32 1
     9    3   33 1
    10    3   34 1
    11    4   35 1
    12    4   36 1
    13    4   37 1
    14    5    6 am
    15    5   38 1
    16    6    7 2
    17    6    8 am
    18    8    9 1
    19    8   39 1
    20    9   10 1
    21    9   21 1
    22    9   11 1
    23   11   12 2
    24   11   13 am
    25   13   14 1
    26   13   28 1
    27   14   19 ar
    28   14   15 ar
    29   15   16 ar
    30   15   40 1
    31   16   17 ar
    32   16   41 1
    33   17   18 ar
    34   17   42 1
    35   18   19 ar
    36   18   43 1
    37   19   20 1
    38   20   21 2
    39   20   22 1
    40   22   27 ar
    41   22   23 ar
    42   23   24 ar
    43   23   44 1
    44   24   25 ar
    45   24   45 1
    46   25   26 ar
    47   25   46 1
    48   26   27 ar
    49   26   47 1
    50   27   48 1
    51   28   49 1
    52   28   50 1
    53   28   51 1
@<TRIPOS>MOLECULE
ZINC13732897
   56    60     0     0     0
SMALL
USER_CHARGES
3-indan-5-yl-1-[(3R)-1-methyl-2-oxo-5-phenyl-3H-1,4-benzodiazepin-3-yl]urea
@<TRIPOS>ATOM
      1 C1          2.1513    5.8886    2.7277 C.3       1 <0>         0.0611
      2 N1          1.6393    5.3819    1.4521 N.am      1 <0>        -0.5495
      3 C2          2.4864    4.5893    0.6933 C.ar      1 <0>         0.1729
      4 C3          3.8295    4.9662    0.6273 C.ar      1 <0>        -0.1423
      5 C4          4.7314    4.2261   -0.1047 C.ar      1 <0>        -0.0723
      6 C5          4.3121    3.0949   -0.7853 C.ar      1 <0>        -0.1297
      7 C6          2.9928    2.7093   -0.7329 C.ar      1 <0>        -0.0585
      8 C7          2.0607    3.4531    0.0141 C.ar      1 <0>        -0.1348
      9 C8          0.6660    2.9845    0.0174 C.2       1 <0>         0.2836
     10 N2         -0.3663    3.7478   -0.0529 N.2       1 <0>        -0.5090
     11 C9         -0.2462    5.2023   -0.1457 C.3       1 <0>         0.3060
     12 H1          0.3709    5.4636   -1.0053 H         1 <0>         0.1292
     13 C10         0.3972    5.7191    1.1121 C.2       1 <0>         0.5066
     14 O1         -0.2319    6.4625    1.8350 O.2       1 <0>        -0.5075
     15 N3         -1.5771    5.7959   -0.2956 N.am      1 <0>        -0.7028
     16 C11        -1.9744    6.2653   -1.4949 C.2       1 <0>         0.7173
     17 O2         -1.2282    6.1962   -2.4524 O.2       1 <0>        -0.5708
     18 N4         -3.1988    6.8115   -1.6328 N.am      1 <0>        -0.6796
     19 C12        -3.6479    7.2123   -2.8962 C.ar      1 <0>         0.1616
     20 C13        -2.7570    7.7576   -3.8115 C.ar      1 <0>        -0.1163
     21 C14        -3.2039    8.1448   -5.0581 C.ar      1 <0>        -0.0891
     22 C15        -4.5402    8.0043   -5.3967 C.ar      1 <0>        -0.1114
     23 C16        -5.4307    7.4671   -4.4854 C.ar      1 <0>        -0.0802
     24 C17        -4.9855    7.0715   -3.2362 C.ar      1 <0>        -0.1318
     25 C18        -6.8171    7.4203   -5.0914 C.3       1 <0>        -0.0815
     26 C19        -6.7637    8.3827   -6.2969 C.3       1 <0>        -0.1208
     27 C20        -5.2681    8.3549   -6.6770 C.3       1 <0>        -0.0817
     28 C21         0.4337    1.5246    0.1151 C.ar      1 <0>        -0.0686
     29 C22         1.4081    0.6963    0.6715 C.ar      1 <0>        -0.0878
     30 C23         1.1856   -0.6626    0.7601 C.ar      1 <0>        -0.1255
     31 C24        -0.0010   -1.2038    0.2984 C.ar      1 <0>        -0.0987
     32 C25        -0.9715   -0.3871   -0.2541 C.ar      1 <0>        -0.1269
     33 C26        -0.7605    0.9732   -0.3486 C.ar      1 <0>        -0.0673
     34 H2          1.3843    6.4921    3.2131 H         1 <0>         0.1015
     35 H3          2.4155    5.0501    3.3720 H         1 <0>         0.0742
     36 H4          3.0350    6.5006    2.5473 H         1 <0>         0.0750
     37 H5          4.1643    5.8466    1.1556 H         1 <0>         0.1357
     38 H6          5.7673    4.5284   -0.1483 H         1 <0>         0.1364
     39 H7          5.0213    2.5156   -1.3578 H         1 <0>         0.1364
     40 H8          2.6712    1.8265   -1.2656 H         1 <0>         0.1384
     41 H9         -2.1724    5.8511    0.4682 H         1 <0>         0.4095
     42 H10        -3.7688    6.9266   -0.8564 H         1 <0>         0.4094
     43 H11        -1.7156    7.8735   -3.5500 H         1 <0>         0.1402
     44 H12        -2.5100    8.5644   -5.7714 H         1 <0>         0.1236
     45 H13        -5.6810    6.6519   -2.5245 H         1 <0>         0.1231
     46 H14        -7.0503    6.4091   -5.4248 H         1 <0>         0.0809
     47 H15        -7.5578    7.7611   -4.3679 H         1 <0>         0.0752
     48 H16        -7.0706    9.3870   -6.0048 H         1 <0>         0.0728
     49 H17        -7.3788    8.0114   -7.1166 H         1 <0>         0.0772
     50 H18        -4.9510    9.3338   -7.0365 H         1 <0>         0.0746
     51 H19        -5.0850    7.5947   -7.4365 H         1 <0>         0.0794
     52 H20         2.3329    1.1181    1.0363 H         1 <0>         0.1283
     53 H21         1.9395   -1.3052    1.1904 H         1 <0>         0.1283
     54 H22        -0.1705   -2.2680    0.3699 H         1 <0>         0.1259
     55 H23        -1.8959   -0.8153   -0.6125 H         1 <0>         0.1274
     56 H24        -1.5185    1.6096   -0.7808 H         1 <0>         0.1325
@<TRIPOS>BOND
     1    1    2 1
     2    1   34 1
     3    1   35 1
     4    1   36 1
     5    2   13 am
     6    2    3 1
     7    3    8 ar
     8    3    4 ar
     9    4    5 ar
    10    4   37 1
    11    5    6 ar
    12    5   38 1
    13    6    7 ar
    14    6   39 1
    15    7    8 ar
    16    7   40 1
    17    8    9 1
    18    9   10 2
    19    9   28 1
    20   10   11 1
    21   11   12 1
    22   11   13 1
    23   11   15 1
    24   13   14 2
    25   15   16 am
    26   15   41 1
    27   16   17 2
    28   16   18 am
    29   18   19 1
    30   18   42 1
    31   19   24 ar
    32   19   20 ar
    33   20   21 ar
    34   20   43 1
    35   21   22 ar
    36   21   44 1
    37   22   27 1
    38   22   23 ar
    39   23   24 ar
    40   23   25 1
    41   24   45 1
    42   25   26 1
    43   25   46 1
    44   25   47 1
    45   26   27 1
    46   26   48 1
    47   26   49 1
    48   27   50 1
    49   27   51 1
    50   28   33 ar
    51   28   29 ar
    52   29   30 ar
    53   29   52 1
    54   30   31 ar
    55   30   53 1
    56   31   32 ar
    57   31   54 1
    58   32   33 ar
    59   32   55 1
    60   33   56 1
@<TRIPOS>MOLECULE
ZINC27427028
   56    60     0     0     0
SMALL
USER_CHARGES
3-indan-5-yl-1-[(3S)-1-methyl-2-oxo-5-phenyl-3H-1,4-benzodiazepin-3-yl]urea
@<TRIPOS>ATOM
      1 C1          6.8042    7.6173   -2.7470 C.3       1 <0>         0.0694
      2 N1          5.7928    7.3138   -1.7315 N.am      1 <0>        -0.5495
      3 C2          5.0740    8.3771   -1.2078 C.ar      1 <0>         0.1719
      4 C3          4.6704    9.3773   -2.0950 C.ar      1 <0>        -0.1444
      5 C4          3.9580   10.4677   -1.6472 C.ar      1 <0>        -0.0725
      6 C5          3.6336   10.5826   -0.3054 C.ar      1 <0>        -0.1302
      7 C6          4.0215    9.6066    0.5827 C.ar      1 <0>        -0.0582
      8 C7          4.7472    8.4892    0.1419 C.ar      1 <0>        -0.1337
      9 C8          5.1272    7.4833    1.1461 C.2       1 <0>         0.2808
     10 N2          5.0937    6.2110    0.9620 N.2       1 <0>        -0.5083
     11 C9          4.6677    5.6256   -0.3086 C.3       1 <0>         0.3053
     12 H1          3.6474    5.9683   -0.5356 H         1 <0>         0.1288
     13 C10         5.6335    6.0381   -1.3858 C.2       1 <0>         0.5085
     14 O1          6.2861    5.1868   -1.9516 O.2       1 <0>        -0.5047
     15 N3          4.6533    4.1651   -0.1956 N.am      1 <0>        -0.7161
     16 C11         3.4807    3.5087   -0.0925 C.2       1 <0>         0.7196
     17 O2          2.4348    4.1288   -0.0933 O.2       1 <0>        -0.5779
     18 N4          3.4674    2.1650    0.0114 N.am      1 <0>        -0.6927
     19 C12         2.2499    1.4750    0.0091 C.ar      1 <0>         0.1731
     20 C13         1.1797    1.9529   -0.7360 C.ar      1 <0>        -0.1223
     21 C14        -0.0188    1.2693   -0.7336 C.ar      1 <0>        -0.0869
     22 C15        -0.1593    0.1067    0.0070 C.ar      1 <0>        -0.1178
     23 C16         0.9051   -0.3727    0.7482 C.ar      1 <0>        -0.0800
     24 C17         2.1087    0.3103    0.7495 C.ar      1 <0>        -0.1369
     25 C18         0.5004   -1.6456    1.4607 C.3       1 <0>        -0.0856
     26 C19        -0.7734   -2.1274    0.7345 C.3       1 <0>        -0.1163
     27 C20        -1.3514   -0.8119    0.1714 C.3       1 <0>        -0.0775
     28 C21         5.5821    7.9727    2.4683 C.ar      1 <0>        -0.0679
     29 C22         6.1115    9.2568    2.5954 C.ar      1 <0>        -0.0884
     30 C23         6.5299    9.7083    3.8303 C.ar      1 <0>        -0.1254
     31 C24         6.4335    8.8870    4.9393 C.ar      1 <0>        -0.0994
     32 C25         5.9136    7.6105    4.8188 C.ar      1 <0>        -0.1269
     33 C26         5.4879    7.1492    3.5900 C.ar      1 <0>        -0.0678
     34 H2          6.8251    8.7016   -2.9311 H         1 <0>         0.0897
     35 H3          6.5556    7.0916   -3.6807 H         1 <0>         0.0769
     36 H4          7.7913    7.2866   -2.3917 H         1 <0>         0.0758
     37 H5          4.9192    9.2948   -3.1427 H         1 <0>         0.1356
     38 H6          3.6515   11.2343   -2.3435 H         1 <0>         0.1363
     39 H7          3.0762   11.4393    0.0436 H         1 <0>         0.1362
     40 H8          3.7659    9.7011    1.6278 H         1 <0>         0.1379
     41 H9          5.5995    3.6042   -0.1949 H         1 <0>         0.4305
     42 H10         4.4136    1.6107    0.0980 H         1 <0>         0.4313
     43 H11         1.2848    2.8587   -1.3146 H         1 <0>         0.1348
     44 H12        -0.8499    1.6397   -1.3153 H         1 <0>         0.1222
     45 H13         2.9399   -0.0640    1.3286 H         1 <0>         0.1224
     46 H14         1.3131   -2.3829    1.3841 H         1 <0>         0.0745
     47 H15         0.3033   -1.4259    2.5204 H         1 <0>         0.0800
     48 H16        -0.4977   -2.8449   -0.0524 H         1 <0>         0.0732
     49 H17        -1.4448   -2.6152    1.4565 H         1 <0>         0.0770
     50 H18        -2.0721   -0.3565    0.8666 H         1 <0>         0.0797
     51 H19        -1.8323   -0.9670   -0.8057 H         1 <0>         0.0744
     52 H20         6.1911    9.8974    1.7295 H         1 <0>         0.1281
     53 H21         6.9369   10.7037    3.9306 H         1 <0>         0.1281
     54 H22         6.7657    9.2435    5.9031 H         1 <0>         0.1257
     55 H23         5.8412    6.9738    5.6881 H         1 <0>         0.1272
     56 H24         5.0829    6.1524    3.4970 H         1 <0>         0.1322
@<TRIPOS>BOND
     1    1    2 1
     2    1   34 1
     3    1   35 1
     4    1   36 1
     5    2   13 am
     6    2    3 1
     7    3    8 ar
     8    3    4 ar
     9    4    5 ar
    10    4   37 1
    11    5    6 ar
    12    5   38 1
    13    6    7 ar
    14    6   39 1
    15    7    8 ar
    16    7   40 1
    17    8    9 1
    18    9   10 2
    19    9   28 1
    20   10   11 1
    21   11   12 1
    22   11   13 1
    23   11   15 1
    24   13   14 2
    25   15   16 am
    26   15   41 1
    27   16   17 2
    28   16   18 am
    29   18   19 1
    30   18   42 1
    31   19   24 ar
    32   19   20 ar
    33   20   21 ar
    34   20   43 1
    35   21   22 ar
    36   21   44 1
    37   22   27 1
    38   22   23 ar
    39   23   24 ar
    40   23   25 1
    41   24   45 1
    42   25   26 1
    43   25   46 1
    44   25   47 1
    45   26   27 1
    46   26   48 1
    47   26   49 1
    48   27   50 1
    49   27   51 1
    50   28   33 ar
    51   28   29 ar
    52   29   30 ar
    53   29   52 1
    54   30   31 ar
    55   30   53 1
    56   31   32 ar
    57   31   54 1
    58   32   33 ar
    59   32   55 1
    60   33   56 1
@<TRIPOS>MOLECULE
ZINC13732955
   55    58     0     0     0
SMALL
USER_CHARGES
methyl 3-[[(3R)-1-methyl-2-oxo-5-phenyl-3H-1,4-benzodiazepin-3-yl]carbamoylamino]benzoate
@<TRIPOS>ATOM
      1 C1         -1.4827   -7.9414   -1.5785 C.3       1 <0>         0.0612
      2 N1         -1.8793   -6.8196   -0.7238 N.am      1 <0>        -0.5488
      3 C2         -3.1461   -6.8608   -0.1626 C.ar      1 <0>         0.1718
      4 C3         -4.1892   -7.3246   -0.9670 C.ar      1 <0>        -0.1423
      5 C4         -5.4748   -7.3963   -0.4779 C.ar      1 <0>        -0.0723
      6 C5         -5.7460   -7.0068    0.8234 C.ar      1 <0>        -0.1293
      7 C6         -4.7315   -6.5465    1.6300 C.ar      1 <0>        -0.0576
      8 C7         -3.4164   -6.4670    1.1463 C.ar      1 <0>        -0.1343
      9 C8         -2.3822   -5.9610    2.0622 C.2       1 <0>         0.2845
     10 N2         -1.4305   -5.1626    1.7281 N.2       1 <0>        -0.5091
     11 C9         -1.2785   -4.6731    0.3585 C.3       1 <0>         0.3048
     12 H1         -2.1970   -4.1793    0.0414 H         1 <0>         0.1299
     13 C10        -0.9952   -5.8403   -0.5473 C.2       1 <0>         0.5071
     14 O1          0.0661   -5.8901   -1.1322 O.2       1 <0>        -0.5080
     15 N3         -0.1647   -3.7232    0.2978 N.am      1 <0>        -0.7008
     16 C11        -0.4105   -2.4028    0.1858 C.2       1 <0>         0.7151
     17 O2         -1.5566   -1.9999    0.1352 O.2       1 <0>        -0.5657
     18 N4          0.6141   -1.5290    0.1299 N.am      1 <0>        -0.6795
     19 C12         0.3604   -0.1524    0.1240 C.ar      1 <0>         0.1557
     20 C13         1.2070    0.7072   -0.5661 C.ar      1 <0>        -0.1104
     21 C14         0.9606    2.0673   -0.5760 C.ar      1 <0>        -0.1097
     22 C15        -0.1275    2.5812    0.0997 C.ar      1 <0>        -0.0788
     23 C16        -0.9839    1.7262    0.7963 C.ar      1 <0>        -0.1067
     24 C17        -0.7351    0.3531    0.8057 C.ar      1 <0>        -0.0582
     25 C18        -2.1493    2.2734    1.5210 C.2       1 <0>         0.5078
     26 O3         -2.8929    1.5277    2.1263 O.2       1 <0>        -0.4977
     27 O4         -2.3873    3.5993    1.5103 O.3       1 <0>        -0.3548
     28 C19        -3.5502    4.0662    2.2438 C.3       1 <0>         0.0364
     29 C20        -2.4415   -6.4039    3.4747 C.ar      1 <0>        -0.0688
     30 C21        -1.8635   -5.6255    4.4774 C.ar      1 <0>        -0.0670
     31 C22        -1.9275   -6.0401    5.7919 C.ar      1 <0>        -0.1267
     32 C23        -2.5529   -7.2312    6.1148 C.ar      1 <0>        -0.0986
     33 C24        -3.1226   -8.0107    5.1239 C.ar      1 <0>        -0.1255
     34 C25        -3.0705   -7.6036    3.8065 C.ar      1 <0>        -0.0875
     35 H2         -0.4707   -7.7763   -1.9483 H         1 <0>         0.1015
     36 H3         -1.5125   -8.8658   -1.0018 H         1 <0>         0.0744
     37 H4         -2.1697   -8.0166   -2.4214 H         1 <0>         0.0750
     38 H5         -3.9858   -7.6303   -1.9827 H         1 <0>         0.1356
     39 H6         -6.2728   -7.7566   -1.1102 H         1 <0>         0.1364
     40 H7         -6.7548   -7.0643    1.2048 H         1 <0>         0.1364
     41 H8         -4.9484   -6.2442    2.6439 H         1 <0>         0.1384
     42 H9          0.7496   -4.0447    0.3381 H         1 <0>         0.4102
     43 H10         1.5273   -1.8540    0.0937 H         1 <0>         0.4128
     44 H11         2.0602    0.3111   -1.0967 H         1 <0>         0.1347
     45 H12         1.6245    2.7305   -1.1105 H         1 <0>         0.1388
     46 H13        -0.3168    3.6444    0.0893 H         1 <0>         0.1410
     47 H14        -1.3938   -0.3132    1.3427 H         1 <0>         0.1531
     48 H15        -3.4499    3.7951    3.2947 H         1 <0>         0.0645
     49 H16        -3.6255    5.1499    2.1537 H         1 <0>         0.1044
     50 H17        -4.4481    3.6042    1.8334 H         1 <0>         0.0646
     51 H18        -1.3709   -4.6979    4.2259 H         1 <0>         0.1326
     52 H19        -1.4845   -5.4359    6.5697 H         1 <0>         0.1276
     53 H20        -2.5962   -7.5540    7.1445 H         1 <0>         0.1259
     54 H21        -3.6094   -8.9395    5.3821 H         1 <0>         0.1282
     55 H22        -3.5163   -8.2126    3.0340 H         1 <0>         0.1280
@<TRIPOS>BOND
     1    1    2 1
     2    1   35 1
     3    1   36 1
     4    1   37 1
     5    2   13 am
     6    2    3 1
     7    3    8 ar
     8    3    4 ar
     9    4    5 ar
    10    4   38 1
    11    5    6 ar
    12    5   39 1
    13    6    7 ar
    14    6   40 1
    15    7    8 ar
    16    7   41 1
    17    8    9 1
    18    9   10 2
    19    9   29 1
    20   10   11 1
    21   11   12 1
    22   11   13 1
    23   11   15 1
    24   13   14 2
    25   15   16 am
    26   15   42 1
    27   16   17 2
    28   16   18 am
    29   18   19 1
    30   18   43 1
    31   19   24 ar
    32   19   20 ar
    33   20   21 ar
    34   20   44 1
    35   21   22 ar
    36   21   45 1
    37   22   23 ar
    38   22   46 1
    39   23   24 ar
    40   23   25 1
    41   24   47 1
    42   25   26 2
    43   25   27 1
    44   27   28 1
    45   28   48 1
    46   28   49 1
    47   28   50 1
    48   29   34 ar
    49   29   30 ar
    50   30   31 ar
    51   30   51 1
    52   31   32 ar
    53   31   52 1
    54   32   33 ar
    55   32   53 1
    56   33   34 ar
    57   33   54 1
    58   34   55 1
@<TRIPOS>MOLECULE
ZINC27430688
   55    58     0     0     0
SMALL
USER_CHARGES
methyl 3-[[(3S)-1-methyl-2-oxo-5-phenyl-3H-1,4-benzodiazepin-3-yl]carbamoylamino]benzoate
@<TRIPOS>ATOM
      1 C1          0.2511   -0.1500    0.3066 C.3       1 <0>         0.0666
      2 N1          0.0846    1.3041    0.2424 N.am      1 <0>        -0.5506
      3 C2          1.2206    2.0682    0.0249 C.ar      1 <0>         0.1668
      4 C3          2.3880    1.6851    0.6887 C.ar      1 <0>        -0.1466
      5 C4          3.5565    2.3945    0.5206 C.ar      1 <0>        -0.0722
      6 C5          3.5844    3.5002   -0.3132 C.ar      1 <0>        -0.1298
      7 C6          2.4441    3.8926   -0.9749 C.ar      1 <0>        -0.0602
      8 C7          1.2455    3.1808   -0.8133 C.ar      1 <0>        -0.1348
      9 C8          0.0638    3.6591   -1.5479 C.2       1 <0>         0.2873
     10 N2         -1.1300    3.7029   -1.0721 N.2       1 <0>        -0.5018
     11 C9         -1.4359    3.2602    0.2877 C.3       1 <0>         0.3086
     12 H1         -2.4914    3.4757    0.5102 H         1 <0>         0.1660
     13 C10        -1.1464    1.7878    0.3922 C.2       1 <0>         0.5046
     14 O1         -2.0579    1.0219    0.6235 O.2       1 <0>        -0.4959
     15 N3         -0.6060    3.9989    1.2426 N.am      1 <0>        -0.7575
     16 C11        -1.1493    4.9808    1.9890 C.2       1 <0>         0.7146
     17 O2         -2.3282    5.2536    1.8698 O.2       1 <0>        -0.5588
     18 N4         -0.3858    5.6604    2.8675 N.am      1 <0>        -0.6945
     19 C12        -0.9687    6.6143    3.7099 C.ar      1 <0>         0.1569
     20 C13        -0.4982    6.7753    5.0078 C.ar      1 <0>        -0.1100
     21 C14        -1.0701    7.7157    5.8439 C.ar      1 <0>        -0.1120
     22 C15        -2.1122    8.5017    5.3956 C.ar      1 <0>        -0.0783
     23 C16        -2.5920    8.3482    4.0934 C.ar      1 <0>        -0.1074
     24 C17        -2.0111    7.4020    3.2480 C.ar      1 <0>        -0.0578
     25 C18        -3.7077    9.1878    3.6107 C.2       1 <0>         0.5067
     26 O3         -4.1235    9.0525    2.4774 O.2       1 <0>        -0.4966
     27 O4         -4.2639   10.1034    4.4274 O.3       1 <0>        -0.3550
     28 C19        -5.3558   10.8927    3.8861 C.3       1 <0>         0.0328
     29 C20         0.2642    4.1245   -2.9400 C.ar      1 <0>        -0.0741
     30 C21        -0.6433    5.0109   -3.5194 C.ar      1 <0>        -0.0653
     31 C22        -0.4491    5.4439   -4.8151 C.ar      1 <0>        -0.1264
     32 C23         0.6381    4.9933   -5.5423 C.ar      1 <0>        -0.0972
     33 C24         1.5392    4.1102   -4.9747 C.ar      1 <0>        -0.1265
     34 C25         1.3581    3.6735   -3.6784 C.ar      1 <0>        -0.0881
     35 H2          1.3123   -0.4040    0.1676 H         1 <0>         0.0893
     36 H3         -0.3462   -0.6228   -0.4870 H         1 <0>         0.0764
     37 H4         -0.0878   -0.5149    1.2874 H         1 <0>         0.0775
     38 H5          2.3743    0.8241    1.3407 H         1 <0>         0.1374
     39 H6          4.4527    2.0879    1.0395 H         1 <0>         0.1373
     40 H7          4.5019    4.0548   -0.4437 H         1 <0>         0.1368
     41 H8          2.4716    4.7551   -1.6243 H         1 <0>         0.1386
     42 H9          0.4605    3.7521    1.3504 H         1 <0>         0.4145
     43 H10         0.6954    5.4654    2.9225 H         1 <0>         0.4309
     44 H11         0.3170    6.1631    5.3644 H         1 <0>         0.1330
     45 H12        -0.7001    7.8360    6.8513 H         1 <0>         0.1377
     46 H13        -2.5562    9.2356    6.0518 H         1 <0>         0.1404
     47 H14        -2.3753    7.2812    2.2384 H         1 <0>         0.1548
     48 H15        -5.7148   11.5959    4.6520 H         1 <0>         0.1059
     49 H16        -6.1775   10.2253    3.5871 H         1 <0>         0.0659
     50 H17        -5.0023   11.4548    3.0091 H         1 <0>         0.0655
     51 H18        -1.4947    5.3602   -2.9540 H         1 <0>         0.1348
     52 H19        -1.1494    6.1329   -5.2637 H         1 <0>         0.1286
     53 H20         0.7839    5.3320   -6.5574 H         1 <0>         0.1263
     54 H21         2.3859    3.7617   -5.5474 H         1 <0>         0.1281
     55 H22         2.0618    2.9836   -3.2365 H         1 <0>         0.1272
@<TRIPOS>BOND
     1    1    2 1
     2    1   35 1
     3    1   36 1
     4    1   37 1
     5    2   13 am
     6    2    3 1
     7    3    8 ar
     8    3    4 ar
     9    4    5 ar
    10    4   38 1
    11    5    6 ar
    12    5   39 1
    13    6    7 ar
    14    6   40 1
    15    7    8 ar
    16    7   41 1
    17    8    9 1
    18    9   10 2
    19    9   29 1
    20   10   11 1
    21   11   12 1
    22   11   13 1
    23   11   15 1
    24   13   14 2
    25   15   16 am
    26   15   42 1
    27   16   17 2
    28   16   18 am
    29   18   19 1
    30   18   43 1
    31   19   24 ar
    32   19   20 ar
    33   20   21 ar
    34   20   44 1
    35   21   22 ar
    36   21   45 1
    37   22   23 ar
    38   22   46 1
    39   23   24 ar
    40   23   25 1
    41   24   47 1
    42   25   26 2
    43   25   27 1
    44   27   28 1
    45   28   48 1
    46   28   49 1
    47   28   50 1
    48   29   34 ar
    49   29   30 ar
    50   30   31 ar
    51   30   51 1
    52   31   32 ar
    53   31   52 1
    54   32   33 ar
    55   32   53 1
    56   33   34 ar
    57   33   54 1
    58   34   55 1
@<TRIPOS>MOLECULE
ZINC13732787
   49    52     0     0     0
SMALL
USER_CHARGES
3-(3-chlorophenyl)-1-[(3S)-1-methyl-2-oxo-5-phenyl-3H-1,4-benzodiazepin-3-yl]urea
@<TRIPOS>ATOM
      1 C1          4.3932   -7.6113   -2.8263 C.3       1 <0>         0.0647
      2 N1          4.6226   -6.5823   -1.8092 N.am      1 <0>        -0.5490
      3 C2          5.9053   -6.4650   -1.2969 C.ar      1 <0>         0.1725
      4 C3          6.9681   -6.5886   -2.1943 C.ar      1 <0>        -0.1448
      5 C4          8.2708   -6.4897   -1.7581 C.ar      1 <0>        -0.0714
      6 C5          8.5399   -6.2654   -0.4179 C.ar      1 <0>        -0.1297
      7 C6          7.5058   -6.1396    0.4802 C.ar      1 <0>        -0.0570
      8 C7          6.1731   -6.2372    0.0513 C.ar      1 <0>        -0.1350
      9 C8          5.1177   -6.0906    1.0658 C.2       1 <0>         0.2847
     10 N2          4.0164   -5.4490    0.8942 N.2       1 <0>        -0.5096
     11 C9          3.6963   -4.7895   -0.3711 C.3       1 <0>         0.3048
     12 H1          4.4871   -4.0837   -0.6253 H         1 <0>         0.1295
     13 C10         3.5838   -5.8307   -1.4511 C.2       1 <0>         0.5064
     14 O1          2.5184   -5.9917   -2.0077 O.2       1 <0>        -0.5062
     15 N3          2.4235   -4.0752   -0.2438 N.am      1 <0>        -0.7010
     16 C11         2.4126   -2.7318   -0.1357 C.2       1 <0>         0.7166
     17 O2          3.4590   -2.1127   -0.1439 O.2       1 <0>        -0.5681
     18 N4          1.2417   -2.0747   -0.0186 N.am      1 <0>        -0.6794
     19 C12         1.2231   -0.6754   -0.0032 C.ar      1 <0>         0.1749
     20 C13         0.1697    0.0129   -0.5912 C.ar      1 <0>        -0.1411
     21 C14         0.1534    1.3937   -0.5743 C.ar      1 <0>        -0.0868
     22 C15         1.1845    2.0918    0.0271 C.ar      1 <0>        -0.1263
     23 C16         2.2356    1.4095    0.6139 C.ar      1 <0>        -0.0163
     24 C17         2.2573    0.0272    0.6001 C.ar      1 <0>        -0.1128
     25 Cl1         3.5283    2.2898    1.3674 Cl        1 <0>        -0.0643
     26 C18         5.3404   -6.7295    2.3837 C.ar      1 <0>        -0.0689
     27 C19         6.1908   -7.8295    2.4938 C.ar      1 <0>        -0.0873
     28 C20         6.3972   -8.4179    3.7247 C.ar      1 <0>        -0.1253
     29 C21         5.7555   -7.9246    4.8467 C.ar      1 <0>        -0.0986
     30 C22         4.9070   -6.8368    4.7430 C.ar      1 <0>        -0.1267
     31 C23         4.6960   -6.2371    3.5184 C.ar      1 <0>        -0.0675
     32 H2          4.1037   -8.5435   -2.3412 H         1 <0>         0.0702
     33 H3          3.5970   -7.2882   -3.4970 H         1 <0>         0.0918
     34 H4          5.3082   -7.7679   -3.3976 H         1 <0>         0.0856
     35 H5          6.7666   -6.7633   -3.2408 H         1 <0>         0.1366
     36 H6          9.0839   -6.5868   -2.4622 H         1 <0>         0.1366
     37 H7          9.5622   -6.1896   -0.0780 H         1 <0>         0.1366
     38 H8          7.7212   -5.9646    1.5240 H         1 <0>         0.1384
     39 H9          1.5887   -4.5691   -0.2373 H         1 <0>         0.4101
     40 H10         0.4120   -2.5716    0.0551 H         1 <0>         0.4127
     41 H11        -0.6362   -0.5313   -1.0608 H         1 <0>         0.1330
     42 H12        -0.6635    1.9290   -1.0354 H         1 <0>         0.1381
     43 H13         1.1695    3.1717    0.0386 H         1 <0>         0.1354
     44 H14         3.0779   -0.5053    1.0577 H         1 <0>         0.1520
     45 H15         6.6890   -8.2180    1.6179 H         1 <0>         0.1279
     46 H16         7.0581   -9.2676    3.8118 H         1 <0>         0.1283
     47 H17         5.9173   -8.3908    5.8074 H         1 <0>         0.1260
     48 H18         4.4086   -6.4564    5.6224 H         1 <0>         0.1276
     49 H19         4.0328   -5.3884    3.4386 H         1 <0>         0.1323
@<TRIPOS>BOND
     1    1    2 1
     2    1   32 1
     3    1   33 1
     4    1   34 1
     5    2   13 am
     6    2    3 1
     7    3    8 ar
     8    3    4 ar
     9    4    5 ar
    10    4   35 1
    11    5    6 ar
    12    5   36 1
    13    6    7 ar
    14    6   37 1
    15    7    8 ar
    16    7   38 1
    17    8    9 1
    18    9   10 2
    19    9   26 1
    20   10   11 1
    21   11   12 1
    22   11   13 1
    23   11   15 1
    24   13   14 2
    25   15   16 am
    26   15   39 1
    27   16   17 2
    28   16   18 am
    29   18   19 1
    30   18   40 1
    31   19   24 ar
    32   19   20 ar
    33   20   21 ar
    34   20   41 1
    35   21   22 ar
    36   21   42 1
    37   22   23 ar
    38   22   43 1
    39   23   24 ar
    40   23   25 1
    41   24   44 1
    42   26   31 ar
    43   26   27 ar
    44   27   28 ar
    45   27   45 1
    46   28   29 ar
    47   28   46 1
    48   29   30 ar
    49   29   47 1
    50   30   31 ar
    51   30   48 1
    52   31   49 1
@<TRIPOS>MOLECULE
ZINC13732790
   49    52     0     0     0
SMALL
USER_CHARGES
3-(3-chlorophenyl)-1-[(3R)-1-methyl-2-oxo-5-phenyl-3H-1,4-benzodiazepin-3-yl]urea
@<TRIPOS>ATOM
      1 C1         -6.3500    0.2033   -1.7862 C.3       1 <0>         0.0610
      2 N1         -5.6252    1.1714   -0.9594 N.am      1 <0>        -0.5488
      3 C2         -6.3269    2.2788   -0.5089 C.ar      1 <0>         0.1719
      4 C3         -7.2115    2.8849   -1.4036 C.ar      1 <0>        -0.1421
      5 C4         -7.9454    3.9879   -1.0269 C.ar      1 <0>        -0.0722
      6 C5         -7.8116    4.5089    0.2496 C.ar      1 <0>        -0.1292
      7 C6         -6.9444    3.9257    1.1439 C.ar      1 <0>        -0.0578
      8 C7         -6.1894    2.8016    0.7752 C.ar      1 <0>        -0.1346
      9 C8         -5.2784    2.2322    1.7805 C.2       1 <0>         0.2846
     10 N2         -4.0937    1.7947    1.5357 N.2       1 <0>        -0.5095
     11 C9         -3.5259    1.8163    0.1883 C.3       1 <0>         0.3052
     12 H1         -3.5465    2.8337   -0.2023 H         1 <0>         0.1298
     13 C10        -4.3443    0.9191   -0.6996 C.2       1 <0>         0.5066
     14 O1         -3.8234   -0.0593   -1.1919 O.2       1 <0>        -0.5076
     15 N3         -2.1428    1.3351    0.2309 N.am      1 <0>        -0.7010
     16 C11        -1.1220    2.2066    0.1093 C.2       1 <0>         0.7167
     17 O2         -1.3490    3.3923   -0.0358 O.2       1 <0>        -0.5681
     18 N4          0.1504    1.7639    0.1486 N.am      1 <0>        -0.6795
     19 C12         1.2101    2.6775    0.1242 C.ar      1 <0>         0.1754
     20 C13         2.3680    2.4195    0.8466 C.ar      1 <0>        -0.1406
     21 C14         3.4125    3.3226    0.8210 C.ar      1 <0>        -0.0867
     22 C15         3.3071    4.4832    0.0767 C.ar      1 <0>        -0.1263
     23 C16         2.1551    4.7438   -0.6443 C.ar      1 <0>        -0.0161
     24 C17         1.1084    3.8408   -0.6266 C.ar      1 <0>        -0.1132
     25 Cl1         2.0267    6.2024   -1.5769 Cl        1 <0>        -0.0644
     26 C18        -5.7615    2.1575    3.1790 C.ar      1 <0>        -0.0689
     27 C19        -4.8498    2.1285    4.2340 C.ar      1 <0>        -0.0674
     28 C20        -5.3060    2.0652    5.5348 C.ar      1 <0>        -0.1268
     29 C21        -6.6644    2.0186    5.7928 C.ar      1 <0>        -0.0986
     30 C22        -7.5735    2.0408    4.7502 C.ar      1 <0>        -0.1253
     31 C23        -7.1297    2.1102    3.4456 C.ar      1 <0>        -0.0873
     32 H2         -5.6795   -0.6090   -2.0666 H         1 <0>         0.1016
     33 H3         -7.1915   -0.1986   -1.2219 H         1 <0>         0.0744
     34 H4         -6.7183    0.6972   -2.6854 H         1 <0>         0.0752
     35 H5         -7.3216    2.4846   -2.4005 H         1 <0>         0.1357
     36 H6         -8.6260    4.4477   -1.7282 H         1 <0>         0.1365
     37 H7         -8.3883    5.3736    0.5428 H         1 <0>         0.1365
     38 H8         -6.8441    4.3358    2.1380 H         1 <0>         0.1383
     39 H9         -1.9618    0.3892    0.3467 H         1 <0>         0.4102
     40 H10         0.3316    0.8119    0.1897 H         1 <0>         0.4128
     41 H11         2.4514    1.5133    1.4282 H         1 <0>         0.1330
     42 H12         4.3129    3.1219    1.3827 H         1 <0>         0.1382
     43 H13         4.1257    5.1875    0.0578 H         1 <0>         0.1354
     44 H14         0.2112    4.0419   -1.1931 H         1 <0>         0.1510
     45 H15        -3.7891    2.1600    4.0336 H         1 <0>         0.1322
     46 H16        -4.6011    2.0475    6.3528 H         1 <0>         0.1276
     47 H17        -7.0165    1.9642    6.8124 H         1 <0>         0.1260
     48 H18        -8.6327    2.0042    4.9579 H         1 <0>         0.1284
     49 H19        -7.8403    2.1283    2.6325 H         1 <0>         0.1280
@<TRIPOS>BOND
     1    1    2 1
     2    1   32 1
     3    1   33 1
     4    1   34 1
     5    2   13 am
     6    2    3 1
     7    3    8 ar
     8    3    4 ar
     9    4    5 ar
    10    4   35 1
    11    5    6 ar
    12    5   36 1
    13    6    7 ar
    14    6   37 1
    15    7    8 ar
    16    7   38 1
    17    8    9 1
    18    9   10 2
    19    9   26 1
    20   10   11 1
    21   11   12 1
    22   11   13 1
    23   11   15 1
    24   13   14 2
    25   15   16 am
    26   15   39 1
    27   16   17 2
    28   16   18 am
    29   18   19 1
    30   18   40 1
    31   19   24 ar
    32   19   20 ar
    33   20   21 ar
    34   20   41 1
    35   21   22 ar
    36   21   42 1
    37   22   23 ar
    38   22   43 1
    39   23   24 ar
    40   23   25 1
    41   24   44 1
    42   26   31 ar
    43   26   27 ar
    44   27   28 ar
    45   27   45 1
    46   28   29 ar
    47   28   46 1
    48   29   30 ar
    49   29   47 1
    50   30   31 ar
    51   30   48 1
    52   31   49 1
@<TRIPOS>MOLECULE
ZINC13732769
   52    55     0     0     0
SMALL
USER_CHARGES
3-benzyl-1-[(3S)-1-methyl-2-oxo-5-phenyl-3H-1,4-benzodiazepin-3-yl]urea
@<TRIPOS>ATOM
      1 C1         -7.8634    4.4507   -5.7746 C.3       1 <0>         0.0649
      2 N1         -7.4802    5.2658   -4.6192 N.am      1 <0>        -0.5499
      3 C2         -8.3357    6.2919   -4.2493 C.ar      1 <0>         0.1733
      4 C3         -9.7071    6.0339   -4.3015 C.ar      1 <0>        -0.1452
      5 C4        -10.6185    7.0065   -3.9547 C.ar      1 <0>        -0.0722
      6 C5        -10.1805    8.2564   -3.5486 C.ar      1 <0>        -0.1305
      7 C6         -8.8335    8.5282   -3.4898 C.ar      1 <0>        -0.0578
      8 C7         -7.8924    7.5475   -3.8392 C.ar      1 <0>        -0.1339
      9 C8         -6.4684    7.9067   -3.7507 C.2       1 <0>         0.2808
     10 N2         -5.5405    7.1326   -3.3106 N.2       1 <0>        -0.5074
     11 C9         -5.8228    5.7741   -2.8487 C.3       1 <0>         0.3056
     12 H1         -6.5744    5.8056   -2.0598 H         1 <0>         0.1280
     13 C10        -6.3393    4.9615   -4.0045 C.2       1 <0>         0.5059
     14 O1         -5.6980    4.0063   -4.3883 O.2       1 <0>        -0.5062
     15 N3         -4.5941    5.1664   -2.3318 N.am      1 <0>        -0.7069
     16 C11        -4.4183    5.0277   -1.0028 C.2       1 <0>         0.7159
     17 O2         -5.2795    5.4070   -0.2328 O.2       1 <0>        -0.5887
     18 N4         -3.2880    4.4685   -0.5273 N.am      1 <0>        -0.7361
     19 C12        -3.0969    4.3178    0.9174 C.3       1 <0>         0.1812
     20 C13        -1.7624    3.6699    1.1826 C.ar      1 <0>        -0.1121
     21 C14        -1.6648    2.2929    1.2555 C.ar      1 <0>        -0.0990
     22 C15        -0.4415    1.6987    1.5032 C.ar      1 <0>        -0.1220
     23 C16         0.6860    2.4812    1.6685 C.ar      1 <0>        -0.1103
     24 C17         0.5892    3.8580    1.5918 C.ar      1 <0>        -0.1220
     25 C18        -0.6350    4.4523    1.3488 C.ar      1 <0>        -0.0987
     26 C19        -6.0739    9.2615   -4.2020 C.ar      1 <0>        -0.0676
     27 C20        -6.8677    9.9537   -5.1162 C.ar      1 <0>        -0.0883
     28 C21        -6.4971   11.2168   -5.5298 C.ar      1 <0>        -0.1255
     29 C22        -5.3359   11.7931   -5.0465 C.ar      1 <0>        -0.0995
     30 C23        -4.5419   11.1095   -4.1431 C.ar      1 <0>        -0.1270
     31 C24        -4.9042    9.8475   -3.7187 C.ar      1 <0>        -0.0677
     32 H2         -7.4543    4.8929   -6.6830 H         1 <0>         0.0696
     33 H3         -7.4708    3.4411   -5.6533 H         1 <0>         0.0915
     34 H4         -8.9503    4.4115   -5.8472 H         1 <0>         0.0851
     35 H5        -10.0566    5.0618   -4.6168 H         1 <0>         0.1363
     36 H6        -11.6765    6.7943   -3.9990 H         1 <0>         0.1362
     37 H7        -10.8971    9.0179   -3.2785 H         1 <0>         0.1361
     38 H8         -8.4974    9.5043   -3.1724 H         1 <0>         0.1382
     39 H9         -3.9071    4.8638   -2.9461 H         1 <0>         0.4078
     40 H10        -2.6009    4.1659   -1.1416 H         1 <0>         0.4002
     41 H11        -3.8915    3.6934    1.3258 H         1 <0>         0.0767
     42 H12        -3.1253    5.2986    1.3920 H         1 <0>         0.0772
     43 H13        -2.5450    1.6814    1.1220 H         1 <0>         0.1243
     44 H14        -0.3659    0.6231    1.5632 H         1 <0>         0.1248
     45 H15         1.6425    2.0168    1.8579 H         1 <0>         0.1239
     46 H16         1.4701    4.4693    1.7212 H         1 <0>         0.1249
     47 H17        -0.7106    5.5280    1.2885 H         1 <0>         0.1246
     48 H18        -7.7722    9.5032   -5.4974 H         1 <0>         0.1281
     49 H19        -7.1128   11.7552   -6.2352 H         1 <0>         0.1280
     50 H20        -5.0480   12.7804   -5.3760 H         1 <0>         0.1256
     51 H21        -3.6363   11.5643   -3.7695 H         1 <0>         0.1272
     52 H22        -4.2832    9.3145   -3.0140 H         1 <0>         0.1327
@<TRIPOS>BOND
     1    1    2 1
     2    1   32 1
     3    1   33 1
     4    1   34 1
     5    2   13 am
     6    2    3 1
     7    3    8 ar
     8    3    4 ar
     9    4    5 ar
    10    4   35 1
    11    5    6 ar
    12    5   36 1
    13    6    7 ar
    14    6   37 1
    15    7    8 ar
    16    7   38 1
    17    8    9 1
    18    9   10 2
    19    9   26 1
    20   10   11 1
    21   11   12 1
    22   11   13 1
    23   11   15 1
    24   13   14 2
    25   15   16 am
    26   15   39 1
    27   16   17 2
    28   16   18 am
    29   18   19 1
    30   18   40 1
    31   19   20 1
    32   19   41 1
    33   19   42 1
    34   20   25 ar
    35   20   21 ar
    36   21   22 ar
    37   21   43 1
    38   22   23 ar
    39   22   44 1
    40   23   24 ar
    41   23   45 1
    42   24   25 ar
    43   24   46 1
    44   25   47 1
    45   26   31 ar
    46   26   27 ar
    47   27   28 ar
    48   27   48 1
    49   28   29 ar
    50   28   49 1
    51   29   30 ar
    52   29   50 1
    53   30   31 ar
    54   30   51 1
    55   31   52 1
@<TRIPOS>MOLECULE
ZINC13732834
   51    54     0     0     0
SMALL
USER_CHARGES
1-[(3S)-1-methyl-2-oxo-5-phenyl-3H-1,4-benzodiazepin-3-yl]-3-(4-nitrophenyl)urea
@<TRIPOS>ATOM
      1 C1          2.4169    6.7546    2.9165 C.3       1 <0>         0.0581
      2 N1          1.8803    6.2303    1.6582 N.am      1 <0>        -0.5511
      3 C2          2.7189    5.4426    0.8851 C.ar      1 <0>         0.1678
      4 C3          4.0547    5.8367    0.7824 C.ar      1 <0>        -0.1445
      5 C4          4.9481    5.1025    0.0343 C.ar      1 <0>        -0.0713
      6 C5          4.5272    3.9601   -0.6265 C.ar      1 <0>        -0.1293
      7 C6          3.2150    3.5574   -0.5380 C.ar      1 <0>        -0.0609
      8 C7          2.2918    4.2951    0.2259 C.ar      1 <0>        -0.1394
      9 C8          0.9041    3.8081    0.2679 C.2       1 <0>         0.2926
     10 N2         -0.1399    4.5570    0.2171 N.2       1 <0>        -0.5040
     11 C9         -0.0418    6.0121    0.1096 C.3       1 <0>         0.3083
     12 H1         -1.0404    6.4396    0.0191 H         1 <0>         0.1668
     13 C10         0.6256    6.5481    1.3466 C.2       1 <0>         0.5019
     14 O1          0.0047    7.2892    2.0789 O.2       1 <0>        -0.4959
     15 N3          0.7515    6.3645   -1.0706 N.am      1 <0>        -0.7422
     16 C11         0.1418    6.8368   -2.1759 C.2       1 <0>         0.7147
     17 O2         -1.0665    6.9704   -2.1936 O.2       1 <0>        -0.5493
     18 N4          0.8716    7.1610   -3.2616 N.am      1 <0>        -0.6818
     19 C12         0.2511    7.7398   -4.3745 C.ar      1 <0>         0.2181
     20 C13        -1.0304    7.3482   -4.7386 C.ar      1 <0>        -0.1200
     21 C14        -1.6419    7.9248   -5.8346 C.ar      1 <0>        -0.0312
     22 C15        -0.9752    8.8835   -6.5753 C.ar      1 <0>        -0.0625
     23 C16         0.3030    9.2718   -6.2184 C.ar      1 <0>        -0.0314
     24 C17         0.9179    8.7028   -5.1204 C.ar      1 <0>        -0.1459
     25 N5         -1.6315    9.4957   -7.7524 N.pl3     1 <0>         0.0302
     26 O3         -1.0456   10.3405   -8.4055 O.2       1 <0>        -0.1617
     27 O4         -2.7574    9.1546   -8.0679 O.3       1 <0>        -0.1596
     28 C18         0.6939    2.3462    0.3832 C.ar      1 <0>        -0.0765
     29 C19         1.6929    1.5355    0.9219 C.ar      1 <0>        -0.0869
     30 C20         1.4911    0.1746    1.0271 C.ar      1 <0>        -0.1260
     31 C21         0.3008   -0.3861    0.5995 C.ar      1 <0>        -0.0954
     32 C22        -0.6940    0.4128    0.0647 C.ar      1 <0>        -0.1265
     33 C23        -0.5039    1.7750   -0.0461 C.ar      1 <0>        -0.0647
     34 H2          1.6541    7.3520    3.4159 H         1 <0>         0.1025
     35 H3          2.7083    5.9251    3.5609 H         1 <0>         0.0749
     36 H4          3.2875    7.3767    2.7091 H         1 <0>         0.0751
     37 H5          4.3906    6.7260    1.2951 H         1 <0>         0.1377
     38 H6          5.9784    5.4181   -0.0377 H         1 <0>         0.1380
     39 H7          5.2298    3.3854   -1.2118 H         1 <0>         0.1377
     40 H8          2.8922    2.6660   -1.0553 H         1 <0>         0.1394
     41 H9          1.7155    6.2579   -1.0565 H         1 <0>         0.3998
     42 H10         1.8269    6.9931   -3.2717 H         1 <0>         0.4143
     43 H11        -1.5499    6.5963   -4.1631 H         1 <0>         0.1637
     44 H12        -2.6400    7.6234   -6.1161 H         1 <0>         0.1587
     45 H13         0.8212   10.0206   -6.7991 H         1 <0>         0.1592
     46 H14         1.9165    9.0063   -4.8424 H         1 <0>         0.1507
     47 H15         2.6207    1.9727    1.2601 H         1 <0>         0.1275
     48 H16         2.2640   -0.4542    1.4437 H         1 <0>         0.1288
     49 H17         0.1474   -1.4518    0.6839 H         1 <0>         0.1271
     50 H18        -1.6213   -0.0306   -0.2670 H         1 <0>         0.1293
     51 H19        -1.2809    2.3976   -0.4644 H         1 <0>         0.1349
@<TRIPOS>BOND
     1    1    2 1
     2    1   34 1
     3    1   35 1
     4    1   36 1
     5    2   13 am
     6    2    3 1
     7    3    8 ar
     8    3    4 ar
     9    4    5 ar
    10    4   37 1
    11    5    6 ar
    12    5   38 1
    13    6    7 ar
    14    6   39 1
    15    7    8 ar
    16    7   40 1
    17    8    9 1
    18    9   10 2
    19    9   28 1
    20   10   11 1
    21   11   12 1
    22   11   13 1
    23   11   15 1
    24   13   14 2
    25   15   16 am
    26   15   41 1
    27   16   17 2
    28   16   18 am
    29   18   19 1
    30   18   42 1
    31   19   24 ar
    32   19   20 ar
    33   20   21 ar
    34   20   43 1
    35   21   22 ar
    36   21   44 1
    37   22   23 ar
    38   22   25 1
    39   23   24 ar
    40   23   45 1
    41   24   46 1
    42   25   26 2
    43   25   27 1
    44   28   33 ar
    45   28   29 ar
    46   29   30 ar
    47   29   47 1
    48   30   31 ar
    49   30   48 1
    50   31   32 ar
    51   31   49 1
    52   32   33 ar
    53   32   50 1
    54   33   51 1
@<TRIPOS>MOLECULE
ZINC27433245
   50    53     0     0     0
SMALL
USER_CHARGES
3-(3-cyanophenyl)-1-[(3S)-1-methyl-2-oxo-5-phenyl-3H-1,4-benzodiazepin-3-yl]urea
@<TRIPOS>ATOM
      1 C1         -0.0369   -0.0057    0.0374 C.3       1 <0>         0.0664
      2 N1         -0.0689    1.4589    0.0295 N.am      1 <0>        -0.5505
      3 C2          1.1458    2.1241   -0.0295 C.ar      1 <0>         0.1667
      4 C3          2.1968    1.6090    0.7323 C.ar      1 <0>        -0.1464
      5 C4          3.4337    2.2148    0.7229 C.ar      1 <0>        -0.0719
      6 C5          3.6475    3.3465   -0.0468 C.ar      1 <0>        -0.1296
      7 C6          2.6240    3.8682   -0.8032 C.ar      1 <0>        -0.0598
      8 C7          1.3577    3.2631   -0.8035 C.ar      1 <0>        -0.1354
      9 C8          0.3085    3.8770   -1.6323 C.2       1 <0>         0.2881
     10 N2         -0.9215    4.0105   -1.2821 N.2       1 <0>        -0.5023
     11 C9         -1.4102    3.5424    0.0143 C.3       1 <0>         0.3085
     12 H1         -2.4610    3.8442    0.1359 H         1 <0>         0.1658
     13 C10        -1.2624    2.0467    0.0742 C.2       1 <0>         0.5040
     14 O1         -2.2565    1.3586    0.1703 O.2       1 <0>        -0.4956
     15 N3         -0.6279    4.1625    1.0866 N.am      1 <0>        -0.7575
     16 C11        -1.1617    5.1587    1.8207 C.2       1 <0>         0.7155
     17 O2         -2.2927    5.5429    1.5931 O.2       1 <0>        -0.5612
     18 N4         -0.4420    5.7292    2.8071 N.am      1 <0>        -0.6952
     19 C12        -1.0332    6.6842    3.6424 C.ar      1 <0>         0.1718
     20 C13        -0.2787    7.7464    4.1263 C.ar      1 <0>        -0.1175
     21 C14        -0.8588    8.6954    4.9469 C.ar      1 <0>        -0.0971
     22 C15        -2.1886    8.5886    5.3006 C.ar      1 <0>        -0.0881
     23 C16        -2.9539    7.5221    4.8244 C.ar      1 <0>        -0.0051
     24 C17        -2.3692    6.5674    3.9913 C.ar      1 <0>        -0.0763
     25 C18        -4.3338    7.4083    5.1900 C.1       1 <0>         0.2522
     26 N5         -5.4284    7.3181    5.4800 N.1       1 <0>        -0.4091
     27 C19         0.6982    4.3786   -2.9707 C.ar      1 <0>        -0.0741
     28 C20        -0.0447    5.3871   -3.5841 C.ar      1 <0>        -0.0656
     29 C21         0.3256    5.8528   -4.8291 C.ar      1 <0>        -0.1265
     30 C22         1.4258    5.3151   -5.4728 C.ar      1 <0>        -0.0971
     31 C23         2.1639    4.3113   -4.8715 C.ar      1 <0>        -0.1262
     32 C24         1.8061    3.8403   -3.6249 C.ar      1 <0>        -0.0876
     33 H2          1.0071   -0.3498   -0.0028 H         1 <0>         0.0894
     34 H3         -0.5833   -0.3891   -0.8369 H         1 <0>         0.0765
     35 H4         -0.5105   -0.3778    0.9578 H         1 <0>         0.0778
     36 H5          2.0380    0.7271    1.3351 H         1 <0>         0.1375
     37 H6          4.2384    1.8066    1.3164 H         1 <0>         0.1374
     38 H7          4.6182    3.8197   -0.0527 H         1 <0>         0.1369
     39 H8          2.7962    4.7504   -1.4019 H         1 <0>         0.1385
     40 H9          0.3952    3.8150    1.2926 H         1 <0>         0.4152
     41 H10         0.6100    5.4443    2.9558 H         1 <0>         0.4321
     42 H11         0.7636    7.8329    3.8570 H         1 <0>         0.1340
     43 H12        -0.2684    9.5209    5.3161 H         1 <0>         0.1394
     44 H13        -2.6370    9.3295    5.9458 H         1 <0>         0.1352
     45 H14        -2.9560    5.7404    3.6196 H         1 <0>         0.1427
     46 H15        -0.9062    5.8048   -3.0844 H         1 <0>         0.1342
     47 H16        -0.2469    6.6360   -5.3036 H         1 <0>         0.1285
     48 H17         1.7095    5.6803   -6.4488 H         1 <0>         0.1263
     49 H18         3.0216    3.8952   -5.3791 H         1 <0>         0.1281
     50 H19         2.3826    3.0561   -3.1568 H         1 <0>         0.1270
@<TRIPOS>BOND
     1    1    2 1
     2    1   33 1
     3    1   34 1
     4    1   35 1
     5    2   13 am
     6    2    3 1
     7    3    8 ar
     8    3    4 ar
     9    4    5 ar
    10    4   36 1
    11    5    6 ar
    12    5   37 1
    13    6    7 ar
    14    6   38 1
    15    7    8 ar
    16    7   39 1
    17    8    9 1
    18    9   10 2
    19    9   27 1
    20   10   11 1
    21   11   12 1
    22   11   13 1
    23   11   15 1
    24   13   14 2
    25   15   16 am
    26   15   40 1
    27   16   17 2
    28   16   18 am
    29   18   19 1
    30   18   41 1
    31   19   24 ar
    32   19   20 ar
    33   20   21 ar
    34   20   42 1
    35   21   22 ar
    36   21   43 1
    37   22   23 ar
    38   22   44 1
    39   23   24 ar
    40   23   25 1
    41   24   45 1
    42   25   26 3
    43   27   32 ar
    44   27   28 ar
    45   28   29 ar
    46   28   46 1
    47   29   30 ar
    48   29   47 1
    49   30   31 ar
    50   30   48 1
    51   31   32 ar
    52   31   49 1
    53   32   50 1
@<TRIPOS>MOLECULE
ZINC27522407
   52    56     0     0     0
SMALL
USER_CHARGES
2-[[(2R)-5-(2-fluorophenyl)-1-methyl-2,3-dihydro-1,4-benzodiazepin-2-yl]methyl]isoindoline-1,3-dione
@<TRIPOS>ATOM
      1 C1          1.4234    5.5562    0.5371 C.3       1 <0>         0.0040
      2 N1          0.0312    5.3260    0.1289 N.pl3     1 <0>        -0.4993
      3 C2         -0.3177    3.9893    0.2804 C.ar      1 <0>         0.1454
      4 C3          0.6519    3.0021    0.3665 C.ar      1 <0>        -0.1584
      5 C4          0.2772    1.6845    0.5448 C.ar      1 <0>        -0.0378
      6 C5         -1.0614    1.3420    0.6458 C.ar      1 <0>        -0.1254
      7 C6         -2.0387    2.3117    0.5549 C.ar      1 <0>        -0.0453
      8 C7         -1.6744    3.6429    0.3682 C.ar      1 <0>        -0.1615
      9 C8         -2.6963    4.7018    0.2401 C.2       1 <0>         0.4491
     10 N2         -2.6090    5.5423   -0.7585 N.pl3     1 <0>        -0.5609
     11 C9         -1.5571    5.3563   -1.7593 C.3       1 <0>         0.0569
     12 C10        -0.2031    5.8098   -1.2312 C.3       1 <0>         0.0558
     13 H1         -0.1884    6.9078   -1.1671 H         1 <0>         0.1243
     14 C11         0.8969    5.2729   -2.1492 C.3       1 <0>         0.0772
     15 N3          0.7398    5.8477   -3.4876 N.am      1 <0>        -0.5813
     16 C12         0.0998    5.2436   -4.5050 C.2       1 <0>         0.5744
     17 O1         -0.4316    4.1525   -4.4602 O.2       1 <0>        -0.4600
     18 C13         0.1489    6.1316   -5.6858 C.ar      1 <0>        -0.1505
     19 C14        -0.3293    6.0436   -6.9833 C.ar      1 <0>        -0.0382
     20 C15        -0.1003    7.0824   -7.8720 C.ar      1 <0>        -0.0892
     21 C16         0.6009    8.2047   -7.4724 C.ar      1 <0>        -0.0867
     22 C17         1.0855    8.3064   -6.1777 C.ar      1 <0>        -0.0385
     23 C18         0.8642    7.2757   -5.2784 C.ar      1 <0>        -0.1456
     24 C19         1.2214    7.0465   -3.8625 C.2       1 <0>         0.5748
     25 O2          1.8449    7.8125   -3.1558 O.2       1 <0>        -0.4494
     26 C20        -3.7979    4.8101    1.2234 C.ar      1 <0>        -0.1708
     27 C21        -3.8811    3.9082    2.2846 C.ar      1 <0>        -0.0195
     28 C22        -4.9093    4.0144    3.1977 C.ar      1 <0>        -0.1217
     29 C23        -5.8586    5.0129    3.0643 C.ar      1 <0>        -0.0229
     30 C24        -5.7843    5.9105    2.0158 C.ar      1 <0>        -0.1421
     31 C25        -4.7553    5.8193    1.0961 C.ar      1 <0>         0.1412
     32 F1         -4.6796    6.7002    0.0745 F         1 <0>        -0.1151
     33 H2          1.5715    5.1838    1.5615 H         1 <0>         0.0950
     34 H3          1.6419    6.6338    0.5035 H         1 <0>         0.0963
     35 H4          2.0992    5.0235   -0.1481 H         1 <0>         0.0571
     36 H5          1.6976    3.2626    0.2948 H         1 <0>         0.1481
     37 H6          1.0333    0.9158    0.6063 H         1 <0>         0.1463
     38 H7         -1.3418    0.3093    0.7919 H         1 <0>         0.1489
     39 H8         -3.0812    2.0402    0.6320 H         1 <0>         0.1471
     40 H9         -1.4892    4.2914   -2.0263 H         1 <0>         0.1257
     41 H10        -1.7970    5.9448   -2.6571 H         1 <0>         0.1286
     42 H11         1.8809    5.5511   -1.7439 H         1 <0>         0.1231
     43 H12         0.8217    4.1771   -2.2096 H         1 <0>         0.1120
     44 H13        -0.8783    5.1694   -7.3009 H         1 <0>         0.1453
     45 H14        -0.4726    7.0147   -8.8835 H         1 <0>         0.1486
     46 H15         0.7726    9.0077   -8.1739 H         1 <0>         0.1490
     47 H16         1.6326    9.1856   -5.8710 H         1 <0>         0.1464
     48 H17        -3.1419    3.1281    2.3907 H         1 <0>         0.1578
     49 H18        -4.9737    3.3166    4.0194 H         1 <0>         0.1577
     50 H19        -6.6613    5.0908    3.7826 H         1 <0>         0.1591
     51 H20        -6.5281    6.6873    1.9173 H         1 <0>         0.1616
     52 H21        -3.3211    6.3768   -0.8389 H         1 <0>         0.4636
@<TRIPOS>BOND
     1    1    2 1
     2    1   33 1
     3    1   34 1
     4    1   35 1
     5    2   12 1
     6    2    3 1
     7    3    8 ar
     8    3    4 ar
     9    4    5 ar
    10    4   36 1
    11    5    6 ar
    12    5   37 1
    13    6    7 ar
    14    6   38 1
    15    7    8 ar
    16    7   39 1
    17    8    9 1
    18    9   10 2
    19    9   26 1
    20   10   11 1
    21   10   52 1
    22   11   12 1
    23   11   40 1
    24   11   41 1
    25   12   13 1
    26   12   14 1
    27   14   15 1
    28   14   42 1
    29   14   43 1
    30   15   24 am
    31   15   16 am
    32   16   17 2
    33   16   18 1
    34   18   23 ar
    35   18   19 ar
    36   19   20 ar
    37   19   44 1
    38   20   21 ar
    39   20   45 1
    40   21   22 ar
    41   21   46 1
    42   22   23 ar
    43   22   47 1
    44   23   24 1
    45   24   25 2
    46   26   31 ar
    47   26   27 ar
    48   27   28 ar
    49   27   48 1
    50   28   29 ar
    51   28   49 1
    52   29   30 ar
    53   29   50 1
    54   30   31 ar
    55   30   51 1
    56   31   32 1
@<TRIPOS>MOLECULE
ZINC27522407
   51    55     0     0     0
SMALL
USER_CHARGES
2-[[(2R)-5-(2-fluorophenyl)-1-methyl-2,3-dihydro-1,4-benzodiazepin-2-yl]methyl]isoindoline-1,3-dione
@<TRIPOS>ATOM
      1 C1          1.4234    5.5562    0.5371 C.3       1 <0>         0.0114
      2 N1          0.0312    5.3260    0.1289 N.pl3     1 <0>        -0.4894
      3 C2         -0.3177    3.9893    0.2804 C.ar      1 <0>         0.1196
      4 C3          0.6519    3.0021    0.3665 C.ar      1 <0>        -0.1627
      5 C4          0.2772    1.6845    0.5448 C.ar      1 <0>        -0.0831
      6 C5         -1.0614    1.3420    0.6458 C.ar      1 <0>        -0.1326
      7 C6         -2.0387    2.3117    0.5549 C.ar      1 <0>        -0.0764
      8 C7         -1.6744    3.6429    0.3682 C.ar      1 <0>        -0.1066
      9 C8         -2.6963    4.7018    0.2401 C.2       1 <0>         0.2562
     10 N2         -2.6090    5.5423   -0.7585 N.2       1 <0>        -0.4733
     11 C9         -1.5571    5.3563   -1.7593 C.3       1 <0>         0.0374
     12 C10        -0.2031    5.8098   -1.2312 C.3       1 <0>         0.0710
     13 H1         -0.1884    6.9078   -1.1671 H         1 <0>         0.1072
     14 C11         0.8969    5.2729   -2.1492 C.3       1 <0>         0.0789
     15 N3          0.7398    5.8477   -3.4876 N.am      1 <0>        -0.5732
     16 C12         0.0998    5.2436   -4.5050 C.2       1 <0>         0.5730
     17 O1         -0.4316    4.1525   -4.4602 O.2       1 <0>        -0.4556
     18 C13         0.1489    6.1316   -5.6858 C.ar      1 <0>        -0.1412
     19 C14        -0.3293    6.0436   -6.9833 C.ar      1 <0>        -0.0427
     20 C15        -0.1003    7.0824   -7.8720 C.ar      1 <0>        -0.0933
     21 C16         0.6009    8.2047   -7.4724 C.ar      1 <0>        -0.0932
     22 C17         1.0855    8.3064   -6.1777 C.ar      1 <0>        -0.0426
     23 C18         0.8642    7.2757   -5.2784 C.ar      1 <0>        -0.1409
     24 C19         1.2214    7.0465   -3.8625 C.2       1 <0>         0.5750
     25 O2          1.8449    7.8125   -3.1558 O.2       1 <0>        -0.4568
     26 C20        -3.7979    4.8101    1.2234 C.ar      1 <0>        -0.0895
     27 C21        -3.8811    3.9082    2.2846 C.ar      1 <0>        -0.0665
     28 C22        -4.9093    4.0144    3.1977 C.ar      1 <0>        -0.1371
     29 C23        -5.8586    5.0129    3.0643 C.ar      1 <0>        -0.0734
     30 C24        -5.7843    5.9105    2.0158 C.ar      1 <0>        -0.1648
     31 C25        -4.7553    5.8193    1.0961 C.ar      1 <0>         0.1449
     32 F1         -4.6796    6.7002    0.0745 F         1 <0>        -0.1136
     33 H2          1.5715    5.1838    1.5615 H         1 <0>         0.0841
     34 H3          1.6419    6.6338    0.5035 H         1 <0>         0.0848
     35 H4          2.0992    5.0235   -0.1481 H         1 <0>         0.0443
     36 H5          1.6976    3.2626    0.2948 H         1 <0>         0.1308
     37 H6          1.0333    0.9158    0.6063 H         1 <0>         0.1280
     38 H7         -1.3418    0.3093    0.7919 H         1 <0>         0.1301
     39 H8         -3.0812    2.0402    0.6320 H         1 <0>         0.1337
     40 H9         -1.4892    4.2914   -2.0263 H         1 <0>         0.0692
     41 H10        -1.7970    5.9448   -2.6571 H         1 <0>         0.0913
     42 H11         1.8809    5.5511   -1.7439 H         1 <0>         0.1088
     43 H12         0.8217    4.1771   -2.2096 H         1 <0>         0.1040
     44 H13        -0.8783    5.1694   -7.3009 H         1 <0>         0.1436
     45 H14        -0.4726    7.0147   -8.8835 H         1 <0>         0.1447
     46 H15         0.7726    9.0077   -8.1739 H         1 <0>         0.1448
     47 H16         1.6326    9.1856   -5.8710 H         1 <0>         0.1439
     48 H17        -3.1419    3.1281    2.3907 H         1 <0>         0.1387
     49 H18        -4.9737    3.3166    4.0194 H         1 <0>         0.1343
     50 H19        -6.6613    5.0908    3.7826 H         1 <0>         0.1355
     51 H20        -6.5281    6.6873    1.9173 H         1 <0>         0.1393
@<TRIPOS>BOND
     1    1    2 1
     2    1   33 1
     3    1   34 1
     4    1   35 1
     5    2   12 1
     6    2    3 1
     7    3    8 ar
     8    3    4 ar
     9    4    5 ar
    10    4   36 1
    11    5    6 ar
    12    5   37 1
    13    6    7 ar
    14    6   38 1
    15    7    8 ar
    16    7   39 1
    17    8    9 1
    18    9   10 2
    19    9   26 1
    20   10   11 1
    21   11   12 1
    22   11   40 1
    23   11   41 1
    24   12   13 1
    25   12   14 1
    26   14   15 1
    27   14   42 1
    28   14   43 1
    29   15   24 am
    30   15   16 am
    31   16   17 2
    32   16   18 1
    33   18   23 ar
    34   18   19 ar
    35   19   20 ar
    36   19   44 1
    37   20   21 ar
    38   20   45 1
    39   21   22 ar
    40   21   46 1
    41   22   23 ar
    42   22   47 1
    43   23   24 1
    44   24   25 2
    45   26   31 ar
    46   26   27 ar
    47   27   28 ar
    48   27   48 1
    49   28   29 ar
    50   28   49 1
    51   29   30 ar
    52   29   50 1
    53   30   31 ar
    54   30   51 1
    55   31   32 1
@<TRIPOS>MOLECULE
ZINC27522409
   52    56     0     0     0
SMALL
USER_CHARGES
2-[[(2S)-5-(2-fluorophenyl)-1-methyl-2,3-dihydro-1,4-benzodiazepin-2-yl]methyl]isoindoline-1,3-dione
@<TRIPOS>ATOM
      1 C1          4.0938    3.0550    1.9677 C.3       1 <0>         0.0036
      2 N1          4.7486    4.3658    2.0726 N.pl3     1 <0>        -0.4985
      3 C2          6.0500    4.3094    1.5929 C.ar      1 <0>         0.1456
      4 C3          6.4589    3.2847    0.7529 C.ar      1 <0>        -0.1588
      5 C4          7.7717    3.2277    0.3272 C.ar      1 <0>        -0.0376
      6 C5          8.6845    4.1879    0.7327 C.ar      1 <0>        -0.1257
      7 C6          8.2914    5.2188    1.5612 C.ar      1 <0>        -0.0452
      8 C7          6.9688    5.2915    1.9915 C.ar      1 <0>        -0.1616
      9 C8          6.5099    6.3930    2.8624 C.2       1 <0>         0.4490
     10 N2          5.4181    7.0372    2.5385 N.pl3     1 <0>        -0.5612
     11 C9          4.7360    6.7041    1.2870 C.3       1 <0>         0.0572
     12 C10         3.9573    5.4015    1.4095 C.3       1 <0>         0.0553
     13 H1          3.0765    5.5638    2.0482 H         1 <0>         0.1243
     14 C11         3.5706    4.9166    0.0108 C.3       1 <0>         0.0769
     15 N3          2.6613    5.8847   -0.6075 N.am      1 <0>        -0.5811
     16 C12         3.0472    6.8639   -1.4453 C.2       1 <0>         0.5745
     17 O1          4.1869    7.0821   -1.8036 O.2       1 <0>        -0.4600
     18 C13         1.8517    7.6293   -1.8575 C.ar      1 <0>        -0.1505
     19 C14         1.6387    8.7194   -2.6860 C.ar      1 <0>        -0.0382
     20 C15         0.3533    9.2068   -2.8635 C.ar      1 <0>        -0.0893
     21 C16        -0.7164    8.6128   -2.2204 C.ar      1 <0>        -0.0868
     22 C17        -0.5185    7.5217   -1.3887 C.ar      1 <0>        -0.0385
     23 C18         0.7610    7.0239   -1.2014 C.ar      1 <0>        -0.1456
     24 C19         1.3306    5.9111   -0.4126 C.2       1 <0>         0.5749
     25 O2          0.7022    5.1481    0.2930 O.2       1 <0>        -0.4495
     26 C20         7.2703    6.7605    4.0785 C.ar      1 <0>        -0.1708
     27 C21         8.4301    6.0629    4.4173 C.ar      1 <0>        -0.0197
     28 C22         9.1366    6.4126    5.5489 C.ar      1 <0>        -0.1218
     29 C23         8.6932    7.4472    6.3545 C.ar      1 <0>        -0.0229
     30 C24         7.5424    8.1405    6.0295 C.ar      1 <0>        -0.1421
     31 C25         6.8267    7.8036    4.8950 C.ar      1 <0>         0.1413
     32 F1          5.7017    8.4810    4.5776 F         1 <0>        -0.1151
     33 H2          4.7089    2.2963    2.4737 H         1 <0>         0.0951
     34 H3          3.9790    2.7863    0.9072 H         1 <0>         0.0573
     35 H4          3.1032    3.1009    2.4437 H         1 <0>         0.0964
     36 H5          5.7526    2.5333    0.4320 H         1 <0>         0.1481
     37 H6          8.0890    2.4290   -0.3268 H         1 <0>         0.1462
     38 H7          9.7097    4.1292    0.3982 H         1 <0>         0.1489
     39 H8          9.0058    5.9659    1.8742 H         1 <0>         0.1472
     40 H9          4.0323    7.5088    1.0276 H         1 <0>         0.1286
     41 H10         5.4785    6.5930    0.4830 H         1 <0>         0.1257
     42 H11         4.4758    4.8178   -0.6063 H         1 <0>         0.1121
     43 H12         3.0701    3.9400    0.0866 H         1 <0>         0.1234
     44 H13         2.4701    9.1846   -3.1948 H         1 <0>         0.1453
     45 H14         0.1863   10.0564   -3.5090 H         1 <0>         0.1486
     46 H15        -1.7133    9.0017   -2.3667 H         1 <0>         0.1490
     47 H16        -1.3579    7.0618   -0.8885 H         1 <0>         0.1464
     48 H17         8.7758    5.2526    3.7926 H         1 <0>         0.1579
     49 H18        10.0364    5.8751    5.8093 H         1 <0>         0.1577
     50 H19         9.2489    7.7138    7.2414 H         1 <0>         0.1591
     51 H20         7.2014    8.9462    6.6626 H         1 <0>         0.1616
     52 H21         5.0229    7.8190    3.2038 H         1 <0>         0.4635
@<TRIPOS>BOND
     1    1    2 1
     2    1   33 1
     3    1   34 1
     4    1   35 1
     5    2   12 1
     6    2    3 1
     7    3    8 ar
     8    3    4 ar
     9    4    5 ar
    10    4   36 1
    11    5    6 ar
    12    5   37 1
    13    6    7 ar
    14    6   38 1
    15    7    8 ar
    16    7   39 1
    17    8    9 1
    18    9   10 2
    19    9   26 1
    20   10   11 1
    21   10   52 1
    22   11   12 1
    23   11   40 1
    24   11   41 1
    25   12   13 1
    26   12   14 1
    27   14   15 1
    28   14   42 1
    29   14   43 1
    30   15   24 am
    31   15   16 am
    32   16   17 2
    33   16   18 1
    34   18   23 ar
    35   18   19 ar
    36   19   20 ar
    37   19   44 1
    38   20   21 ar
    39   20   45 1
    40   21   22 ar
    41   21   46 1
    42   22   23 ar
    43   22   47 1
    44   23   24 1
    45   24   25 2
    46   26   31 ar
    47   26   27 ar
    48   27   28 ar
    49   27   48 1
    50   28   29 ar
    51   28   49 1
    52   29   30 ar
    53   29   50 1
    54   30   31 ar
    55   30   51 1
    56   31   32 1
@<TRIPOS>MOLECULE
ZINC27522409
   51    55     0     0     0
SMALL
USER_CHARGES
2-[[(2S)-5-(2-fluorophenyl)-1-methyl-2,3-dihydro-1,4-benzodiazepin-2-yl]methyl]isoindoline-1,3-dione
@<TRIPOS>ATOM
      1 C1          4.0938    3.0550    1.9677 C.3       1 <0>         0.0110
      2 N1          4.7486    4.3658    2.0726 N.pl3     1 <0>        -0.4885
      3 C2          6.0500    4.3094    1.5929 C.ar      1 <0>         0.1197
      4 C3          6.4589    3.2847    0.7529 C.ar      1 <0>        -0.1631
      5 C4          7.7717    3.2277    0.3272 C.ar      1 <0>        -0.0830
      6 C5          8.6845    4.1879    0.7327 C.ar      1 <0>        -0.1328
      7 C6          8.2914    5.2188    1.5612 C.ar      1 <0>        -0.0763
      8 C7          6.9688    5.2915    1.9915 C.ar      1 <0>        -0.1069
      9 C8          6.5099    6.3930    2.8624 C.2       1 <0>         0.2561
     10 N2          5.4181    7.0372    2.5385 N.2       1 <0>        -0.4735
     11 C9          4.7360    6.7041    1.2870 C.3       1 <0>         0.0377
     12 C10         3.9573    5.4015    1.4095 C.3       1 <0>         0.0706
     13 H1          3.0765    5.5638    2.0482 H         1 <0>         0.1072
     14 C11         3.5706    4.9166    0.0108 C.3       1 <0>         0.0786
     15 N3          2.6613    5.8847   -0.6075 N.am      1 <0>        -0.5731
     16 C12         3.0472    6.8639   -1.4453 C.2       1 <0>         0.5730
     17 O1          4.1869    7.0821   -1.8036 O.2       1 <0>        -0.4555
     18 C13         1.8517    7.6293   -1.8575 C.ar      1 <0>        -0.1413
     19 C14         1.6387    8.7194   -2.6860 C.ar      1 <0>        -0.0426
     20 C15         0.3533    9.2068   -2.8635 C.ar      1 <0>        -0.0933
     21 C16        -0.7164    8.6128   -2.2204 C.ar      1 <0>        -0.0932
     22 C17        -0.5185    7.5217   -1.3887 C.ar      1 <0>        -0.0426
     23 C18         0.7610    7.0239   -1.2014 C.ar      1 <0>        -0.1409
     24 C19         1.3306    5.9111   -0.4126 C.2       1 <0>         0.5750
     25 O2          0.7022    5.1481    0.2930 O.2       1 <0>        -0.4569
     26 C20         7.2703    6.7605    4.0785 C.ar      1 <0>        -0.0895
     27 C21         8.4301    6.0629    4.4173 C.ar      1 <0>        -0.0667
     28 C22         9.1366    6.4126    5.5489 C.ar      1 <0>        -0.1371
     29 C23         8.6932    7.4472    6.3545 C.ar      1 <0>        -0.0734
     30 C24         7.5424    8.1405    6.0295 C.ar      1 <0>        -0.1648
     31 C25         6.8267    7.8036    4.8950 C.ar      1 <0>         0.1449
     32 F1          5.7017    8.4810    4.5776 F         1 <0>        -0.1136
     33 H2          4.7089    2.2963    2.4737 H         1 <0>         0.0842
     34 H3          3.9790    2.7863    0.9072 H         1 <0>         0.0445
     35 H4          3.1032    3.1009    2.4437 H         1 <0>         0.0849
     36 H5          5.7526    2.5333    0.4320 H         1 <0>         0.1308
     37 H6          8.0890    2.4290   -0.3268 H         1 <0>         0.1279
     38 H7          9.7097    4.1292    0.3982 H         1 <0>         0.1301
     39 H8          9.0058    5.9659    1.8742 H         1 <0>         0.1338
     40 H9          4.0323    7.5088    1.0276 H         1 <0>         0.0914
     41 H10         5.4785    6.5930    0.4830 H         1 <0>         0.0691
     42 H11         4.4758    4.8178   -0.6063 H         1 <0>         0.1040
     43 H12         3.0701    3.9400    0.0866 H         1 <0>         0.1091
     44 H13         2.4701    9.1846   -3.1948 H         1 <0>         0.1436
     45 H14         0.1863   10.0564   -3.5090 H         1 <0>         0.1447
     46 H15        -1.7133    9.0017   -2.3667 H         1 <0>         0.1448
     47 H16        -1.3579    7.0618   -0.8885 H         1 <0>         0.1439
     48 H17         8.7758    5.2526    3.7926 H         1 <0>         0.1389
     49 H18        10.0364    5.8751    5.8093 H         1 <0>         0.1343
     50 H19         9.2489    7.7138    7.2414 H         1 <0>         0.1355
     51 H20         7.2014    8.9462    6.6626 H         1 <0>         0.1393
@<TRIPOS>BOND
     1    1    2 1
     2    1   33 1
     3    1   34 1
     4    1   35 1
     5    2   12 1
     6    2    3 1
     7    3    8 ar
     8    3    4 ar
     9    4    5 ar
    10    4   36 1
    11    5    6 ar
    12    5   37 1
    13    6    7 ar
    14    6   38 1
    15    7    8 ar
    16    7   39 1
    17    8    9 1
    18    9   10 2
    19    9   26 1
    20   10   11 1
    21   11   12 1
    22   11   40 1
    23   11   41 1
    24   12   13 1
    25   12   14 1
    26   14   15 1
    27   14   42 1
    28   14   43 1
    29   15   24 am
    30   15   16 am
    31   16   17 2
    32   16   18 1
    33   18   23 ar
    34   18   19 ar
    35   19   20 ar
    36   19   44 1
    37   20   21 ar
    38   20   45 1
    39   21   22 ar
    40   21   46 1
    41   22   23 ar
    42   22   47 1
    43   23   24 1
    44   24   25 2
    45   26   31 ar
    46   26   27 ar
    47   27   28 ar
    48   27   48 1
    49   28   29 ar
    50   28   49 1
    51   29   30 ar
    52   29   50 1
    53   30   31 ar
    54   30   51 1
    55   31   32 1
@<TRIPOS>MOLECULE
ZINC04534207
   92    94     0     0     0
SMALL
USER_CHARGES

@<TRIPOS>ATOM
      1 C1         -0.1679    0.5599    0.2732 C.3       1 <0>        -0.1918
      2 C2         -0.0129   -0.9581    0.1612 C.3       1 <0>         0.1389
      3 C3          0.7899   -1.4783    1.3553 C.3       1 <0>        -0.1851
      4 C4         -1.3958   -1.6127    0.1523 C.3       1 <0>        -0.1393
      5 O1          0.6737   -1.2787   -1.0504 O.3       1 <0>        -0.3635
      6 C5          1.9137   -0.7764   -1.2016 C.2       1 <0>         0.6587
      7 O2          2.3995   -0.0846   -0.3287 O.2       1 <0>        -0.5340
      8 N1          2.6160   -1.0407   -2.3211 N.am      1 <0>        -0.6956
      9 C6          3.9652   -0.4941   -2.4856 C.3       1 <0>         0.1652
     10 H1          4.3717   -0.8126   -3.4455 H         1 <0>         0.1140
     11 C7          3.9055    1.0340   -2.4389 C.3       1 <0>        -0.0641
     12 C8          3.1223    1.5426   -3.6218 C.2       1 <0>        -0.1621
     13 C9          3.6259    1.9479   -4.7982 C.2       1 <0>         0.0541
     14 N2          2.6123    2.3414   -5.6289 N.pl3     1 <0>        -0.5955
     15 H2          2.7297    2.6739   -6.5326 H         1 <0>         0.4148
     16 C10         1.4008    2.1951   -4.9911 C.ar      1 <0>         0.0937
     17 C11         1.6667    1.6823   -3.7080 C.ar      1 <0>        -0.0928
     18 C12         0.6134    1.4247   -2.8289 C.ar      1 <0>        -0.0721
     19 C13        -0.6727    1.6690   -3.2210 C.ar      1 <0>        -0.1480
     20 C14        -0.9405    2.1710   -4.4869 C.ar      1 <0>        -0.0987
     21 C15         0.0846    2.4411   -5.3672 C.ar      1 <0>        -0.1343
     22 C16         4.8497   -0.9965   -1.3738 C.2       1 <0>         0.5007
     23 O3          4.3558   -1.4216   -0.3510 O.2       1 <0>        -0.5014
     24 N3          6.1898   -0.9734   -1.5161 N.am      1 <0>        -0.7065
     25 C17         7.0497   -1.4618   -0.4353 C.3       1 <0>         0.1383
     26 H3          6.5971   -1.2201    0.5264 H         1 <0>         0.1175
     27 C18         7.2099   -2.9785   -0.5568 C.3       1 <0>        -0.1054
     28 C19         5.8554   -3.6540   -0.3330 C.3       1 <0>        -0.0657
     29 S1          6.0453   -5.4522   -0.4771 S.3       1 <0>        -0.2781
     30 C20         4.3734   -6.0945   -0.1895 C.3       1 <0>        -0.1156
     31 C21         8.4022   -0.8043   -0.5334 C.2       1 <0>         0.5311
     32 O4          8.6258   -0.0064   -1.4189 O.2       1 <0>        -0.5436
     33 N4          9.3633   -1.1031    0.3630 N.am      1 <0>        -0.6740
     34 C22        10.7097   -0.5476    0.2058 C.3       1 <0>         0.1606
     35 H4         10.6395    0.4794   -0.1525 H         1 <0>         0.1171
     36 C23        11.4309   -0.5687    1.5551 C.3       1 <0>        -0.1901
     37 C24        10.7368    0.3676    2.5103 C.2       1 <0>         0.4928
     38 O5          9.8198    1.0690    2.1183 O.co2     1 <0>        -0.6819
     39 O6         11.0922    0.4237    3.6753 O.co2     1 <0>        -0.6976
     40 C25        11.4816   -1.3752   -0.7893 C.2       1 <0>         0.5180
     41 O7         10.9585   -2.3346   -1.3155 O.2       1 <0>        -0.5367
     42 N5         12.7532   -1.0492   -1.0946 N.am      1 <0>        -0.7073
     43 C26        13.5036   -1.8537   -2.0621 C.3       1 <0>         0.1368
     44 H5         12.8281   -2.2102   -2.8397 H         1 <0>         0.1150
     45 C27        14.6025   -0.9973   -2.6943 C.3       1 <0>        -0.0831
     46 C28        13.9747    0.1112   -3.4994 C.ar      1 <0>        -0.0843
     47 C29        13.6753   -0.0880   -4.8342 C.ar      1 <0>        -0.1153
     48 C30        13.0995    0.9288   -5.5726 C.ar      1 <0>        -0.1194
     49 C31        12.8226    2.1447   -4.9763 C.ar      1 <0>        -0.1197
     50 C32        13.1211    2.3437   -3.6413 C.ar      1 <0>        -0.1117
     51 C33        13.6930    1.3255   -2.9017 C.ar      1 <0>        -0.1062
     52 C34        14.1269   -3.0321   -1.3593 C.2       1 <0>         0.5029
     53 O8         13.9608   -3.1848   -0.1677 O.2       1 <0>        -0.5185
     54 N6         14.8691   -3.9162   -2.0550 N.am      1 <0>        -0.8573
     55 H6          0.8173    1.0262    0.2796 H         1 <0>         0.0907
     56 H7         -0.7398    0.9305   -0.5775 H         1 <0>         0.0609
     57 H8         -0.6916    0.8044    1.1973 H         1 <0>         0.0681
     58 H9          0.2662   -1.2338    2.2794 H         1 <0>         0.0639
     59 H10         0.9003   -2.5598    1.2755 H         1 <0>         0.0550
     60 H11         1.7751   -1.0120    1.3617 H         1 <0>         0.0967
     61 H12        -1.9677   -1.2421   -0.6984 H         1 <0>         0.0643
     62 H13        -1.2853   -2.6941    0.0725 H         1 <0>         0.0640
     63 H14        -1.9195   -1.3681    1.0764 H         1 <0>         0.0774
     64 H15         2.2281   -1.5929   -3.0179 H         1 <0>         0.4064
     65 H16         3.4177    1.3506   -1.5170 H         1 <0>         0.1042
     66 H17         4.9172    1.4383   -2.4721 H         1 <0>         0.0897
     67 H18         4.6757    1.9618   -5.0514 H         1 <0>         0.1720
     68 H19         0.8142    1.0335   -1.8425 H         1 <0>         0.1271
     69 H20        -1.4873    1.4696   -2.5405 H         1 <0>         0.1177
     70 H21        -1.9623    2.3582   -4.7826 H         1 <0>         0.1218
     71 H22        -0.1341    2.8304   -6.3506 H         1 <0>         0.1165
     72 H23         6.5848   -0.6334   -2.3342 H         1 <0>         0.4080
     73 H24         7.5794   -3.2263   -1.5519 H         1 <0>         0.0816
     74 H25         7.9194   -3.3301    0.1922 H         1 <0>         0.0876
     75 H26         5.4859   -3.4062    0.6620 H         1 <0>         0.0884
     76 H27         5.1459   -3.3024   -1.0821 H         1 <0>         0.0833
     77 H28         4.3856   -7.1824   -0.2566 H         1 <0>         0.0972
     78 H29         4.0350   -5.7955    0.8026 H         1 <0>         0.0746
     79 H30         3.6951   -5.6917   -0.9415 H         1 <0>         0.0719
     80 H31         9.1635   -1.6860    1.1122 H         1 <0>         0.4027
     81 H32        11.4133   -1.5803    1.9606 H         1 <0>         0.0710
     82 H33        12.4642   -0.2494    1.4198 H         1 <0>         0.0772
     83 H34        13.1716   -0.2819   -0.6738 H         1 <0>         0.4039
     84 H35        15.2256   -0.5684   -1.9096 H         1 <0>         0.0869
     85 H36        15.2163   -1.6178   -3.3472 H         1 <0>         0.0913
     86 H37        13.8917   -1.0380   -5.3001 H         1 <0>         0.1199
     87 H38        12.8662    0.7733   -6.6156 H         1 <0>         0.1195
     88 H39        12.3733    2.9394   -5.5534 H         1 <0>         0.1196
     89 H40        12.9050    3.2938   -3.1754 H         1 <0>         0.1238
     90 H41        13.9228    1.4797   -1.8578 H         1 <0>         0.1220
     91 H42        15.0020   -3.7941   -3.0080 H         1 <0>         0.3983
     92 H43        15.2703   -4.6747   -1.6026 H         1 <0>         0.4008
@<TRIPOS>BOND
     1    1    2 1
     2    1   55 1
     3    1   56 1
     4    1   57 1
     5    2    3 1
     6    2    4 1
     7    2    5 1
     8    3   58 1
     9    3   59 1
    10    3   60 1
    11    4   61 1
    12    4   62 1
    13    4   63 1
    14    5    6 1
    15    6    7 2
    16    6    8 am
    17    8    9 1
    18    8   64 1
    19    9   10 1
    20    9   11 1
    21    9   22 1
    22   11   12 1
    23   11   65 1
    24   11   66 1
    25   12   17 1
    26   12   13 2
    27   13   14 1
    28   13   67 1
    29   14   15 1
    30   14   16 1
    31   16   21 ar
    32   16   17 ar
    33   17   18 ar
    34   18   19 ar
    35   18   68 1
    36   19   20 ar
    37   19   69 1
    38   20   21 ar
    39   20   70 1
    40   21   71 1
    41   22   23 2
    42   22   24 am
    43   24   25 1
    44   24   72 1
    45   25   26 1
    46   25   27 1
    47   25   31 1
    48   27   28 1
    49   27   73 1
    50   27   74 1
    51   28   29 1
    52   28   75 1
    53   28   76 1
    54   29   30 1
    55   30   77 1
    56   30   78 1
    57   30   79 1
    58   31   32 2
    59   31   33 am
    60   33   34 1
    61   33   80 1
    62   34   35 1
    63   34   36 1
    64   34   40 1
    65   36   37 1
    66   36   81 1
    67   36   82 1
    68   37   38 2
    69   37   39 1
    70   40   41 2
    71   40   42 am
    72   42   43 1
    73   42   83 1
    74   43   44 1
    75   43   45 1
    76   43   52 1
    77   45   46 1
    78   45   84 1
    79   45   85 1
    80   46   51 ar
    81   46   47 ar
    82   47   48 ar
    83   47   86 1
    84   48   49 ar
    85   48   87 1
    86   49   50 ar
    87   49   88 1
    88   50   51 ar
    89   50   89 1
    90   51   90 1
    91   52   53 2
    92   52   54 am
    93   54   91 1
    94   54   92 1
@<TRIPOS>MOLECULE
ZINC04534208
   92    94     0     0     0
SMALL
USER_CHARGES

@<TRIPOS>ATOM
      1 C1          0.3732    1.9587    0.7695 C.3       1 <0>        -0.1844
      2 C2          0.3144    0.4299    0.7776 C.3       1 <0>         0.1388
      3 C3          1.1462   -0.1064    1.9444 C.3       1 <0>        -0.1835
      4 C4         -1.1382   -0.0238    0.9359 C.3       1 <0>        -0.1401
      5 O1          0.8393   -0.0735   -0.4525 O.3       1 <0>        -0.3640
      6 C5          2.1160    0.2379   -0.7453 C.2       1 <0>         0.6583
      7 O2          2.7668    0.9184    0.0227 O.2       1 <0>        -0.5380
      8 N1          2.6722   -0.2053   -1.8901 N.am      1 <0>        -0.6943
      9 C6          4.0615    0.1335   -2.2087 C.3       1 <0>         0.1630
     10 H1          4.3331   -0.3098   -3.1667 H         1 <0>         0.1168
     11 C7          4.9828   -0.4109   -1.1152 C.3       1 <0>        -0.0590
     12 C8          4.9292   -1.9170   -1.1171 C.2       1 <0>        -0.1610
     13 C9          4.1431   -2.6889   -0.3503 C.2       1 <0>         0.0632
     14 N2          4.3704   -4.0091   -0.6295 N.pl3     1 <0>        -0.5959
     15 H2          3.9205   -4.7545   -0.2020 H         1 <0>         0.4141
     16 C10         5.3329   -4.1217   -1.6076 C.ar      1 <0>         0.0959
     17 C11         5.7207   -2.8160   -1.9605 C.ar      1 <0>        -0.1004
     18 C12         6.6907   -2.6195   -2.9449 C.ar      1 <0>        -0.0690
     19 C13         7.2569   -3.6981   -3.5642 C.ar      1 <0>        -0.1452
     20 C14         6.8750   -4.9879   -3.2227 C.ar      1 <0>        -0.0986
     21 C15         5.9261   -5.2049   -2.2473 C.ar      1 <0>        -0.1333
     22 C16         4.2075    1.6313   -2.2888 C.2       1 <0>         0.5015
     23 O3          3.3850    2.3499   -1.7615 O.2       1 <0>        -0.5031
     24 N3          5.2521    2.1723   -2.9466 N.am      1 <0>        -0.7061
     25 C17         5.3941    3.6283   -3.0245 C.3       1 <0>         0.1390
     26 H3          4.4075    4.0864   -3.0932 H         1 <0>         0.1157
     27 C18         6.1074    4.1390   -1.7710 C.3       1 <0>        -0.1062
     28 C19         5.2293    3.8830   -0.5445 C.3       1 <0>        -0.0647
     29 S1          6.0750    4.4885    0.9417 S.3       1 <0>        -0.2820
     30 C20         4.9180    4.1149    2.2879 C.3       1 <0>        -0.1122
     31 C21         6.2017    3.9896   -4.2444 C.2       1 <0>         0.5303
     32 O4          6.6178    3.1169   -4.9767 O.2       1 <0>        -0.5433
     33 N4          6.4617    5.2827   -4.5218 N.am      1 <0>        -0.6740
     34 C22         7.3356    5.6295   -5.6452 C.3       1 <0>         0.1607
     35 H4          7.1443    4.9516   -6.4771 H         1 <0>         0.1169
     36 C23         7.0549    7.0679   -6.0846 C.3       1 <0>        -0.1901
     37 C24         5.6573    7.1596   -6.6409 C.2       1 <0>         0.4931
     38 O5          4.9877    6.1498   -6.7763 O.co2     1 <0>        -0.6828
     39 O6          5.1963    8.2435   -6.9556 O.co2     1 <0>        -0.6976
     40 C25         8.7756    5.5067   -5.2181 C.2       1 <0>         0.5177
     41 O7          9.0453    5.1633   -4.0866 O.2       1 <0>        -0.5358
     42 N5          9.7637    5.7785   -6.0934 N.am      1 <0>        -0.7073
     43 C26        11.1635    5.6591   -5.6782 C.3       1 <0>         0.1367
     44 H5         11.2653    4.8300   -4.9779 H         1 <0>         0.1153
     45 C27        12.0394    5.4004   -6.9058 C.3       1 <0>        -0.0830
     46 C28        11.6851    4.0627   -7.5026 C.ar      1 <0>        -0.0845
     47 C29        12.3379    2.9211   -7.0767 C.ar      1 <0>        -0.1152
     48 C30        12.0129    1.6941   -7.6242 C.ar      1 <0>        -0.1189
     49 C31        11.0349    1.6087   -8.5973 C.ar      1 <0>        -0.1194
     50 C32        10.3814    2.7502   -9.0226 C.ar      1 <0>        -0.1119
     51 C33        10.7034    3.9766   -8.4721 C.ar      1 <0>        -0.1065
     52 C34        11.6001    6.9374   -5.0101 C.2       1 <0>         0.5030
     53 O8         10.8189    7.8576   -4.8924 O.2       1 <0>        -0.5189
     54 N6         12.8587    7.0581   -4.5434 N.am      1 <0>        -0.8572
     55 H6          1.4080    2.2819    0.6567 H         1 <0>         0.0954
     56 H7         -0.2194    2.3407   -0.0618 H         1 <0>         0.0577
     57 H8         -0.0272    2.3427    1.7078 H         1 <0>         0.0626
     58 H9          0.7459    0.2776    2.8827 H         1 <0>         0.0661
     59 H10         1.1043   -1.1955    1.9501 H         1 <0>         0.0539
     60 H11         2.1811    0.2168    1.8316 H         1 <0>         0.0894
     61 H12        -1.7308    0.3582    0.1046 H         1 <0>         0.0658
     62 H13        -1.1801   -1.1130    0.9416 H         1 <0>         0.0628
     63 H14        -1.5385    0.3601    1.8742 H         1 <0>         0.0773
     64 H15         2.1527   -0.7485   -2.5032 H         1 <0>         0.4083
     65 H16         6.0049   -0.0834   -1.3050 H         1 <0>         0.0863
     66 H17         4.6557   -0.0369   -0.1450 H         1 <0>         0.1018
     67 H18         3.4361   -2.3224    0.3792 H         1 <0>         0.1618
     68 H19         6.9923   -1.6186   -3.2164 H         1 <0>         0.1238
     69 H20         8.0074   -3.5456   -4.3258 H         1 <0>         0.1224
     70 H21         7.3310   -5.8303   -3.7215 H         1 <0>         0.1228
     71 H22         5.6347   -6.2124   -1.9894 H         1 <0>         0.1166
     72 H23         5.9100    1.5975   -3.3683 H         1 <0>         0.4086
     73 H24         7.0563    3.6154   -1.6542 H         1 <0>         0.0814
     74 H25         6.2924    5.2087   -1.8686 H         1 <0>         0.0859
     75 H26         4.2804    4.4066   -0.6614 H         1 <0>         0.0854
     76 H27         5.0444    2.8133   -0.4469 H         1 <0>         0.0929
     77 H28         5.3435    4.4464    3.2351 H         1 <0>         0.0939
     78 H29         3.9757    4.6336    2.1115 H         1 <0>         0.0728
     79 H30         4.7396    3.0403    2.3260 H         1 <0>         0.0753
     80 H31         6.0702    5.9837   -3.9775 H         1 <0>         0.4027
     81 H32         7.1492    7.7346   -5.2274 H         1 <0>         0.0711
     82 H33         7.7715    7.3597   -6.8524 H         1 <0>         0.0774
     83 H34         9.5480    6.0532   -6.9984 H         1 <0>         0.4038
     84 H35        11.8704    6.1840   -7.6443 H         1 <0>         0.0866
     85 H36        13.0885    5.3999   -6.6100 H         1 <0>         0.0913
     86 H37        13.1020    2.9878   -6.3164 H         1 <0>         0.1199
     87 H38        12.5234    0.8023   -7.2919 H         1 <0>         0.1198
     88 H39        10.7815    0.6501   -9.0256 H         1 <0>         0.1199
     89 H40         9.6175    2.6835   -9.7832 H         1 <0>         0.1236
     90 H41        10.1903    4.8679   -8.8016 H         1 <0>         0.1216
     91 H42        13.4835    6.3222   -4.6375 H         1 <0>         0.3984
     92 H43        13.1397    7.8809   -4.1133 H         1 <0>         0.4007
@<TRIPOS>BOND
     1    1    2 1
     2    1   55 1
     3    1   56 1
     4    1   57 1
     5    2    3 1
     6    2    4 1
     7    2    5 1
     8    3   58 1
     9    3   59 1
    10    3   60 1
    11    4   61 1
    12    4   62 1
    13    4   63 1
    14    5    6 1
    15    6    7 2
    16    6    8 am
    17    8    9 1
    18    8   64 1
    19    9   10 1
    20    9   11 1
    21    9   22 1
    22   11   12 1
    23   11   65 1
    24   11   66 1
    25   12   17 1
    26   12   13 2
    27   13   14 1
    28   13   67 1
    29   14   15 1
    30   14   16 1
    31   16   21 ar
    32   16   17 ar
    33   17   18 ar
    34   18   19 ar
    35   18   68 1
    36   19   20 ar
    37   19   69 1
    38   20   21 ar
    39   20   70 1
    40   21   71 1
    41   22   23 2
    42   22   24 am
    43   24   25 1
    44   24   72 1
    45   25   26 1
    46   25   27 1
    47   25   31 1
    48   27   28 1
    49   27   73 1
    50   27   74 1
    51   28   29 1
    52   28   75 1
    53   28   76 1
    54   29   30 1
    55   30   77 1
    56   30   78 1
    57   30   79 1
    58   31   32 2
    59   31   33 am
    60   33   34 1
    61   33   80 1
    62   34   35 1
    63   34   36 1
    64   34   40 1
    65   36   37 1
    66   36   81 1
    67   36   82 1
    68   37   38 2
    69   37   39 1
    70   40   41 2
    71   40   42 am
    72   42   43 1
    73   42   83 1
    74   43   44 1
    75   43   45 1
    76   43   52 1
    77   45   46 1
    78   45   84 1
    79   45   85 1
    80   46   51 ar
    81   46   47 ar
    82   47   48 ar
    83   47   86 1
    84   48   49 ar
    85   48   87 1
    86   49   50 ar
    87   49   88 1
    88   50   51 ar
    89   50   89 1
    90   51   90 1
    91   52   53 2
    92   52   54 am
    93   54   91 1
    94   54   92 1
@<TRIPOS>MOLECULE
ZINC04534209
   92    94     0     0     0
SMALL
USER_CHARGES

@<TRIPOS>ATOM
      1 C1         -0.2768    0.8340    0.3557 C.3       1 <0>        -0.1908
      2 C2         -0.1668   -0.6843    0.2022 C.3       1 <0>         0.1394
      3 C3          0.5980   -1.2633    1.3942 C.3       1 <0>        -0.1846
      4 C4         -1.5688   -1.2946    0.1507 C.3       1 <0>        -0.1401
      5 O1          0.5312   -0.9917   -1.0062 O.3       1 <0>        -0.3628
      6 C5          1.7886   -0.5243   -1.1216 C.2       1 <0>         0.6617
      7 O2          2.2799    0.1266   -0.2209 O.2       1 <0>        -0.5389
      8 N1          2.5024   -0.7786   -2.2362 N.am      1 <0>        -0.6944
      9 C6          3.8706   -0.2701   -2.3618 C.3       1 <0>         0.1637
     10 H1          4.2842   -0.5738   -3.3234 H         1 <0>         0.1153
     11 C7          3.8573    1.2572   -2.2717 C.3       1 <0>        -0.0624
     12 C8          3.1116    1.8236   -3.4525 C.2       1 <0>        -0.1639
     13 C9          3.6484    2.2463   -4.6079 C.2       1 <0>         0.0555
     14 N2          2.6625    2.6949   -5.4440 N.pl3     1 <0>        -0.5951
     15 H2          2.8063    3.0491   -6.3354 H         1 <0>         0.4152
     16 C10         1.4359    2.5686   -4.8314 C.ar      1 <0>         0.0937
     17 C11         1.6627    2.0113   -3.5594 C.ar      1 <0>        -0.0924
     18 C12         0.5864    1.7620   -2.7062 C.ar      1 <0>        -0.0726
     19 C13        -0.6844    2.0576   -3.1130 C.ar      1 <0>        -0.1479
     20 C14        -0.9138    2.6036   -4.3682 C.ar      1 <0>        -0.0989
     21 C15         0.1348    2.8664   -5.2226 C.ar      1 <0>        -0.1338
     22 C16         4.7191   -0.8315   -1.2501 C.2       1 <0>         0.5011
     23 O3          4.1940   -1.2699   -0.2486 O.2       1 <0>        -0.5034
     24 N3          6.0615   -0.8464   -1.3688 N.am      1 <0>        -0.7065
     25 C17         6.8864   -1.3922   -0.2881 C.3       1 <0>         0.1415
     26 H3          6.3686   -2.2317    0.1758 H         1 <0>         0.1135
     27 C18         7.1379   -0.3061    0.7598 C.3       1 <0>        -0.1115
     28 C19         5.8131    0.0831    1.4189 C.3       1 <0>        -0.0649
     29 S1          6.1113    1.3708    2.6613 S.3       1 <0>        -0.2741
     30 C20         4.4647    1.7156    3.3398 C.3       1 <0>        -0.1145
     31 C21         8.2033   -1.8627   -0.8499 C.2       1 <0>         0.5301
     32 O4          8.4304   -1.7530   -2.0362 O.2       1 <0>        -0.5445
     33 N4          9.1286   -2.4055   -0.0340 N.am      1 <0>        -0.6738
     34 C22        10.3645   -2.9583   -0.5935 C.3       1 <0>         0.1610
     35 H4         10.7041   -2.3293   -1.4164 H         1 <0>         0.1177
     36 C23        11.4412   -3.0022    0.4927 C.3       1 <0>        -0.1907
     37 C24        11.7980   -1.5968    0.9033 C.2       1 <0>         0.4937
     38 O5         11.3190   -0.6473    0.3071 O.co2     1 <0>        -0.6810
     39 O6         12.5658   -1.4094    1.8317 O.co2     1 <0>        -0.6970
     40 C25        10.1060   -4.3535   -1.1012 C.2       1 <0>         0.5174
     41 O7          8.9985   -4.8383   -1.0052 O.2       1 <0>        -0.5387
     42 N5         11.1056   -5.0625   -1.6620 N.am      1 <0>        -0.7070
     43 C26        10.8543   -6.4188   -2.1556 C.3       1 <0>         0.1363
     44 H5          9.8461   -6.4751   -2.5660 H         1 <0>         0.1146
     45 C27        11.8695   -6.7602   -3.2481 C.3       1 <0>        -0.0829
     46 C28        11.6527   -5.8575   -4.4352 C.ar      1 <0>        -0.0845
     47 C29        10.7826   -6.2350   -5.4408 C.ar      1 <0>        -0.1154
     48 C30        10.5837   -5.4069   -6.5297 C.ar      1 <0>        -0.1194
     49 C31        11.2546   -4.2011   -6.6127 C.ar      1 <0>        -0.1197
     50 C32        12.1240   -3.8232   -5.6066 C.ar      1 <0>        -0.1118
     51 C33        12.3197   -4.6493   -4.5156 C.ar      1 <0>        -0.1063
     52 C34        10.9898   -7.3999   -1.0197 C.2       1 <0>         0.5029
     53 O8         11.2687   -7.0050    0.0926 O.2       1 <0>        -0.5187
     54 N6         10.8009   -8.7160   -1.2399 N.am      1 <0>        -0.8571
     55 H6          0.7221    1.2688    0.3924 H         1 <0>         0.0900
     56 H7         -0.8216    1.2464   -0.4935 H         1 <0>         0.0610
     57 H8         -0.8092    1.0684    1.2774 H         1 <0>         0.0672
     58 H9          0.0656   -1.0289    2.3160 H         1 <0>         0.0627
     59 H10         0.6764   -2.3450    1.2850 H         1 <0>         0.0562
     60 H11         1.5968   -0.8285    1.4309 H         1 <0>         0.0955
     61 H12        -2.1137   -0.8822   -0.6985 H         1 <0>         0.0645
     62 H13        -1.4905   -2.3763    0.0414 H         1 <0>         0.0647
     63 H14        -2.1012   -1.0602    1.0725 H         1 <0>         0.0771
     64 H15         2.1102   -1.2983   -2.9553 H         1 <0>         0.4073
     65 H16         3.3631    1.5625   -1.3494 H         1 <0>         0.1033
     66 H17         4.8814    1.6303   -2.2758 H         1 <0>         0.0877
     67 H18         4.7025    2.2344   -4.8426 H         1 <0>         0.1723
     68 H19         0.7572    1.3366   -1.7283 H         1 <0>         0.1270
     69 H20        -1.5168    1.8645   -2.4525 H         1 <0>         0.1175
     70 H21        -1.9238    2.8312   -4.6756 H         1 <0>         0.1218
     71 H22        -0.0541    3.2902   -6.1978 H         1 <0>         0.1167
     72 H23         6.4815   -0.4958   -2.1698 H         1 <0>         0.4089
     73 H24         7.8235   -0.6845    1.5180 H         1 <0>         0.0885
     74 H25         7.5752    0.5687    0.2786 H         1 <0>         0.0851
     75 H26         5.1275    0.4615    0.6607 H         1 <0>         0.0920
     76 H27         5.3758   -0.7917    1.9000 H         1 <0>         0.0831
     77 H28         4.5415    2.4877    4.1053 H         1 <0>         0.0941
     78 H29         3.8074    2.0597    2.5413 H         1 <0>         0.0749
     79 H30         4.0557    0.8064    3.7806 H         1 <0>         0.0714
     80 H31         8.9763   -2.4300    0.9236 H         1 <0>         0.4028
     81 H32        11.0633   -3.5484    1.3570 H         1 <0>         0.0704
     82 H33        12.3280   -3.5038    0.1052 H         1 <0>         0.0770
     83 H34        11.9915   -4.6748   -1.7389 H         1 <0>         0.4042
     84 H35        12.8793   -6.6180   -2.8631 H         1 <0>         0.0871
     85 H36        11.7398   -7.7987   -3.5529 H         1 <0>         0.0913
     86 H37        10.2585   -7.1770   -5.3760 H         1 <0>         0.1198
     87 H38         9.9045   -5.7021   -7.3157 H         1 <0>         0.1196
     88 H39        11.0998   -3.5544   -7.4637 H         1 <0>         0.1198
     89 H40        12.6484   -2.8813   -5.6716 H         1 <0>         0.1240
     90 H41        12.9961   -4.3524   -3.7278 H         1 <0>         0.1221
     91 H42        10.5777   -9.0318   -2.1295 H         1 <0>         0.3984
     92 H43        10.8881   -9.3475   -0.5087 H         1 <0>         0.4008
@<TRIPOS>BOND
     1    1    2 1
     2    1   55 1
     3    1   56 1
     4    1   57 1
     5    2    3 1
     6    2    4 1
     7    2    5 1
     8    3   58 1
     9    3   59 1
    10    3   60 1
    11    4   61 1
    12    4   62 1
    13    4   63 1
    14    5    6 1
    15    6    7 2
    16    6    8 am
    17    8    9 1
    18    8   64 1
    19    9   10 1
    20    9   11 1
    21    9   22 1
    22   11   12 1
    23   11   65 1
    24   11   66 1
    25   12   17 1
    26   12   13 2
    27   13   14 1
    28   13   67 1
    29   14   15 1
    30   14   16 1
    31   16   21 ar
    32   16   17 ar
    33   17   18 ar
    34   18   19 ar
    35   18   68 1
    36   19   20 ar
    37   19   69 1
    38   20   21 ar
    39   20   70 1
    40   21   71 1
    41   22   23 2
    42   22   24 am
    43   24   25 1
    44   24   72 1
    45   25   26 1
    46   25   27 1
    47   25   31 1
    48   27   28 1
    49   27   73 1
    50   27   74 1
    51   28   29 1
    52   28   75 1
    53   28   76 1
    54   29   30 1
    55   30   77 1
    56   30   78 1
    57   30   79 1
    58   31   32 2
    59   31   33 am
    60   33   34 1
    61   33   80 1
    62   34   35 1
    63   34   36 1
    64   34   40 1
    65   36   37 1
    66   36   81 1
    67   36   82 1
    68   37   38 2
    69   37   39 1
    70   40   41 2
    71   40   42 am
    72   42   43 1
    73   42   83 1
    74   43   44 1
    75   43   45 1
    76   43   52 1
    77   45   46 1
    78   45   84 1
    79   45   85 1
    80   46   51 ar
    81   46   47 ar
    82   47   48 ar
    83   47   86 1
    84   48   49 ar
    85   48   87 1
    86   49   50 ar
    87   49   88 1
    88   50   51 ar
    89   50   89 1
    90   51   90 1
    91   52   53 2
    92   52   54 am
    93   54   91 1
    94   54   92 1
@<TRIPOS>MOLECULE
ZINC04534210
   92    94     0     0     0
SMALL
USER_CHARGES

@<TRIPOS>ATOM
      1 C1          0.1330    1.7815    0.6733 C.3       1 <0>        -0.1846
      2 C2          0.0802    0.2537    0.6116 C.3       1 <0>         0.1386
      3 C3          0.9089   -0.3320    1.7566 C.3       1 <0>        -0.1846
      4 C4         -1.3713   -0.2121    0.7424 C.3       1 <0>        -0.1396
      5 O1          0.6124   -0.1913   -0.6378 O.3       1 <0>        -0.3649
      6 C5          1.8892    0.1378   -0.9102 C.2       1 <0>         0.6556
      7 O2          2.5339    0.7851   -0.1091 O.2       1 <0>        -0.5338
      8 N1          2.4522   -0.2507   -2.0715 N.am      1 <0>        -0.6952
      9 C6          3.8414    0.1074   -2.3679 C.3       1 <0>         0.1636
     10 H1          4.1190   -0.2909   -3.3438 H         1 <0>         0.1160
     11 C7          4.7601   -0.4828   -1.2961 C.3       1 <0>        -0.0602
     12 C8          4.7124   -1.9874   -1.3668 C.2       1 <0>        -0.1601
     13 C9          3.9259   -2.7964   -0.6395 C.2       1 <0>         0.0618
     14 N2          4.1596   -4.1016   -0.9774 N.pl3     1 <0>        -0.5961
     15 H2          3.7107   -4.8674   -0.5863 H         1 <0>         0.4139
     16 C10         5.1268   -4.1660   -1.9552 C.ar      1 <0>         0.0956
     17 C11         5.5110   -2.8442   -2.2466 C.ar      1 <0>        -0.1006
     18 C12         6.4846   -2.5995   -3.2166 C.ar      1 <0>        -0.0686
     19 C13         7.0578   -3.6467   -3.8817 C.ar      1 <0>        -0.1453
     20 C14         6.6794   -4.9522   -3.6009 C.ar      1 <0>        -0.0985
     21 C15         5.7271   -5.2168   -2.6408 C.ar      1 <0>        -0.1339
     22 C16         3.9820    1.6078   -2.3792 C.2       1 <0>         0.5020
     23 O3          3.1544    2.2986   -1.8235 O.2       1 <0>        -0.5050
     24 N3          5.0274    2.1820   -3.0069 N.am      1 <0>        -0.7058
     25 C17         5.1640    3.6406   -3.0179 C.3       1 <0>         0.1410
     26 H3          4.8027    4.0465   -2.0730 H         1 <0>         0.1150
     27 C18         4.3417    4.2212   -4.1701 C.3       1 <0>        -0.1112
     28 C19         2.8557    3.9557   -3.9205 C.3       1 <0>        -0.0653
     29 S1          1.8807    4.6441   -5.2866 S.3       1 <0>        -0.2691
     30 C20         0.1662    4.2505   -4.8440 C.3       1 <0>        -0.1180
     31 C21         6.6141    4.0079   -3.2006 C.2       1 <0>         0.5300
     32 O4          7.4510    3.1371   -3.3109 O.2       1 <0>        -0.5423
     33 N4          6.9809    5.3041   -3.2416 N.am      1 <0>        -0.6741
     34 C22         8.3997    5.6620   -3.3136 C.3       1 <0>         0.1611
     35 H4          8.9203    4.9553   -3.9598 H         1 <0>         0.1179
     36 C23         8.5411    7.0745   -3.8842 C.3       1 <0>        -0.1906
     37 C24         8.0663    7.0884   -5.3144 C.2       1 <0>         0.4937
     38 O5          7.7492    6.0461   -5.8616 O.co2     1 <0>        -0.6810
     39 O6          7.9993    8.1420   -5.9242 O.co2     1 <0>        -0.6974
     40 C25         9.0001    5.6158   -1.9321 C.2       1 <0>         0.5171
     41 O7          8.3108    5.3137   -0.9811 O.2       1 <0>        -0.5376
     42 N5         10.3032    5.9102   -1.7535 N.am      1 <0>        -0.7071
     43 C26        10.8868    5.8653   -0.4106 C.3       1 <0>         0.1362
     44 H5         10.4245    5.0597    0.1598 H         1 <0>         0.1149
     45 C27        12.3926    5.6159   -0.5170 C.3       1 <0>        -0.0827
     46 C28        12.6351    4.2488   -1.1030 C.ar      1 <0>        -0.0849
     47 C29        12.7403    3.1493   -0.2718 C.ar      1 <0>        -0.1153
     48 C30        12.9628    1.8953   -0.8093 C.ar      1 <0>        -0.1190
     49 C31        13.0796    1.7408   -2.1781 C.ar      1 <0>        -0.1191
     50 C32        12.9735    2.8402   -3.0093 C.ar      1 <0>        -0.1117
     51 C33        12.7467    4.0935   -2.4721 C.ar      1 <0>        -0.1064
     52 C34        10.6433    7.1787    0.2872 C.2       1 <0>         0.5031
     53 O8         10.0415    8.0649   -0.2814 O.2       1 <0>        -0.5190
     54 N6         11.0944    7.3684    1.5430 N.am      1 <0>        -0.8572
     55 H6          1.1671    2.1133    0.5801 H         1 <0>         0.0964
     56 H7         -0.4574    2.1987   -0.1424 H         1 <0>         0.0559
     57 H8         -0.2729    2.1209    1.6262 H         1 <0>         0.0633
     58 H9          0.5030    0.0074    2.7095 H         1 <0>         0.0667
     59 H10         0.8713   -1.4205    1.7126 H         1 <0>         0.0542
     60 H11         1.9430   -0.0002    1.6633 H         1 <0>         0.0899
     61 H12        -1.9618    0.2051   -0.0733 H         1 <0>         0.0649
     62 H13        -1.4090   -1.3006    0.6984 H         1 <0>         0.0630
     63 H14        -1.7773    0.1273    1.6954 H         1 <0>         0.0775
     64 H15         1.9375   -0.7674   -2.7110 H         1 <0>         0.4073
     65 H16         5.7818   -0.1433   -1.4662 H         1 <0>         0.0887
     66 H17         4.4272   -0.1546   -0.3115 H         1 <0>         0.1019
     67 H18         3.2143   -2.4660    0.1027 H         1 <0>         0.1616
     68 H19         6.7835   -1.5862   -3.4409 H         1 <0>         0.1248
     69 H20         7.8110   -3.4569   -4.6321 H         1 <0>         0.1229
     70 H21         7.1409   -5.7692   -4.1355 H         1 <0>         0.1228
     71 H22         5.4385   -6.2361   -2.4303 H         1 <0>         0.1164
     72 H23         5.6893    1.6295   -3.4513 H         1 <0>         0.4094
     73 H24         4.5132    5.2957   -4.2335 H         1 <0>         0.0905
     74 H25         4.6430    3.7493   -5.1053 H         1 <0>         0.0860
     75 H26         2.6842    2.8811   -3.8572 H         1 <0>         0.0820
     76 H27         2.5544    4.4275   -2.9853 H         1 <0>         0.0857
     77 H28        -0.5043    4.6292   -5.6155 H         1 <0>         0.0974
     78 H29         0.0512    3.1698   -4.7612 H         1 <0>         0.0708
     79 H30        -0.0786    4.7162   -3.8893 H         1 <0>         0.0727
     80 H31         6.3055    6.0001   -3.2234 H         1 <0>         0.4023
     81 H32         7.9393    7.7664   -3.2948 H         1 <0>         0.0703
     82 H33         9.5870    7.3790   -3.8456 H         1 <0>         0.0770
     83 H34        10.8545    6.1518   -2.5141 H         1 <0>         0.4040
     84 H35        12.8415    6.3721   -1.1610 H         1 <0>         0.0869
     85 H36        12.8410    5.6707    0.4750 H         1 <0>         0.0911
     86 H37        12.6491    3.2700    0.7975 H         1 <0>         0.1196
     87 H38        13.0457    1.0363   -0.1599 H         1 <0>         0.1196
     88 H39        13.2541    0.7612   -2.5980 H         1 <0>         0.1200
     89 H40        13.0650    2.7195   -4.0786 H         1 <0>         0.1239
     90 H41        12.6601    4.9519   -3.1217 H         1 <0>         0.1218
     91 H42        11.5757    6.6596    1.9977 H         1 <0>         0.3985
     92 H43        10.9376    8.2138    1.9921 H         1 <0>         0.4006
@<TRIPOS>BOND
     1    1    2 1
     2    1   55 1
     3    1   56 1
     4    1   57 1
     5    2    3 1
     6    2    4 1
     7    2    5 1
     8    3   58 1
     9    3   59 1
    10    3   60 1
    11    4   61 1
    12    4   62 1
    13    4   63 1
    14    5    6 1
    15    6    7 2
    16    6    8 am
    17    8    9 1
    18    8   64 1
    19    9   10 1
    20    9   11 1
    21    9   22 1
    22   11   12 1
    23   11   65 1
    24   11   66 1
    25   12   17 1
    26   12   13 2
    27   13   14 1
    28   13   67 1
    29   14   15 1
    30   14   16 1
    31   16   21 ar
    32   16   17 ar
    33   17   18 ar
    34   18   19 ar
    35   18   68 1
    36   19   20 ar
    37   19   69 1
    38   20   21 ar
    39   20   70 1
    40   21   71 1
    41   22   23 2
    42   22   24 am
    43   24   25 1
    44   24   72 1
    45   25   26 1
    46   25   27 1
    47   25   31 1
    48   27   28 1
    49   27   73 1
    50   27   74 1
    51   28   29 1
    52   28   75 1
    53   28   76 1
    54   29   30 1
    55   30   77 1
    56   30   78 1
    57   30   79 1
    58   31   32 2
    59   31   33 am
    60   33   34 1
    61   33   80 1
    62   34   35 1
    63   34   36 1
    64   34   40 1
    65   36   37 1
    66   36   81 1
    67   36   82 1
    68   37   38 2
    69   37   39 1
    70   40   41 2
    71   40   42 am
    72   42   43 1
    73   42   83 1
    74   43   44 1
    75   43   45 1
    76   43   52 1
    77   45   46 1
    78   45   84 1
    79   45   85 1
    80   46   51 ar
    81   46   47 ar
    82   47   48 ar
    83   47   86 1
    84   48   49 ar
    85   48   87 1
    86   49   50 ar
    87   49   88 1
    88   50   51 ar
    89   50   89 1
    90   51   90 1
    91   52   53 2
    92   52   54 am
    93   54   91 1
    94   54   92 1
@<TRIPOS>MOLECULE
ZINC13732784
   49    52     0     0     0
SMALL
USER_CHARGES
3-(4-chlorophenyl)-1-[(3R)-1-methyl-2-oxo-5-phenyl-3H-1,4-benzodiazepin-3-yl]urea
@<TRIPOS>ATOM
      1 C1          5.6479    0.8113    2.7355 C.3       1 <0>         0.0620
      2 N1          4.9410    0.5686    1.4755 N.am      1 <0>        -0.5509
      3 C2          4.8646    1.6182    0.5733 C.ar      1 <0>         0.1684
      4 C3          6.0032    2.4109    0.4137 C.ar      1 <0>        -0.1475
      5 C4          6.0013    3.4750   -0.4608 C.ar      1 <0>        -0.0712
      6 C5          4.8635    3.7704   -1.1936 C.ar      1 <0>        -0.1300
      7 C6          3.7329    3.0004   -1.0498 C.ar      1 <0>        -0.0592
      8 C7          3.7194    1.9121   -0.1638 C.ar      1 <0>        -0.1381
      9 C8          2.4770    1.1306   -0.0624 C.2       1 <0>         0.2903
     10 N2          2.4198   -0.1503    0.0369 N.2       1 <0>        -0.5027
     11 C9          3.6251   -0.9779    0.0555 C.3       1 <0>         0.3086
     12 H1          3.3450   -2.0311    0.0778 H         1 <0>         0.1661
     13 C10         4.4219   -0.6424    1.2866 C.2       1 <0>         0.5012
     14 O1          4.5961   -1.4976    2.1287 O.2       1 <0>        -0.4963
     15 N3          4.4305   -0.7096   -1.1385 N.am      1 <0>        -0.7453
     16 C11         4.4663   -1.6075   -2.1430 C.2       1 <0>         0.7130
     17 O2          3.8302   -2.6402   -2.0582 O.2       1 <0>        -0.5534
     18 N4          5.2073   -1.3606   -3.2414 N.am      1 <0>        -0.6814
     19 C12         5.1627   -2.2418   -4.3284 C.ar      1 <0>         0.1690
     20 C13         6.2954   -2.4457   -5.1052 C.ar      1 <0>        -0.1344
     21 C14         6.2501   -3.3192   -6.1741 C.ar      1 <0>        -0.0884
     22 C15         5.0744   -3.9828   -6.4776 C.ar      1 <0>        -0.0508
     23 C16         3.9427   -3.7773   -5.7081 C.ar      1 <0>        -0.0875
     24 C17         3.9842   -2.9089   -4.6350 C.ar      1 <0>        -0.1073
     25 Cl1         5.0188   -5.0745   -7.8262 Cl        1 <0>        -0.0684
     26 C18         1.1963    1.8754   -0.0693 C.ar      1 <0>        -0.0747
     27 C19         1.1597    3.2089    0.3377 C.ar      1 <0>        -0.0872
     28 C20        -0.0369    3.8958    0.3336 C.ar      1 <0>        -0.1260
     29 C21        -1.1970    3.2676   -0.0829 C.ar      1 <0>        -0.0966
     30 C22        -1.1671    1.9450   -0.4877 C.ar      1 <0>        -0.1264
     31 C23         0.0225    1.2460   -0.4831 C.ar      1 <0>        -0.0652
     32 H2          4.9442    1.1803    3.4817 H         1 <0>         0.0707
     33 H3          6.0949   -0.1189    3.0863 H         1 <0>         0.0923
     34 H4          6.4305    1.5530    2.5761 H         1 <0>         0.0849
     35 H5          6.8943    2.1871    0.9815 H         1 <0>         0.1382
     36 H6          6.8886    4.0799   -0.5756 H         1 <0>         0.1376
     37 H7          4.8641    4.6059   -1.8779 H         1 <0>         0.1373
     38 H8          2.8483    3.2354   -1.6231 H         1 <0>         0.1388
     39 H9          4.9381    0.1143   -1.2061 H         1 <0>         0.3983
     40 H10         5.7715   -0.5725   -3.2788 H         1 <0>         0.4088
     41 H11         7.2121   -1.9247   -4.8715 H         1 <0>         0.1352
     42 H12         7.1319   -3.4810   -6.7764 H         1 <0>         0.1388
     43 H13         3.0264   -4.2967   -5.9468 H         1 <0>         0.1382
     44 H14         3.1006   -2.7486   -4.0350 H         1 <0>         0.1454
     45 H15         2.0654    3.7014    0.6595 H         1 <0>         0.1272
     46 H16        -0.0673    4.9273    0.6524 H         1 <0>         0.1284
     47 H17        -2.1306    3.8106   -0.0882 H         1 <0>         0.1267
     48 H18        -2.0767    1.4586   -0.8076 H         1 <0>         0.1289
     49 H19         0.0446    0.2134   -0.7990 H         1 <0>         0.1346
@<TRIPOS>BOND
     1    1    2 1
     2    1   32 1
     3    1   33 1
     4    1   34 1
     5    2   13 am
     6    2    3 1
     7    3    8 ar
     8    3    4 ar
     9    4    5 ar
    10    4   35 1
    11    5    6 ar
    12    5   36 1
    13    6    7 ar
    14    6   37 1
    15    7    8 ar
    16    7   38 1
    17    8    9 1
    18    9   10 2
    19    9   26 1
    20   10   11 1
    21   11   12 1
    22   11   13 1
    23   11   15 1
    24   13   14 2
    25   15   16 am
    26   15   39 1
    27   16   17 2
    28   16   18 am
    29   18   19 1
    30   18   40 1
    31   19   24 ar
    32   19   20 ar
    33   20   21 ar
    34   20   41 1
    35   21   22 ar
    36   21   42 1
    37   22   23 ar
    38   22   25 1
    39   23   24 ar
    40   23   43 1
    41   24   44 1
    42   26   31 ar
    43   26   27 ar
    44   27   28 ar
    45   27   45 1
    46   28   29 ar
    47   28   46 1
    48   29   30 ar
    49   29   47 1
    50   30   31 ar
    51   30   48 1
    52   31   49 1
@<TRIPOS>MOLECULE
ZINC00967961
   48    51     0     0     0
SMALL
USER_CHARGES
N-[[6-(2-fluorophenyl)-2-methyl-2,5-diazabicyclo[5.4.0]undeca-5,8,10,12-tetraen-3-yl]methyl]thiophene-3-carboxamide
@<TRIPOS>ATOM
      1 C1          0.4780   -2.0200    0.9728 C.3       1 <0>         0.0140
      2 N1          0.8295   -0.5987    0.8524 N.pl3     1 <0>        -0.4887
      3 C2          0.6300    0.0672    2.0555 C.ar      1 <0>         0.1220
      4 C3         -0.2090   -0.4516    3.0299 C.ar      1 <0>        -0.1594
      5 C4         -0.3719    0.2208    4.2255 C.ar      1 <0>        -0.0831
      6 C5          0.2974    1.4111    4.4595 C.ar      1 <0>        -0.1327
      7 C6          1.1294    1.9448    3.4969 C.ar      1 <0>        -0.0784
      8 C7          1.2951    1.2812    2.2838 C.ar      1 <0>        -0.1088
      9 C8          2.1419    1.8478    1.2141 C.2       1 <0>         0.2593
     10 N2          1.6539    1.9319    0.0031 N.2       1 <0>        -0.4770
     11 C9          0.2634    1.5423   -0.2360 C.3       1 <0>         0.0362
     12 C10         0.1072    0.0278   -0.2542 C.3       1 <0>         0.0768
     13 H1          0.4946   -0.3590   -1.1968 H         1 <0>         0.1045
     14 C11        -1.3778   -0.3231   -0.1427 C.3       1 <0>         0.0882
     15 N3         -2.0884    0.1803   -1.3208 N.am      1 <0>        -0.7235
     16 C12        -3.4302    0.0773   -1.3934 C.2       1 <0>         0.5761
     17 O1         -4.0513   -0.4335   -0.4808 O.2       1 <0>        -0.5337
     18 C13        -4.1441    0.5830   -2.5771 C.2       1 <0>        -0.1769
     19 C14        -5.5776    0.4844   -2.6905 C.2       1 <0>        -0.1113
     20 C15        -6.1397    0.9811   -3.8099 C.2       1 <0>        -0.1908
     21 S1         -4.7390    1.5774   -4.7345 S.3       1 <0>         0.1330
     22 C16        -3.4703    1.1672   -3.6296 C.2       1 <0>        -0.1745
     23 C17         3.5169    2.3122    1.5070 C.ar      1 <0>        -0.0907
     24 C18         4.0253    2.2236    2.8032 C.ar      1 <0>        -0.0665
     25 C19         5.3088    2.6525    3.0688 C.ar      1 <0>        -0.1370
     26 C20         6.0900    3.1811    2.0557 C.ar      1 <0>        -0.0729
     27 C21         5.5926    3.2780    0.7697 C.ar      1 <0>        -0.1650
     28 C22         4.3092    2.8464    0.4879 C.ar      1 <0>         0.1451
     29 F1          3.8230    2.9416   -0.7690 F         1 <0>        -0.1138
     30 H2          0.6447   -2.5177    0.0175 H         1 <0>         0.0804
     31 H3          1.1000   -2.4845    1.7379 H         1 <0>         0.0816
     32 H4         -0.5715   -2.1123    1.2524 H         1 <0>         0.0480
     33 H5         -0.7339   -1.3791    2.8546 H         1 <0>         0.1322
     34 H6         -1.0261   -0.1842    4.9834 H         1 <0>         0.1283
     35 H7          0.1673    1.9240    5.4010 H         1 <0>         0.1300
     36 H8          1.6493    2.8729    3.6831 H         1 <0>         0.1335
     37 H9         -0.0602    1.9458   -1.1955 H         1 <0>         0.0975
     38 H10        -0.3638    1.9561    0.5535 H         1 <0>         0.0622
     39 H11        -1.4920   -1.4055   -0.0844 H         1 <0>         0.0799
     40 H12        -1.7929    0.1349    0.7551 H         1 <0>         0.0754
     41 H13        -1.5931    0.5876   -2.0486 H         1 <0>         0.4004
     42 H14        -6.1753    0.0362   -1.9107 H         1 <0>         0.1496
     43 H15        -7.1844    1.0070   -4.0823 H         1 <0>         0.1926
     44 H16        -2.4082    1.3297   -3.7381 H         1 <0>         0.1899
     45 H17         3.4161    1.8160    3.5964 H         1 <0>         0.1389
     46 H18         5.7040    2.5802    4.0713 H         1 <0>         0.1344
     47 H19         7.0927    3.5197    2.2711 H         1 <0>         0.1356
     48 H20         6.2070    3.6917   -0.0163 H         1 <0>         0.1394
@<TRIPOS>BOND
     1    1    2 1
     2    1   30 1
     3    1   31 1
     4    1   32 1
     5    2   12 1
     6    2    3 1
     7    3    8 ar
     8    3    4 ar
     9    4    5 ar
    10    4   33 1
    11    5    6 ar
    12    5   34 1
    13    6    7 ar
    14    6   35 1
    15    7    8 ar
    16    7   36 1
    17    8    9 1
    18    9   10 2
    19    9   23 1
    20   10   11 1
    21   11   12 1
    22   11   37 1
    23   11   38 1
    24   12   13 1
    25   12   14 1
    26   14   15 1
    27   14   39 1
    28   14   40 1
    29   15   16 am
    30   15   41 1
    31   16   17 2
    32   16   18 1
    33   18   22 2
    34   18   19 1
    35   19   20 2
    36   19   42 1
    37   20   21 1
    38   20   43 1
    39   21   22 1
    40   22   44 1
    41   23   28 ar
    42   23   24 ar
    43   24   25 ar
    44   24   45 1
    45   25   26 ar
    46   25   46 1
    47   26   27 ar
    48   26   47 1
    49   27   28 ar
    50   27   48 1
    51   28   29 1
@<TRIPOS>MOLECULE
ZINC01532369
   48    51     0     0     0
SMALL
USER_CHARGES
N-[[6-(2-fluorophenyl)-2-methyl-2,5-diazabicyclo[5.4.0]undeca-5,8,10,12-tetraen-3-yl]methyl]thiophene-3-carboxamide
@<TRIPOS>ATOM
      1 C1          0.1112    6.1537   -2.9488 C.3       1 <0>         0.0191
      2 N1          0.7416    5.5385   -1.7731 N.pl3     1 <0>        -0.4961
      3 C2         -0.2053    5.2351   -0.8017 C.ar      1 <0>         0.1287
      4 C3         -1.4465    5.8523   -0.7941 C.ar      1 <0>        -0.1599
      5 C4         -2.3777    5.5111    0.1676 C.ar      1 <0>        -0.0836
      6 C5         -2.0804    4.5550    1.1252 C.ar      1 <0>        -0.1343
      7 C6         -0.8456    3.9398    1.1378 C.ar      1 <0>        -0.0774
      8 C7          0.1059    4.2816    0.1736 C.ar      1 <0>        -0.1100
      9 C8          1.4455    3.6605    0.1822 C.2       1 <0>         0.2579
     10 N2          2.4967    4.4336    0.0990 N.2       1 <0>        -0.4722
     11 C9          2.3148    5.8861    0.0961 C.3       1 <0>         0.0326
     12 C10         1.8204    6.3804   -1.2559 C.3       1 <0>         0.0786
     13 H1          1.4553    7.4020   -1.1499 H         1 <0>         0.0643
     14 C11         2.9839    6.3662   -2.2494 C.3       1 <0>         0.1304
     15 N3          3.9926    7.3440   -1.8341 N.am      1 <0>        -0.7251
     16 C12         5.0688    7.5740   -2.6122 C.2       1 <0>         0.5767
     17 O1          5.2024    6.9697   -3.6594 O.2       1 <0>        -0.5315
     18 C13         6.0823    8.5564   -2.1949 C.2       1 <0>        -0.1733
     19 C14         7.2452    8.8272   -3.0023 C.2       1 <0>        -0.1108
     20 C15         8.1157    9.7437   -2.5356 C.2       1 <0>        -0.1903
     21 S1          7.3774   10.2551   -0.9975 S.3       1 <0>         0.1285
     22 C16         5.9584    9.2629   -1.0166 C.2       1 <0>        -0.1762
     23 C17         1.5953    2.1905    0.2769 C.ar      1 <0>        -0.0910
     24 C18         0.4666    1.3753    0.3652 C.ar      1 <0>        -0.0667
     25 C19         0.6124    0.0067    0.4527 C.ar      1 <0>        -0.1374
     26 C20         1.8751   -0.5604    0.4528 C.ar      1 <0>        -0.0726
     27 C21         2.9990    0.2395    0.3662 C.ar      1 <0>        -0.1650
     28 C22         2.8676    1.6135    0.2783 C.ar      1 <0>         0.1457
     29 F1          3.9662    2.3953    0.1941 F         1 <0>        -0.1130
     30 H2          0.8279    6.1875   -3.7694 H         1 <0>         0.0821
     31 H3         -0.7552    5.5634   -3.2471 H         1 <0>         0.0812
     32 H4         -0.2068    7.1667   -2.7022 H         1 <0>         0.0414
     33 H5         -1.6849    6.5983   -1.5378 H         1 <0>         0.1307
     34 H6         -3.3441    5.9932    0.1732 H         1 <0>         0.1279
     35 H7         -2.8199    4.2895    1.8662 H         1 <0>         0.1298
     36 H8         -0.6180    3.1959    1.8869 H         1 <0>         0.1339
     37 H9          1.5880    6.1562    0.8622 H         1 <0>         0.0628
     38 H10         3.2669    6.3652    0.3246 H         1 <0>         0.0983
     39 H11         3.4296    5.3718   -2.2727 H         1 <0>         0.0852
     40 H12         2.6164    6.6230   -3.2430 H         1 <0>         0.0758
     41 H13         3.8861    7.8259   -0.9990 H         1 <0>         0.3963
     42 H14         7.4117    8.3177   -3.9399 H         1 <0>         0.1502
     43 H15         9.0368   10.0848   -2.9845 H         1 <0>         0.1924
     44 H16         5.1681    9.2089   -0.2824 H         1 <0>         0.1883
     45 H17        -0.5199    1.8150    0.3604 H         1 <0>         0.1386
     46 H18        -0.2613   -0.6245    0.5210 H         1 <0>         0.1342
     47 H19         1.9826   -1.6328    0.5213 H         1 <0>         0.1355
     48 H20         3.9814   -0.2091    0.3668 H         1 <0>         0.1393
@<TRIPOS>BOND
     1    1    2 1
     2    1   30 1
     3    1   31 1
     4    1   32 1
     5    2   12 1
     6    2    3 1
     7    3    8 ar
     8    3    4 ar
     9    4    5 ar
    10    4   33 1
    11    5    6 ar
    12    5   34 1
    13    6    7 ar
    14    6   35 1
    15    7    8 ar
    16    7   36 1
    17    8    9 1
    18    9   10 2
    19    9   23 1
    20   10   11 1
    21   11   12 1
    22   11   37 1
    23   11   38 1
    24   12   13 1
    25   12   14 1
    26   14   15 1
    27   14   39 1
    28   14   40 1
    29   15   16 am
    30   15   41 1
    31   16   17 2
    32   16   18 1
    33   18   22 2
    34   18   19 1
    35   19   20 2
    36   19   42 1
    37   20   21 1
    38   20   43 1
    39   21   22 1
    40   22   44 1
    41   23   28 ar
    42   23   24 ar
    43   24   25 ar
    44   24   45 1
    45   25   26 ar
    46   25   46 1
    47   26   27 ar
    48   26   47 1
    49   27   28 ar
    50   27   48 1
    51   28   29 1
@<TRIPOS>MOLECULE
ZINC01912542
   52    55     0     0     0
SMALL
USER_CHARGES

@<TRIPOS>ATOM
      1 C1         -0.7467    2.7587    0.9696 C.ar      1 <0>        -0.1334
      2 C2         -2.0022    2.2059    0.7992 C.ar      1 <0>        -0.1186
      3 C3         -3.0563    2.9989    0.3859 C.ar      1 <0>        -0.1155
      4 C4         -2.8573    4.3470    0.1533 C.ar      1 <0>        -0.0665
      5 C5         -1.6018    4.8998    0.3237 C.ar      1 <0>        -0.1179
      6 C6         -0.5465    4.1056    0.7318 C.ar      1 <0>        -0.1191
      7 C7         -4.0077    5.2126   -0.2921 C.3       1 <0>        -0.0771
      8 C8         -4.0822    5.2152   -1.8203 C.3       1 <0>         0.1111
      9 H1         -4.1446    4.1892   -2.1827 H         1 <0>         0.0910
     10 C9         -5.3036    5.9794   -2.2623 C.2       1 <0>         0.4581
     11 O1         -5.1840    6.9572   -2.9620 O.co2     1 <0>        -0.6236
     12 N1         -2.8823    5.8540   -2.3666 N.am      1 <0>        -0.6858
     13 C10        -2.4638    5.5491   -3.6109 C.2       1 <0>         0.5660
     14 O2         -3.0821    4.7440   -4.2801 O.2       1 <0>        -0.5519
     15 C11        -1.2557    6.1923   -4.1610 C.ar      1 <0>        -0.1428
     16 C12        -0.5626    7.1444   -3.4098 C.ar      1 <0>        -0.0698
     17 C13         0.5653    7.7417   -3.9292 C.ar      1 <0>        -0.1367
     18 C14         1.0173    7.4025   -5.1945 C.ar      1 <0>        -0.0840
     19 C15         0.3435    6.4633   -5.9485 C.ar      1 <0>        -0.1231
     20 C16        -0.7925    5.8472   -5.4395 C.ar      1 <0>         0.1975
     21 N2         -1.4703    4.8957   -6.1957 N.am      1 <0>        -0.6542
     22 C17        -1.6831    5.1060   -7.5098 C.2       1 <0>         0.5880
     23 O3         -1.1987    6.0789   -8.0564 O.2       1 <0>        -0.5113
     24 C18        -2.5004    4.1597   -8.2827 C.2       1 <0>         0.0222
     25 C19        -2.7849    4.2635   -9.6076 C.2       1 <0>        -0.1053
     26 C20        -3.5939    3.1572   -9.9627 C.ar      1 <0>        -0.1211
     27 C21        -4.1820    2.7418  -11.1646 C.ar      1 <0>        -0.0605
     28 C22        -4.9279    1.5997  -11.1960 C.ar      1 <0>        -0.1513
     29 C23        -5.1112    0.8425  -10.0456 C.ar      1 <0>        -0.0893
     30 C24        -4.5441    1.2301   -8.8524 C.ar      1 <0>        -0.1299
     31 C25        -3.7786    2.3915   -8.7950 C.ar      1 <0>         0.1169
     32 N3         -3.0970    3.0197   -7.7795 N.pl3     1 <0>        -0.5715
     33 H2         -3.0451    2.7139   -6.8605 H         1 <0>         0.4224
     34 H3          0.0778    2.1382    1.2881 H         1 <0>         0.1158
     35 H4         -2.1585    1.1534    0.9846 H         1 <0>         0.1180
     36 H5         -4.0362    2.5661    0.2485 H         1 <0>         0.1236
     37 H6         -1.4454    5.9521    0.1376 H         1 <0>         0.1162
     38 H7          0.4344    4.5375    0.8646 H         1 <0>         0.1175
     39 H8         -4.9383    4.8186    0.1164 H         1 <0>         0.0995
     40 H9         -3.8560    6.2309    0.0660 H         1 <0>         0.0725
     41 H10        -2.3890    6.4963   -1.8327 H         1 <0>         0.3907
     42 H11        -0.9101    7.4119   -2.4228 H         1 <0>         0.1289
     43 H12         1.1001    8.4776   -3.3471 H         1 <0>         0.1292
     44 H13         1.9025    7.8758   -5.5929 H         1 <0>         0.1294
     45 H14         0.7022    6.2041   -6.9337 H         1 <0>         0.1377
     46 H15        -1.7896    4.0810   -5.7769 H         1 <0>         0.4173
     47 H16        -2.4535    5.0490  -10.2705 H         1 <0>         0.1567
     48 H17        -4.0449    3.3237  -12.0640 H         1 <0>         0.1244
     49 H18        -5.3804    1.2816  -12.1236 H         1 <0>         0.1227
     50 H19        -5.7046   -0.0589  -10.0877 H         1 <0>         0.1263
     51 H20        -4.6924    0.6347   -7.9637 H         1 <0>         0.1238
     52 O4         -6.5243    5.5737   -1.8788 O.co2     1 <0>        -0.7632
@<TRIPOS>BOND
     1    1    6 ar
     2    1    2 ar
     3    1   34 1
     4    2    3 ar
     5    2   35 1
     6    3    4 ar
     7    3   36 1
     8    4    5 ar
     9    4    7 1
    10    5    6 ar
    11    5   37 1
    12    6   38 1
    13    7    8 1
    14    7   39 1
    15    7   40 1
    16    8    9 1
    17    8   10 1
    18    8   12 1
    19   10   11 2
    20   10   52 1
    21   12   13 am
    22   12   41 1
    23   13   14 2
    24   13   15 1
    25   15   20 ar
    26   15   16 ar
    27   16   17 ar
    28   16   42 1
    29   17   18 ar
    30   17   43 1
    31   18   19 ar
    32   18   44 1
    33   19   20 ar
    34   19   45 1
    35   20   21 1
    36   21   22 am
    37   21   46 1
    38   22   23 2
    39   22   24 1
    40   24   32 1
    41   24   25 2
    42   25   26 1
    43   25   47 1
    44   26   31 ar
    45   26   27 ar
    46   27   28 ar
    47   27   48 1
    48   28   29 ar
    49   28   49 1
    50   29   30 ar
    51   29   50 1
    52   30   31 ar
    53   30   51 1
    54   31   32 1
    55   32   33 1
@<TRIPOS>MOLECULE
ZINC04654954
   50    54     0     0     0
SMALL
USER_CHARGES
6-(2-fluorophenyl)-4-(1H-indol-3-ylmethyl)-2-methyl-2,5-diazabicyclo[5.4.0]undeca-5,8,10,12-tetraen-3-one
@<TRIPOS>ATOM
      1 C1          3.2412    2.5938   -0.8573 C.3       1 <0>         0.0592
      2 N1          2.3209    1.8325   -0.0090 N.am      1 <0>        -0.5521
      3 C2          1.0196    2.2977    0.0999 C.ar      1 <0>         0.1822
      4 C3          0.8386    3.6784    0.2057 C.ar      1 <0>        -0.1443
      5 C4         -0.4254    4.2148    0.3130 C.ar      1 <0>        -0.0753
      6 C5         -1.5344    3.3848    0.3173 C.ar      1 <0>        -0.1296
      7 C6         -1.3749    2.0221    0.2206 C.ar      1 <0>        -0.0678
      8 C7         -0.0940    1.4605    0.1057 C.ar      1 <0>        -0.1237
      9 C8          0.0021   -0.0041    0.0020 C.2       1 <0>         0.2603
     10 N2          0.8894   -0.7265    0.5896 N.2       1 <0>        -0.4608
     11 C9          1.9244   -0.1387    1.4393 C.3       1 <0>         0.0635
     12 H1          2.5255   -0.9318    1.8840 H         1 <0>         0.1364
     13 C10         2.8001    0.7485    0.5972 C.2       1 <0>         0.5121
     14 O1          3.9730    0.4686    0.4668 O.2       1 <0>        -0.5128
     15 C11         1.2692    0.6897    2.5462 C.3       1 <0>        -0.0656
     16 C12         0.4791   -0.2186    3.4527 C.2       1 <0>        -0.1637
     17 C13        -0.8345   -0.4825    3.3707 C.2       1 <0>         0.0646
     18 N3         -1.1979   -1.3545    4.3607 N.pl3     1 <0>        -0.5927
     19 H2         -2.0954   -1.6941    4.5023 H         1 <0>         0.4165
     20 C14        -0.1009   -1.6735    5.1293 C.ar      1 <0>         0.0986
     21 C15         0.9977   -0.9760    4.5943 C.ar      1 <0>        -0.0982
     22 C16         2.2585   -1.1089    5.1784 C.ar      1 <0>        -0.0719
     23 C17         2.4194   -1.9171    6.2686 C.ar      1 <0>        -0.1434
     24 C18         1.3388   -2.6069    6.8004 C.ar      1 <0>        -0.0972
     25 C19         0.0856   -2.4902    6.2396 C.ar      1 <0>        -0.1301
     26 C20        -0.9969   -0.6980   -0.8420 C.ar      1 <0>        -0.0858
     27 C21        -1.9166   -1.5731   -0.2632 C.ar      1 <0>        -0.0593
     28 C22        -2.8452   -2.2163   -1.0544 C.ar      1 <0>        -0.1301
     29 C23        -2.8677   -1.9959   -2.4208 C.ar      1 <0>        -0.0780
     30 C24        -1.9607   -1.1303   -3.0028 C.ar      1 <0>        -0.1533
     31 C25        -1.0268   -0.4752   -2.2208 C.ar      1 <0>         0.1254
     32 F1         -0.1434    0.3744   -2.7891 F         1 <0>        -0.1316
     33 H3          4.2214    2.1170   -0.8494 H         1 <0>         0.1007
     34 H4          2.8579    2.6196   -1.8774 H         1 <0>         0.0719
     35 H5          3.3291    3.6113   -0.4763 H         1 <0>         0.0729
     36 H6          1.6984    4.3320    0.2036 H         1 <0>         0.1350
     37 H7         -0.5521    5.2842    0.3944 H         1 <0>         0.1348
     38 H8         -2.5246    3.8077    0.4012 H         1 <0>         0.1338
     39 H9         -2.2428    1.3793    0.2287 H         1 <0>         0.1324
     40 H10         2.0407    1.1984    3.1243 H         1 <0>         0.0848
     41 H11         0.6025    1.4282    2.1010 H         1 <0>         0.0879
     42 H12        -1.5047   -0.0699    2.6312 H         1 <0>         0.1621
     43 H13         3.1038   -0.5747    4.7705 H         1 <0>         0.1198
     44 H14         3.3950   -2.0196    6.7202 H         1 <0>         0.1228
     45 H15         1.4816   -3.2418    7.6623 H         1 <0>         0.1255
     46 H16        -0.7489   -3.0313    6.6605 H         1 <0>         0.1198
     47 H17        -1.9012   -1.7468    0.8026 H         1 <0>         0.1330
     48 H18        -3.5572   -2.8937   -0.6066 H         1 <0>         0.1344
     49 H19        -3.5975   -2.5023   -3.0350 H         1 <0>         0.1366
     50 H20        -1.9839   -0.9621   -4.0694 H         1 <0>         0.1404
@<TRIPOS>BOND
     1    1    2 1
     2    1   33 1
     3    1   34 1
     4    1   35 1
     5    2   13 am
     6    2    3 1
     7    3    8 ar
     8    3    4 ar
     9    4    5 ar
    10    4   36 1
    11    5    6 ar
    12    5   37 1
    13    6    7 ar
    14    6   38 1
    15    7    8 ar
    16    7   39 1
    17    8    9 1
    18    9   10 2
    19    9   26 1
    20   10   11 1
    21   11   12 1
    22   11   13 1
    23   11   15 1
    24   13   14 2
    25   15   16 1
    26   15   40 1
    27   15   41 1
    28   16   21 1
    29   16   17 2
    30   17   18 1
    31   17   42 1
    32   18   19 1
    33   18   20 1
    34   20   25 ar
    35   20   21 ar
    36   21   22 ar
    37   22   23 ar
    38   22   43 1
    39   23   24 ar
    40   23   44 1
    41   24   25 ar
    42   24   45 1
    43   25   46 1
    44   26   31 ar
    45   26   27 ar
    46   27   28 ar
    47   27   47 1
    48   28   29 ar
    49   28   48 1
    50   29   30 ar
    51   29   49 1
    52   30   31 ar
    53   30   50 1
    54   31   32 1
@<TRIPOS>MOLECULE
ZINC28235260
   50    54     0     0     0
SMALL
USER_CHARGES
(3S)-5-(2-fluorophenyl)-3-(1H-indol-3-ylmethyl)-1-methyl-3H-1,4-benzodiazepin-2-one
@<TRIPOS>ATOM
      1 C1          7.7527    2.6462   -0.8618 C.3       1 <0>         0.0678
      2 N1          6.2948    2.7259   -0.7416 N.am      1 <0>        -0.5527
      3 C2          5.6755    1.8371    0.1234 C.ar      1 <0>         0.1791
      4 C3          6.3067    1.5844    1.3433 C.ar      1 <0>        -0.1451
      5 C4          5.7525    0.7114    2.2531 C.ar      1 <0>        -0.0755
      6 C5          4.5580    0.0723    1.9644 C.ar      1 <0>        -0.1284
      7 C6          3.9219    0.3095    0.7682 C.ar      1 <0>        -0.0802
      8 C7          4.4730    1.1971   -0.1687 C.ar      1 <0>        -0.1220
      9 C8          3.7363    1.4070   -1.4250 C.2       1 <0>         0.2544
     10 N2          3.5880    2.5443   -2.0120 N.2       1 <0>        -0.4592
     11 C9          4.1694    3.7715   -1.4692 C.3       1 <0>         0.0624
     12 H1          3.8601    4.6051   -2.1169 H         1 <0>         0.1352
     13 C10         5.6685    3.6458   -1.4718 C.2       1 <0>         0.5119
     14 O1          6.3234    4.4026   -2.1569 O.2       1 <0>        -0.5120
     15 C11         3.6754    3.9825   -0.0366 C.3       1 <0>        -0.0661
     16 C12         2.1880    4.2247   -0.0486 C.2       1 <0>        -0.1740
     17 C13         1.5734    5.4180   -0.0578 C.2       1 <0>         0.0554
     18 N3          0.2162    5.2438   -0.0678 N.pl3     1 <0>        -0.6055
     19 H2         -0.4506    6.1187   -0.0762 H         1 <0>         0.4422
     20 C14        -0.0833    3.8999   -0.0652 C.ar      1 <0>         0.1081
     21 C15         1.1387    3.2025   -0.0531 C.ar      1 <0>        -0.0896
     22 C16         1.1440    1.8066   -0.0478 C.ar      1 <0>        -0.0782
     23 C17        -0.0398    1.1237   -0.0546 C.ar      1 <0>        -0.1475
     24 C18        -1.2477    1.8069   -0.0723 C.ar      1 <0>        -0.0986
     25 C19        -1.2760    3.1845   -0.0719 C.ar      1 <0>        -0.1315
     26 C20         3.1165    0.2228   -2.0617 C.ar      1 <0>        -0.1023
     27 C21         3.3503   -1.0526   -1.5467 C.ar      1 <0>        -0.0775
     28 C22         2.7698   -2.1520   -2.1437 C.ar      1 <0>        -0.1374
     29 C23         1.9564   -1.9937   -3.2525 C.ar      1 <0>        -0.0709
     30 C24         1.7188   -0.7339   -3.7693 C.ar      1 <0>        -0.1655
     31 C25         2.2902    0.3778   -3.1774 C.ar      1 <0>         0.1548
     32 F1          2.0541    1.6095   -3.6797 F         1 <0>        -0.1091
     33 H3          8.1315    1.8479   -0.2066 H         1 <0>         0.0874
     34 H4          8.1982    3.6070   -0.5644 H         1 <0>         0.0758
     35 H5          8.0230    2.4239   -1.9046 H         1 <0>         0.0737
     36 H6          7.2384    2.0786    1.5756 H         1 <0>         0.1353
     37 H7          6.2504    0.5246    3.1932 H         1 <0>         0.1355
     38 H8          4.1261   -0.6128    2.6788 H         1 <0>         0.1360
     39 H9          2.9908   -0.1916    0.5480 H         1 <0>         0.1409
     40 H10         3.8963    3.0871    0.5630 H         1 <0>         0.0883
     41 H11         4.1851    4.8528    0.4026 H         1 <0>         0.0823
     42 H12         2.0757    6.3741   -0.0571 H         1 <0>         0.1676
     43 H13         2.0802    1.2682   -0.0382 H         1 <0>         0.1239
     44 H14        -0.0352    0.0437   -0.0505 H         1 <0>         0.1183
     45 H15        -2.1749    1.2532   -0.0823 H         1 <0>         0.1231
     46 H16        -2.2211    3.7070   -0.0809 H         1 <0>         0.1177
     47 H17         3.9846   -1.1788   -0.6817 H         1 <0>         0.1432
     48 H18         2.9507   -3.1393   -1.7452 H         1 <0>         0.1347
     49 H19         1.5050   -2.8586   -3.7157 H         1 <0>         0.1353
     50 H20         1.0826   -0.6172   -4.6341 H         1 <0>         0.1387
@<TRIPOS>BOND
     1    1    2 1
     2    1   33 1
     3    1   34 1
     4    1   35 1
     5    2   13 am
     6    2    3 1
     7    3    8 ar
     8    3    4 ar
     9    4    5 ar
    10    4   36 1
    11    5    6 ar
    12    5   37 1
    13    6    7 ar
    14    6   38 1
    15    7    8 ar
    16    7   39 1
    17    8    9 1
    18    9   10 2
    19    9   26 1
    20   10   11 1
    21   11   12 1
    22   11   13 1
    23   11   15 1
    24   13   14 2
    25   15   16 1
    26   15   40 1
    27   15   41 1
    28   16   21 1
    29   16   17 2
    30   17   18 1
    31   17   42 1
    32   18   19 1
    33   18   20 1
    34   20   25 ar
    35   20   21 ar
    36   21   22 ar
    37   22   23 ar
    38   22   43 1
    39   23   24 ar
    40   23   44 1
    41   24   25 ar
    42   24   45 1
    43   25   46 1
    44   26   31 ar
    45   26   27 ar
    46   27   28 ar
    47   27   47 1
    48   28   29 ar
    49   28   48 1
    50   29   30 ar
    51   29   49 1
    52   30   31 ar
    53   30   50 1
    54   31   32 1
@<TRIPOS>MOLECULE
ZINC03782183
   61    61     0     0     0
SMALL
USER_CHARGES

@<TRIPOS>ATOM
      1 C1         -0.6935    1.4906   -2.9588 C.3       1 <0>        -0.1527
      2 C2         -0.3915    0.1106   -2.3713 C.3       1 <0>        -0.1240
      3 C3         -1.7009   -0.5679   -1.9637 C.3       1 <0>        -0.1163
      4 C4         -1.3988   -1.9479   -1.3761 C.3       1 <0>        -0.1337
      5 C5         -2.7082   -2.6263   -0.9685 C.3       1 <0>         0.1156
      6 N1         -2.4303   -3.9913   -0.5147 N.am      1 <0>        -0.6078
      7 C6         -2.2462   -4.2655    0.9125 C.3       1 <0>         0.1009
      8 C7         -3.6128   -4.4230    1.5821 C.3       1 <0>        -0.1440
      9 C8         -3.4210   -4.8521    3.0381 C.3       1 <0>        -0.1162
     10 C9         -4.7877   -5.0096    3.7077 C.3       1 <0>        -0.1257
     11 C10        -4.5958   -5.4386    5.1637 C.3       1 <0>        -0.1516
     12 C11        -2.3441   -4.9948   -1.4103 C.2       1 <0>         0.5214
     13 O1         -2.6163   -4.7933   -2.5749 O.2       1 <0>        -0.5382
     14 C12        -1.9094   -6.3672   -0.9647 C.3       1 <0>         0.1242
     15 H1         -1.2137   -6.2750   -0.1306 H         1 <0>         0.1088
     16 C13        -3.1335   -7.1709   -0.5214 C.3       1 <0>        -0.0994
     17 C14        -2.6868   -8.5462   -0.0213 C.3       1 <0>        -0.1679
     18 C15        -3.8925   -9.3379    0.4153 C.2       1 <0>         0.4887
     19 O2         -5.0058   -8.8476    0.3341 O.co2     1 <0>        -0.7020
     20 O3         -3.7546  -10.4687    0.8498 O.co2     1 <0>        -0.7050
     21 N2         -1.2498   -7.0556   -2.0769 N.am      1 <0>        -0.7050
     22 C16        -0.3567   -8.0341   -1.8292 C.2       1 <0>         0.5592
     23 O4         -0.0985   -8.3454   -0.6829 O.2       1 <0>        -0.5107
     24 C17         0.3088   -8.7286   -2.9513 C.ar      1 <0>        -0.1081
     25 C18         0.0184   -8.3693   -4.2689 C.ar      1 <0>        -0.0699
     26 C19         0.6420   -9.0205   -5.3121 C.ar      1 <0>        -0.1047
     27 C20         1.5549  -10.0300   -5.0556 C.ar      1 <0>        -0.0117
     28 C21         1.8477  -10.3916   -3.7501 C.ar      1 <0>        -0.0391
     29 C22         1.2342   -9.7424   -2.6977 C.ar      1 <0>        -0.0380
     30 Cl1         2.9932  -11.6580   -3.4377 Cl        1 <0>        -0.0419
     31 Cl2         2.3351  -10.8460   -6.3744 Cl        1 <0>        -0.0456
     32 H2          0.2393    1.9740   -3.2492 H         1 <0>         0.0520
     33 H3         -1.3336    1.3807   -3.8342 H         1 <0>         0.0537
     34 H4         -1.2014    2.1004   -2.2116 H         1 <0>         0.0529
     35 H5          0.1164   -0.4992   -3.1185 H         1 <0>         0.0606
     36 H6          0.2486    0.2206   -1.4959 H         1 <0>         0.0598
     37 H7         -2.2088    0.0419   -1.2165 H         1 <0>         0.0620
     38 H8         -2.3410   -0.6778   -2.8390 H         1 <0>         0.0642
     39 H9         -0.8909   -2.5577   -2.1233 H         1 <0>         0.0654
     40 H10        -0.7588   -1.8379   -0.5007 H         1 <0>         0.0622
     41 H11        -3.1734   -2.0623   -0.1601 H         1 <0>         0.0780
     42 H12        -3.3827   -2.6582   -1.8242 H         1 <0>         0.0826
     43 H13        -1.6735   -5.1848    1.0350 H         1 <0>         0.0882
     44 H14        -1.7082   -3.4380    1.3750 H         1 <0>         0.0781
     45 H15        -4.1446   -3.4720    1.5506 H         1 <0>         0.0637
     46 H16        -4.1914   -5.1805    1.0533 H         1 <0>         0.0799
     47 H17        -2.8892   -5.8030    3.0696 H         1 <0>         0.0687
     48 H18        -2.8425   -4.0946    3.5669 H         1 <0>         0.0589
     49 H19        -5.3194   -4.0586    3.6762 H         1 <0>         0.0564
     50 H20        -5.3662   -5.7670    3.1789 H         1 <0>         0.0696
     51 H21        -5.5695   -5.5508    5.6407 H         1 <0>         0.0515
     52 H22        -4.0640   -6.3896    5.1952 H         1 <0>         0.0568
     53 H23        -4.0173   -4.6812    5.6925 H         1 <0>         0.0488
     54 H24        -3.6448   -6.6407    0.2821 H         1 <0>         0.0801
     55 H25        -3.8124   -7.2940   -1.3652 H         1 <0>         0.0685
     56 H26        -2.1755   -9.0764   -0.8248 H         1 <0>         0.0554
     57 H27        -2.0079   -8.4231    0.8225 H         1 <0>         0.0632
     58 H28        -1.4558   -6.8073   -2.9917 H         1 <0>         0.4052
     59 H29        -0.6938   -7.5828   -4.4707 H         1 <0>         0.1447
     60 H30         0.4178   -8.7430   -6.3315 H         1 <0>         0.1498
     61 H31         1.4660  -10.0215   -1.6805 H         1 <0>         0.1594
@<TRIPOS>BOND
     1    1    2 1
     2    1   32 1
     3    1   33 1
     4    1   34 1
     5    2    3 1
     6    2   35 1
     7    2   36 1
     8    3    4 1
     9    3   37 1
    10    3   38 1
    11    4    5 1
    12    4   39 1
    13    4   40 1
    14    5    6 1
    15    5   41 1
    16    5   42 1
    17    6    7 1
    18    6   12 am
    19    7    8 1
    20    7   43 1
    21    7   44 1
    22    8    9 1
    23    8   45 1
    24    8   46 1
    25    9   10 1
    26    9   47 1
    27    9   48 1
    28   10   11 1
    29   10   49 1
    30   10   50 1
    31   11   51 1
    32   11   52 1
    33   11   53 1
    34   12   13 2
    35   12   14 1
    36   14   15 1
    37   14   16 1
    38   14   21 1
    39   16   17 1
    40   16   54 1
    41   16   55 1
    42   17   18 1
    43   17   56 1
    44   17   57 1
    45   18   19 2
    46   18   20 1
    47   21   22 am
    48   21   58 1
    49   22   23 2
    50   22   24 1
    51   24   29 ar
    52   24   25 ar
    53   25   26 ar
    54   25   59 1
    55   26   27 ar
    56   26   60 1
    57   27   28 ar
    58   27   31 1
    59   28   29 ar
    60   28   30 1
    61   29   61 1
@<TRIPOS>MOLECULE
ZINC03789437
   61    61     0     0     0
SMALL
USER_CHARGES

@<TRIPOS>ATOM
      1 C1         -1.8137    1.7470    1.1751 C.3       1 <0>        -0.1519
      2 C2         -1.4478    0.2648    1.0753 C.3       1 <0>        -0.1258
      3 C3         -2.6894   -0.5423    0.6905 C.3       1 <0>        -0.1145
      4 C4         -2.3235   -2.0245    0.5907 C.3       1 <0>        -0.1378
      5 C5         -3.5650   -2.8315    0.2058 C.3       1 <0>         0.1183
      6 N1         -3.2147   -4.2508    0.1103 N.am      1 <0>        -0.6059
      7 C6         -3.2986   -5.1074    1.2957 C.3       1 <0>         0.0910
      8 C7         -4.7364   -5.6016    1.4672 C.3       1 <0>        -0.1356
      9 C8         -4.8240   -6.4962    2.7052 C.3       1 <0>        -0.1214
     10 C9         -6.2619   -6.9903    2.8766 C.3       1 <0>        -0.1223
     11 C10        -6.3495   -7.8850    4.1147 C.3       1 <0>        -0.1537
     12 C11        -2.8151   -4.7684   -1.0683 C.2       1 <0>         0.5216
     13 O1         -2.6596   -4.0429   -2.0276 O.2       1 <0>        -0.5408
     14 C12        -2.5617   -6.2486   -1.1939 C.3       1 <0>         0.1245
     15 H1         -3.3336   -6.7966   -0.6534 H         1 <0>         0.1107
     16 C13        -1.1905   -6.5832   -0.6035 C.3       1 <0>        -0.0991
     17 C14        -0.9893   -8.0999   -0.6086 C.3       1 <0>        -0.1695
     18 C15         0.3613   -8.4295   -0.0270 C.2       1 <0>         0.4880
     19 O2          1.0950   -7.5343    0.3560 O.co2     1 <0>        -0.7031
     20 O3          0.7203   -9.5914    0.0605 O.co2     1 <0>        -0.7042
     21 N2         -2.5910   -6.6307   -2.6079 N.am      1 <0>        -0.7042
     22 C16        -2.8930   -7.8968   -2.9577 C.2       1 <0>         0.5584
     23 O4         -3.1410   -8.7217   -2.0999 O.2       1 <0>        -0.5101
     24 C17        -2.9225   -8.2823   -4.3841 C.ar      1 <0>        -0.1082
     25 C18        -2.6325   -7.3384   -5.3713 C.ar      1 <0>        -0.0696
     26 C19        -2.6615   -7.7032   -6.7007 C.ar      1 <0>        -0.1049
     27 C20        -2.9780   -9.0033   -7.0584 C.ar      1 <0>        -0.0117
     28 C21        -3.2670   -9.9451   -6.0835 C.ar      1 <0>        -0.0393
     29 C22        -3.2349   -9.5928   -4.7493 C.ar      1 <0>        -0.0380
     30 Cl1        -3.6627  -11.5724   -6.5409 Cl        1 <0>        -0.0421
     31 Cl2        -3.0136   -9.4547   -8.7343 Cl        1 <0>        -0.0457
     32 H2         -0.9292    2.3220    1.4492 H         1 <0>         0.0523
     33 H3         -2.1888    2.0943    0.2124 H         1 <0>         0.0525
     34 H4         -2.5839    1.8808    1.9347 H         1 <0>         0.0520
     35 H5         -0.6777    0.1310    0.3156 H         1 <0>         0.0622
     36 H6         -1.0727   -0.0825    2.0380 H         1 <0>         0.0614
     37 H7         -3.4595   -0.4085    1.4501 H         1 <0>         0.0604
     38 H8         -3.0644   -0.1950   -0.2723 H         1 <0>         0.0621
     39 H9         -1.5533   -2.1583   -0.1690 H         1 <0>         0.0697
     40 H10        -1.9484   -2.3718    1.5534 H         1 <0>         0.0649
     41 H11        -4.3352   -2.6978    0.9655 H         1 <0>         0.0753
     42 H12        -3.9401   -2.4843   -0.7569 H         1 <0>         0.0814
     43 H13        -2.6328   -5.9619    1.1744 H         1 <0>         0.0976
     44 H14        -3.0025   -4.5383    2.1770 H         1 <0>         0.0826
     45 H15        -5.4022   -4.7471    1.5885 H         1 <0>         0.0638
     46 H16        -5.0325   -6.1707    0.5859 H         1 <0>         0.0655
     47 H17        -4.1582   -7.3507    2.5839 H         1 <0>         0.0707
     48 H18        -4.5280   -5.9271    3.5864 H         1 <0>         0.0639
     49 H19        -6.9277   -6.1359    2.9979 H         1 <0>         0.0576
     50 H20        -6.5580   -7.5595    1.9954 H         1 <0>         0.0614
     51 H21        -7.3738   -8.2370    4.2368 H         1 <0>         0.0509
     52 H22        -5.6837   -8.7394    3.9934 H         1 <0>         0.0568
     53 H23        -6.0534   -7.3159    4.9959 H         1 <0>         0.0525
     54 H24        -0.4119   -6.1115   -1.2029 H         1 <0>         0.0698
     55 H25        -1.1355   -6.2128    0.4201 H         1 <0>         0.0771
     56 H26        -1.7680   -8.5717   -0.0091 H         1 <0>         0.0625
     57 H27        -1.0444   -8.4703   -1.6322 H         1 <0>         0.0595
     58 H28        -2.3931   -5.9726   -3.2924 H         1 <0>         0.4060
     59 H29        -2.3861   -6.3240   -5.0941 H         1 <0>         0.1450
     60 H30        -2.4372   -6.9736   -7.4647 H         1 <0>         0.1498
     61 H31        -3.4558  -10.3283   -3.9899 H         1 <0>         0.1593
@<TRIPOS>BOND
     1    1    2 1
     2    1   32 1
     3    1   33 1
     4    1   34 1
     5    2    3 1
     6    2   35 1
     7    2   36 1
     8    3    4 1
     9    3   37 1
    10    3   38 1
    11    4    5 1
    12    4   39 1
    13    4   40 1
    14    5    6 1
    15    5   41 1
    16    5   42 1
    17    6    7 1
    18    6   12 am
    19    7    8 1
    20    7   43 1
    21    7   44 1
    22    8    9 1
    23    8   45 1
    24    8   46 1
    25    9   10 1
    26    9   47 1
    27    9   48 1
    28   10   11 1
    29   10   49 1
    30   10   50 1
    31   11   51 1
    32   11   52 1
    33   11   53 1
    34   12   13 2
    35   12   14 1
    36   14   15 1
    37   14   16 1
    38   14   21 1
    39   16   17 1
    40   16   54 1
    41   16   55 1
    42   17   18 1
    43   17   56 1
    44   17   57 1
    45   18   19 2
    46   18   20 1
    47   21   22 am
    48   21   58 1
    49   22   23 2
    50   22   24 1
    51   24   29 ar
    52   24   25 ar
    53   25   26 ar
    54   25   59 1
    55   26   27 ar
    56   26   60 1
    57   27   28 ar
    58   27   31 1
    59   28   29 ar
    60   28   30 1
    61   29   61 1
@<TRIPOS>MOLECULE
ZINC03920670
   86    91     0     0     0
SMALL
USER_CHARGES
4-[2-[2-(2-adamantyloxycarbonylamino)-3-(1H-indol-3-yl)-2-methyl-propanoyl]amino-1-phenyl-ethyl]amino-4-oxo-butanoic acid
@<TRIPOS>ATOM
      1 C1          3.2239    8.1673   -2.1756 C.3       1 <0>        -0.1678
      2 C2          1.7860    7.7594   -2.5028 C.3       1 <0>         0.1898
      3 C3          1.3953    8.3212   -3.8712 C.3       1 <0>        -0.0467
      4 C4         -0.0577    8.0250   -4.1397 C.2       1 <0>        -0.1710
      5 C5         -0.5456    6.9829   -4.8311 C.2       1 <0>         0.0679
      6 N1         -1.9122    7.0437   -4.8641 N.pl3     1 <0>        -0.5971
      7 H1         -2.4882    6.3991   -5.3042 H         1 <0>         0.4134
      8 C6         -2.3478    8.1593   -4.1847 C.ar      1 <0>         0.0917
      9 C7         -1.2052    8.8229   -3.7010 C.ar      1 <0>        -0.0910
     10 C8         -1.3433   10.0007   -2.9646 C.ar      1 <0>        -0.0805
     11 C9         -2.5895   10.5038   -2.7169 C.ar      1 <0>        -0.1457
     12 C10        -3.7196    9.8532   -3.1922 C.ar      1 <0>        -0.1000
     13 C11        -3.6063    8.6893   -3.9209 C.ar      1 <0>        -0.1325
     14 C12         1.6839    6.2561   -2.5292 C.2       1 <0>         0.5291
     15 O1          1.7853    5.6598   -3.5804 O.2       1 <0>        -0.5211
     16 N2          1.4799    5.5743   -1.3846 N.am      1 <0>        -0.7265
     17 C13         1.3807    4.1129   -1.4103 C.3       1 <0>         0.1193
     18 C14         1.1505    3.5924    0.0099 C.3       1 <0>         0.1751
     19 H2          0.1833    3.9407    0.3723 H         1 <0>         0.1024
     20 C15         1.1709    2.0855    0.0021 C.ar      1 <0>        -0.0938
     21 C16        -0.0167    1.3781    0.0096 C.ar      1 <0>        -0.1004
     22 C17         0.0021   -0.0041    0.0020 C.ar      1 <0>        -0.1209
     23 C18         1.2084   -0.6789   -0.0136 C.ar      1 <0>        -0.1178
     24 C19         2.3961    0.0285   -0.0212 C.ar      1 <0>        -0.1206
     25 C20         2.3773    1.4107   -0.0136 C.ar      1 <0>        -0.0992
     26 N3          2.2101    4.0905    0.8904 N.am      1 <0>        -0.7364
     27 C21         1.9861    4.2093    2.2141 C.2       1 <0>         0.5156
     28 O2          0.9072    3.9038    2.6763 O.2       1 <0>        -0.5308
     29 C22         3.0761    4.7218    3.1198 C.3       1 <0>        -0.1168
     30 C23         2.5657    4.7589    4.5617 C.3       1 <0>        -0.1404
     31 C24         3.6557    5.2713    5.4674 C.2       1 <0>         0.4602
     32 O3          4.7305    5.5757    5.0069 O.co2     1 <0>        -0.6444
     33 N4          0.8825    8.2923   -1.4800 N.am      1 <0>        -0.7010
     34 C25         0.8052    9.6223   -1.2760 C.2       1 <0>         0.6637
     35 O4          1.4850   10.3794   -1.9403 O.2       1 <0>        -0.5685
     36 O5         -0.0251   10.1121   -0.3361 O.3       1 <0>        -0.3551
     37 C26        -0.0566   11.5543   -0.1712 C.3       1 <0>         0.1250
     38 C27         0.9881   11.9721    0.8657 C.3       1 <0>        -0.1013
     39 C28         0.9549   13.4918    1.0394 C.3       1 <0>        -0.1050
     40 C29        -0.4349   13.9206    1.5144 C.3       1 <0>        -0.0887
     41 C30        -0.7468   13.2473    2.8524 C.3       1 <0>        -0.1085
     42 C31        -0.7136   11.7276    2.6786 C.3       1 <0>        -0.0874
     43 C32         0.6761   11.2988    2.2037 C.3       1 <0>        -0.1071
     44 C33        -1.7583   11.3099    1.6418 C.3       1 <0>        -0.1047
     45 C34        -1.4464   11.9831    0.3037 C.3       1 <0>        -0.0842
     46 C35        -1.4796   13.5029    0.4775 C.3       1 <0>        -0.1056
     47 H3          3.8961    7.7708   -2.9365 H         1 <0>         0.0760
     48 H4          3.2977    9.2547   -2.1565 H         1 <0>         0.0969
     49 H5          3.5022    7.7671   -1.2007 H         1 <0>         0.0655
     50 H6          1.5538    9.3996   -3.8800 H         1 <0>         0.1017
     51 H7          2.0093    7.8574   -4.6432 H         1 <0>         0.0904
     52 H8          0.0519    6.2100   -5.2914 H         1 <0>         0.1725
     53 H9         -0.4683   10.5125   -2.5919 H         1 <0>         0.1285
     54 H10        -2.6959   11.4148   -2.1467 H         1 <0>         0.1182
     55 H11        -4.6978   10.2632   -2.9884 H         1 <0>         0.1213
     56 H12        -4.4918    8.1901   -4.2858 H         1 <0>         0.1155
     57 H13         1.3988    6.0513   -0.5438 H         1 <0>         0.4040
     58 H14         2.3055    3.6929   -1.8058 H         1 <0>         0.0800
     59 H15         0.5461    3.8165   -2.0456 H         1 <0>         0.0850
     60 H16        -0.9592    1.9054    0.0170 H         1 <0>         0.1214
     61 H17        -0.9258   -0.5567    0.0079 H         1 <0>         0.1214
     62 H18         1.2231   -1.7588   -0.0196 H         1 <0>         0.1202
     63 H19         3.3386   -0.4987   -0.0327 H         1 <0>         0.1219
     64 H20         3.3052    1.9634   -0.0192 H         1 <0>         0.1206
     65 H21         3.0730    4.3349    0.5207 H         1 <0>         0.4016
     66 H22         3.9409    4.0612    3.0574 H         1 <0>         0.0926
     67 H23         3.3633    5.7266    2.8101 H         1 <0>         0.0926
     68 H24         1.7009    5.4194    4.6241 H         1 <0>         0.0700
     69 H25         2.2784    3.7540    4.8714 H         1 <0>         0.0694
     70 H26         0.3399    7.6880   -0.9497 H         1 <0>         0.4035
     71 H27         0.1656   12.0340   -1.1244 H         1 <0>         0.0848
     72 H28         1.9782   11.6666    0.5273 H         1 <0>         0.0767
     73 H29         1.6991   13.7894    1.7781 H         1 <0>         0.0695
     74 H30         1.1771   13.9714    0.0862 H         1 <0>         0.0637
     75 H31        -0.4586   15.0033    1.6382 H         1 <0>         0.0718
     76 H32        -1.7369   13.5528    3.1908 H         1 <0>         0.0613
     77 H33        -0.0026   13.5449    3.5911 H         1 <0>         0.0628
     78 H34        -0.9359   11.2479    3.6319 H         1 <0>         0.0728
     79 H35         1.4204   11.5964    2.9424 H         1 <0>         0.0647
     80 H36         0.6998   10.2161    2.0799 H         1 <0>         0.0684
     81 H37        -2.7484   11.6153    1.9801 H         1 <0>         0.0619
     82 H38        -1.7346   10.2272    1.5180 H         1 <0>         0.0708
     83 H39        -2.1906   11.6855   -0.4350 H         1 <0>         0.0813
     84 H40        -1.2574   13.9825   -0.4757 H         1 <0>         0.0641
     85 H41        -2.4697   13.8083    0.8158 H         1 <0>         0.0712
     86 O6          3.4325    5.3896    6.7857 O.co2     1 <0>        -0.7714
@<TRIPOS>BOND
     1    1    2 1
     2    1   47 1
     3    1   48 1
     4    1   49 1
     5    2    3 1
     6    2   14 1
     7    2   33 1
     8    3    4 1
     9    3   50 1
    10    3   51 1
    11    4    9 1
    12    4    5 2
    13    5    6 1
    14    5   52 1
    15    6    7 1
    16    6    8 1
    17    8   13 ar
    18    8    9 ar
    19    9   10 ar
    20   10   11 ar
    21   10   53 1
    22   11   12 ar
    23   11   54 1
    24   12   13 ar
    25   12   55 1
    26   13   56 1
    27   14   15 2
    28   14   16 am
    29   16   17 1
    30   16   57 1
    31   17   18 1
    32   17   58 1
    33   17   59 1
    34   18   19 1
    35   18   20 1
    36   18   26 1
    37   20   25 ar
    38   20   21 ar
    39   21   22 ar
    40   21   60 1
    41   22   23 ar
    42   22   61 1
    43   23   24 ar
    44   23   62 1
    45   24   25 ar
    46   24   63 1
    47   25   64 1
    48   26   27 am
    49   26   65 1
    50   27   28 2
    51   27   29 1
    52   29   30 1
    53   29   66 1
    54   29   67 1
    55   30   31 1
    56   30   68 1
    57   30   69 1
    58   31   32 2
    59   31   86 1
    60   33   34 am
    61   33   70 1
    62   34   35 2
    63   34   36 1
    64   36   37 1
    65   37   45 1
    66   37   38 1
    67   37   71 1
    68   38   43 1
    69   38   39 1
    70   38   72 1
    71   39   40 1
    72   39   73 1
    73   39   74 1
    74   40   46 1
    75   40   41 1
    76   40   75 1
    77   41   42 1
    78   41   76 1
    79   41   77 1
    80   42   43 1
    81   42   44 1
    82   42   78 1
    83   43   79 1
    84   43   80 1
    85   44   45 1
    86   44   81 1
    87   44   82 1
    88   45   46 1
    89   45   83 1
    90   46   84 1
    91   46   85 1
@<TRIPOS>MOLECULE
ZINC03798924
   52    57     0     0     0
SMALL
USER_CHARGES

@<TRIPOS>ATOM
      1 C1         -0.4171    0.7647    0.0316 C.ar      1 <0>        -0.1480
      2 C2          0.6995    1.5900   -0.0189 C.ar      1 <0>        -0.0806
      3 C3          1.9675    1.0545   -0.0447 C.ar      1 <0>        -0.1359
      4 C4          2.1358   -0.3274   -0.0196 C.ar      1 <0>         0.1196
      5 C5          1.0023   -1.1618    0.0321 C.ar      1 <0>        -0.1229
      6 C6         -0.2775   -0.5923    0.0570 C.ar      1 <0>        -0.0560
      7 C7          1.4729   -2.4972    0.0473 C.2       1 <0>        -0.0892
      8 C8          2.8303   -2.4579    0.0063 C.2       1 <0>         0.0051
      9 N1          3.2443   -1.1405   -0.0346 N.pl3     1 <0>        -0.5803
     10 H1          4.1655   -0.8388   -0.0689 H         1 <0>         0.4141
     11 C9          3.7176   -3.6307    0.0064 C.2       1 <0>         0.5948
     12 O1          3.2449   -4.7509    0.0455 O.2       1 <0>        -0.4996
     13 N2          5.0543   -3.4644   -0.0368 N.am      1 <0>        -0.7384
     14 C10         5.9382   -4.6327   -0.0367 C.3       1 <0>         0.2944
     15 H2          5.3691   -5.5116    0.2665 H         1 <0>         0.1681
     16 C11         7.0546   -4.4063    0.9428 C.2       1 <0>         0.5118
     17 O2          7.2477   -5.2146    1.8261 O.2       1 <0>        -0.4873
     18 N3          7.8401   -3.3253    0.8546 N.am      1 <0>        -0.5510
     19 C12         8.8170   -2.8687    1.8558 C.3       1 <0>         0.1032
     20 C13         8.9119   -1.3498    1.5937 C.3       1 <0>        -0.0889
     21 C14         8.3961   -1.2052    0.1770 C.ar      1 <0>        -0.1241
     22 C15         7.8407   -2.4155   -0.2058 C.ar      1 <0>         0.1520
     23 C16         7.4204   -2.5860   -1.5371 C.ar      1 <0>        -0.1359
     24 C17         7.4066   -1.4868   -2.3971 C.ar      1 <0>        -0.0531
     25 C18         7.8748   -0.2645   -1.9661 C.ar      1 <0>        -0.1313
     26 C19         8.3850   -0.1275   -0.6853 C.ar      1 <0>        -0.0542
     27 C20         7.0761   -3.9211   -2.0466 C.2       1 <0>         0.2942
     28 N4          6.4569   -4.8398   -1.3820 N.2       1 <0>        -0.4942
     29 C21         7.4730   -4.2397   -3.4369 C.ar      1 <0>        -0.0967
     30 C22         6.4986   -4.4624   -4.4102 C.ar      1 <0>        -0.0534
     31 C23         6.8744   -4.7589   -5.7036 C.ar      1 <0>        -0.1286
     32 C24         8.2152   -4.8365   -6.0387 C.ar      1 <0>        -0.0739
     33 C25         9.1874   -4.6179   -5.0808 C.ar      1 <0>        -0.1537
     34 C26         8.8249   -4.3131   -3.7814 C.ar      1 <0>         0.1277
     35 F1          9.7752   -4.0929   -2.8467 F         1 <0>        -0.1315
     36 H3         -1.4045    1.2015    0.0555 H         1 <0>         0.1269
     37 H4          0.5714    2.6622   -0.0385 H         1 <0>         0.1296
     38 H5          2.8292    1.7044   -0.0847 H         1 <0>         0.1233
     39 H6         -1.1513   -1.2258    0.0966 H         1 <0>         0.1279
     40 H7          0.8623   -3.3872    0.0847 H         1 <0>         0.1593
     41 H8          5.4312   -2.5711   -0.0679 H         1 <0>         0.3971
     42 H9          8.4527   -3.0627    2.8646 H         1 <0>         0.1003
     43 H10         9.7832   -3.3474    1.6962 H         1 <0>         0.0895
     44 H11         8.2798   -0.7994    2.2906 H         1 <0>         0.0958
     45 H12         9.9459   -1.0120    1.6624 H         1 <0>         0.1041
     46 H13         7.0277   -1.5943   -3.4027 H         1 <0>         0.1387
     47 H14         7.8448    0.5881   -2.6283 H         1 <0>         0.1401
     48 H15         8.7745    0.8259   -0.3602 H         1 <0>         0.1377
     49 H16         5.4518   -4.4031   -4.1512 H         1 <0>         0.1360
     50 H17         6.1202   -4.9313   -6.4573 H         1 <0>         0.1374
     51 H18         8.5030   -5.0695   -7.0533 H         1 <0>         0.1385
     52 H19        10.2318   -4.6803   -5.3486 H         1 <0>         0.1417
@<TRIPOS>BOND
     1    1    6 ar
     2    1    2 ar
     3    1   36 1
     4    2    3 ar
     5    2   37 1
     6    3    4 ar
     7    3   38 1
     8    4    9 1
     9    4    5 ar
    10    5    6 ar
    11    5    7 1
    12    6   39 1
    13    7    8 2
    14    7   40 1
    15    8    9 1
    16    8   11 1
    17    9   10 1
    18   11   12 2
    19   11   13 am
    20   13   14 1
    21   13   41 1
    22   14   15 1
    23   14   28 1
    24   14   16 1
    25   16   17 2
    26   16   18 am
    27   18   22 1
    28   18   19 1
    29   19   20 1
    30   19   42 1
    31   19   43 1
    32   20   21 1
    33   20   44 1
    34   20   45 1
    35   21   26 ar
    36   21   22 ar
    37   22   23 ar
    38   23   24 ar
    39   23   27 1
    40   24   25 ar
    41   24   46 1
    42   25   26 ar
    43   25   47 1
    44   26   48 1
    45   27   28 2
    46   27   29 1
    47   29   34 ar
    48   29   30 ar
    49   30   31 ar
    50   30   49 1
    51   31   32 ar
    52   31   50 1
    53   32   33 ar
    54   32   51 1
    55   33   34 ar
    56   33   52 1
    57   34   35 1
@<TRIPOS>MOLECULE
ZINC04217536
   78    80     0     0     0
SMALL
USER_CHARGES
3-[2-[2-amino-3-(1H-indol-3-yl)propanoyl]amino-4-methylsulfanyl-butanoyl]amino-4-(1-carbamoyl-2-phenyl-ethyl)amino-4-oxo-butanoic acid
@<TRIPOS>ATOM
      1 C1         -1.9361    2.6279   10.8859 C.3       1 <0>        -0.1199
      2 S1         -1.4070    2.6536    9.1510 S.3       1 <0>        -0.2585
      3 C2          0.2710    1.9658    9.1936 C.3       1 <0>        -0.0733
      4 C3          0.8436    1.9298    7.7753 C.3       1 <0>        -0.1154
      5 C4          2.2589    1.3496    7.8112 C.3       1 <0>         0.1327
      6 H1          2.2394    0.3740    8.2969 H         1 <0>         0.1289
      7 C5          2.7763    1.1998    6.4038 C.2       1 <0>         0.5111
      8 O1          3.7799    1.7881    6.0608 O.2       1 <0>        -0.5524
      9 N1          2.1237    0.4122    5.5262 N.am      1 <0>        -0.6672
     10 C6          2.5626    0.3511    4.1298 C.3       1 <0>         0.1525
     11 H2          2.9770    1.3156    3.8366 H         1 <0>         0.1034
     12 C7          3.6334   -0.7313    3.9786 C.3       1 <0>        -0.1731
     13 C8          3.0857   -2.0504    4.4593 C.2       1 <0>         0.4657
     14 O2          1.9324   -2.1340    4.8097 O.co2     1 <0>        -0.6188
     15 C9          1.3864    0.0206    3.2475 C.2       1 <0>         0.5414
     16 O3          0.2895   -0.1473    3.7370 O.2       1 <0>        -0.5187
     17 N2          1.5534   -0.0883    1.9146 N.am      1 <0>        -0.7076
     18 C10         0.4099   -0.4095    1.0570 C.3       1 <0>         0.1422
     19 H3         -0.4889    0.0576    1.4596 H         1 <0>         0.1141
     20 C11         0.6687    0.1166   -0.3562 C.3       1 <0>        -0.0857
     21 C12         0.7351    1.6219   -0.3275 C.ar      1 <0>        -0.0795
     22 C13        -0.4133    2.3681   -0.5153 C.ar      1 <0>        -0.1137
     23 C14        -0.3532    3.7488   -0.4841 C.ar      1 <0>        -0.1178
     24 C15         0.8571    4.3834   -0.2757 C.ar      1 <0>        -0.1230
     25 C16         2.0063    3.6373   -0.0932 C.ar      1 <0>        -0.1168
     26 C17         1.9453    2.2565   -0.1191 C.ar      1 <0>        -0.1104
     27 C18         0.2214   -1.9039    1.0099 C.2       1 <0>         0.4900
     28 O4          0.9686   -2.6292    1.6316 O.2       1 <0>        -0.4905
     29 N3         -0.7776   -2.4344    0.2770 N.am      1 <0>        -0.8607
     30 N4          3.1372    2.2510    8.5611 N.am      1 <0>        -0.6755
     31 C19         3.2058    2.1621    9.9042 C.2       1 <0>         0.5030
     32 O5          2.5404    1.3359   10.4920 O.2       1 <0>        -0.5208
     33 C20         4.1094    3.0893   10.6755 C.3       1 <0>         0.0207
     34 H4          4.0601    4.0883   10.2423 H         1 <0>         0.1626
     35 C21         5.5482    2.5737   10.6061 C.3       1 <0>        -0.0555
     36 C22         6.4691    3.5636   11.2719 C.2       1 <0>        -0.2333
     37 C23         7.1708    4.5342   10.6657 C.2       1 <0>         0.1055
     38 N5          7.8931    5.2359   11.5922 N.pl3     1 <0>        -0.5850
     39 H5          8.4755    5.9857   11.3932 H         1 <0>         0.4257
     40 C24         7.6748    4.7153   12.8481 C.ar      1 <0>         0.0996
     41 C25         6.7732    3.6449   12.7026 C.ar      1 <0>        -0.1171
     42 C26         6.3649    2.9209   13.8240 C.ar      1 <0>        -0.1122
     43 C27         6.8439    3.2561   15.0593 C.ar      1 <0>        -0.1208
     44 C28         7.7337    4.3107   15.2080 C.ar      1 <0>        -0.0941
     45 C29         8.1497    5.0388   14.1147 C.ar      1 <0>        -0.1128
     46 H6         -1.9219    1.6024   11.2549 H         1 <0>         0.0782
     47 H7         -1.2572    3.2379   11.4818 H         1 <0>         0.0689
     48 H8         -2.9470    3.0280   10.9635 H         1 <0>         0.1035
     49 H9          0.2388    0.9541    9.5982 H         1 <0>         0.0933
     50 H10         0.9035    2.5897    9.8251 H         1 <0>         0.0699
     51 H11         0.8758    2.9414    7.3707 H         1 <0>         0.0860
     52 H12         0.2111    1.3059    7.1438 H         1 <0>         0.1045
     53 H13         1.3635   -0.1142    5.8191 H         1 <0>         0.4232
     54 H14         3.9183   -0.8165    2.9300 H         1 <0>         0.0769
     55 H15         4.5075   -0.4629    4.5720 H         1 <0>         0.0783
     56 H16         2.4306    0.0460    1.5231 H         1 <0>         0.4002
     57 H17        -0.1403   -0.1989   -1.0152 H         1 <0>         0.0939
     58 H18         1.6139   -0.2818   -0.7249 H         1 <0>         0.0873
     59 H19        -1.3581    1.8724   -0.6826 H         1 <0>         0.1226
     60 H20        -1.2511    4.3318   -0.6271 H         1 <0>         0.1211
     61 H21         0.9048    5.4622   -0.2558 H         1 <0>         0.1194
     62 H22         2.9519    4.1331    0.0693 H         1 <0>         0.1215
     63 H23         2.8433    1.6736    0.0231 H         1 <0>         0.1211
     64 H24        -1.3752   -1.8543   -0.2202 H         1 <0>         0.3952
     65 H25        -0.8989   -3.3963    0.2467 H         1 <0>         0.4013
     66 H26         3.6695    2.9117    8.0909 H         1 <0>         0.4190
     67 H27         5.6153    1.6138   11.1181 H         1 <0>         0.1051
     68 H28         5.8401    2.4505    9.5632 H         1 <0>         0.1262
     69 H29         7.1647    4.7330    9.6042 H         1 <0>         0.1819
     70 H30         5.6729    2.0988   13.7158 H         1 <0>         0.1173
     71 H31         6.5272    2.6959   15.9267 H         1 <0>         0.1307
     72 H32         8.1036    4.5635   16.1907 H         1 <0>         0.1336
     73 H33         8.8418    5.8582   14.2409 H         1 <0>         0.1280
     74 H34         2.7511    3.5395   12.1556 H         1 <0>         0.4373
     75 H35         3.7119    2.2270   12.5022 H         1 <0>         0.4410
     76 O6          3.8791   -3.1324    4.4980 O.co2     1 <0>        -0.7688
     77 N6          3.6928    3.1572   12.0873 N.4       1 <0>        -0.6301
     78 H36         4.3399    3.7666   12.6013 H         1 <0>         0.4436
@<TRIPOS>BOND
     1    1    2 1
     2    1   46 1
     3    1   47 1
     4    1   48 1
     5    2    3 1
     6    3    4 1
     7    3   49 1
     8    3   50 1
     9    4    5 1
    10    4   51 1
    11    4   52 1
    12    5    6 1
    13    5    7 1
    14    5   30 1
    15    7    8 2
    16    7    9 am
    17    9   10 1
    18    9   53 1
    19   10   11 1
    20   10   12 1
    21   10   15 1
    22   12   13 1
    23   12   54 1
    24   12   55 1
    25   13   14 2
    26   13   76 1
    27   15   16 2
    28   15   17 am
    29   17   18 1
    30   17   56 1
    31   18   19 1
    32   18   20 1
    33   18   27 1
    34   20   21 1
    35   20   57 1
    36   20   58 1
    37   21   26 ar
    38   21   22 ar
    39   22   23 ar
    40   22   59 1
    41   23   24 ar
    42   23   60 1
    43   24   25 ar
    44   24   61 1
    45   25   26 ar
    46   25   62 1
    47   26   63 1
    48   27   28 2
    49   27   29 am
    50   29   64 1
    51   29   65 1
    52   30   31 am
    53   30   66 1
    54   31   32 2
    55   31   33 1
    56   33   34 1
    57   33   35 1
    58   33   77 1
    59   35   36 1
    60   35   67 1
    61   35   68 1
    62   36   41 1
    63   36   37 2
    64   37   38 1
    65   37   69 1
    66   38   39 1
    67   38   40 1
    68   40   45 ar
    69   40   41 ar
    70   41   42 ar
    71   42   43 ar
    72   42   70 1
    73   43   44 ar
    74   43   71 1
    75   44   45 ar
    76   44   72 1
    77   45   73 1
    78   74   77 1
    79   75   77 1
    80   77   78 1
@<TRIPOS>MOLECULE
ZINC03810905
   67    70     0     0     0
SMALL
USER_CHARGES
1-[2-(3,3-dimethyl-2-oxo-butyl)-3-oxo-6-(2-pyridyl)-2,5-diazabicyclo[5.4.0]undeca-5,8,10,12-tetraen-4-yl]-3-(3-methylaminophenyl)-urea
@<TRIPOS>ATOM
      1 C1         -3.7534   -1.1099   -2.5271 C.3       1 <0>        -0.1342
      2 C2         -3.3029   -1.1201   -1.0650 C.3       1 <0>        -0.1108
      3 C3         -3.3065   -2.5572   -0.5402 C.3       1 <0>        -0.1424
      4 C4         -4.2622   -0.2697   -0.2298 C.3       1 <0>        -0.1419
      5 C5         -1.9106   -0.5521   -0.9644 C.2       1 <0>         0.3501
      6 O1         -1.3379   -0.1778   -1.9595 O.2       1 <0>        -0.4284
      7 C6         -1.2331   -0.4512    0.3780 C.3       1 <0>         0.0591
      8 N1          0.1013    0.1292    0.2091 N.am      1 <0>        -0.5362
      9 C7          1.1538   -0.7440   -0.0170 C.ar      1 <0>         0.1646
     10 C8          0.9200   -1.8226   -0.8726 C.ar      1 <0>        -0.1463
     11 C9          1.9170   -2.7337   -1.1429 C.ar      1 <0>        -0.0707
     12 C10         3.1672   -2.5879   -0.5645 C.ar      1 <0>        -0.1338
     13 C11         3.4162   -1.5315    0.2802 C.ar      1 <0>        -0.0278
     14 C12         2.4114   -0.5935    0.5641 C.ar      1 <0>        -0.1294
     15 C13         2.7482    0.5130    1.4729 C.2       1 <0>         0.3005
     16 N2          2.3722    1.7320    1.3183 N.2       1 <0>        -0.4987
     17 C14         1.5404    2.1462    0.1882 C.3       1 <0>         0.3150
     18 H1          1.3938    3.2259    0.2191 H         1 <0>         0.1681
     19 C15         0.2083    1.4539    0.2851 C.2       1 <0>         0.5076
     20 O2         -0.7945    2.1202    0.4313 O.2       1 <0>        -0.4976
     21 N3          2.1968    1.7736   -1.0675 N.am      1 <0>        -0.7447
     22 C16         2.7830    2.7194   -1.8279 C.2       1 <0>         0.7139
     23 O3          2.7672    3.8819   -1.4718 O.2       1 <0>        -0.5556
     24 N4          3.3869    2.3767   -2.9830 N.am      1 <0>        -0.6800
     25 C17         3.8978    3.3693   -3.8269 C.ar      1 <0>         0.2085
     26 C18         5.0393    3.1222   -4.5796 C.ar      1 <0>        -0.2037
     27 C19         5.5442    4.1012   -5.4132 C.ar      1 <0>        -0.0521
     28 C20         4.9164    5.3289   -5.5015 C.ar      1 <0>        -0.2126
     29 C21         3.7746    5.5824   -4.7515 C.ar      1 <0>         0.2319
     30 C22         3.2620    4.5987   -3.9169 C.ar      1 <0>        -0.1953
     31 N5          3.1404    6.8235   -4.8411 N.pl3     1 <0>        -0.7514
     32 C23         3.6791    7.8591   -5.7263 C.3       1 <0>         0.0933
     33 C24         3.5843    0.1981    2.6568 C.ar      1 <0>         0.1360
     34 C25         3.9351    1.2129    3.5444 C.ar      1 <0>        -0.1140
     35 C26         4.7116    0.9024    4.6485 C.ar      1 <0>        -0.0806
     36 C27         5.1206   -0.4115    4.8215 C.ar      1 <0>        -0.1513
     37 C28         4.7394   -1.3683    3.8965 C.ar      1 <0>         0.0985
     38 N6          3.9963   -1.0468    2.8587 N.ar      1 <0>        -0.4588
     39 H2         -3.0700   -1.7157   -3.1221 H         1 <0>         0.0610
     40 H3         -4.7604   -1.5207   -2.5998 H         1 <0>         0.0659
     41 H4         -3.7508   -0.0860   -2.9010 H         1 <0>         0.0614
     42 H5         -2.9855   -2.5645    0.5015 H         1 <0>         0.0633
     43 H6         -4.3135   -2.9680   -0.6129 H         1 <0>         0.0741
     44 H7         -2.6231   -3.1630   -1.1352 H         1 <0>         0.0612
     45 H8         -4.2596    0.7542   -0.6036 H         1 <0>         0.0631
     46 H9         -5.2692   -0.6805   -0.3025 H         1 <0>         0.0729
     47 H10        -3.9412   -0.2769    0.8119 H         1 <0>         0.0632
     48 H11        -1.1515   -1.3634    0.7796 H         1 <0>         0.1089
     49 H12        -1.8250    0.1842    1.0368 H         1 <0>         0.1302
     50 H13        -0.0522   -1.9434   -1.3273 H         1 <0>         0.1288
     51 H14         1.7234   -3.5637   -1.8063 H         1 <0>         0.1348
     52 H15         3.9469   -3.3045   -0.7767 H         1 <0>         0.1354
     53 H16         4.3927   -1.4225    0.7283 H         1 <0>         0.1424
     54 H17         2.2094    0.8462   -1.3516 H         1 <0>         0.4002
     55 H18         3.4673    1.4419   -3.2295 H         1 <0>         0.4075
     56 H19         5.5326    2.1638   -4.5126 H         1 <0>         0.1208
     57 H20         6.4314    3.9064   -5.9975 H         1 <0>         0.1255
     58 H21         5.3134    6.0921   -6.1544 H         1 <0>         0.1213
     59 H22         2.3722    4.7917   -3.3359 H         1 <0>         0.1329
     60 H23         2.3433    6.9999   -4.3172 H         1 <0>         0.4016
     61 H24         4.6964    8.1046   -5.4215 H         1 <0>         0.0525
     62 H25         3.6860    7.4922   -6.7527 H         1 <0>         0.0524
     63 H26         3.0557    8.7511   -5.6635 H         1 <0>         0.0730
     64 H27         3.6029    2.2267    3.3761 H         1 <0>         0.1507
     65 H28         4.9960    1.6670    5.3563 H         1 <0>         0.1418
     66 H29         5.7302   -0.6857    5.6699 H         1 <0>         0.1406
     67 H30         5.0557   -2.3925    4.0283 H         1 <0>         0.1637
@<TRIPOS>BOND
     1    1    2 1
     2    1   39 1
     3    1   40 1
     4    1   41 1
     5    2    3 1
     6    2    4 1
     7    2    5 1
     8    3   42 1
     9    3   43 1
    10    3   44 1
    11    4   45 1
    12    4   46 1
    13    4   47 1
    14    5    6 2
    15    5    7 1
    16    7    8 1
    17    7   48 1
    18    7   49 1
    19    8   19 am
    20    8    9 1
    21    9   14 ar
    22    9   10 ar
    23   10   11 ar
    24   10   50 1
    25   11   12 ar
    26   11   51 1
    27   12   13 ar
    28   12   52 1
    29   13   14 ar
    30   13   53 1
    31   14   15 1
    32   15   16 2
    33   15   33 1
    34   16   17 1
    35   17   18 1
    36   17   19 1
    37   17   21 1
    38   19   20 2
    39   21   22 am
    40   21   54 1
    41   22   23 2
    42   22   24 am
    43   24   25 1
    44   24   55 1
    45   25   30 ar
    46   25   26 ar
    47   26   27 ar
    48   26   56 1
    49   27   28 ar
    50   27   57 1
    51   28   29 ar
    52   28   58 1
    53   29   30 ar
    54   29   31 1
    55   30   59 1
    56   31   32 1
    57   31   60 1
    58   32   61 1
    59   32   62 1
    60   32   63 1
    61   33   38 ar
    62   33   34 ar
    63   34   35 ar
    64   34   64 1
    65   35   36 ar
    66   35   65 1
    67   36   37 ar
    68   36   66 1
    69   37   38 ar
    70   37   67 1
@<TRIPOS>MOLECULE
ZINC13732840
   51    54     0     0     0
SMALL
USER_CHARGES
1-[(3S)-1-methyl-2-oxo-5-phenyl-3H-1,4-benzodiazepin-3-yl]-3-(3-nitrophenyl)urea
@<TRIPOS>ATOM
      1 C1          0.2492   -0.1488    0.3022 C.3       1 <0>         0.0662
      2 N1          0.0838    1.3054    0.2393 N.am      1 <0>        -0.5505
      3 C2          1.2204    2.0690    0.0235 C.ar      1 <0>         0.1659
      4 C3          2.3870    1.6845    0.6879 C.ar      1 <0>        -0.1434
      5 C4          3.5561    2.3933    0.5214 C.ar      1 <0>        -0.0713
      6 C5          3.5854    3.4998   -0.3113 C.ar      1 <0>        -0.1291
      7 C6          2.4460    3.8936   -0.9735 C.ar      1 <0>        -0.0607
      8 C7          1.2467    3.1824   -0.8136 C.ar      1 <0>        -0.1392
      9 C8          0.0659    3.6622   -1.5486 C.2       1 <0>         0.2920
     10 N2         -1.1282    3.7064   -1.0738 N.2       1 <0>        -0.5045
     11 C9         -1.4355    3.2625    0.2853 C.3       1 <0>         0.3085
     12 H1         -2.4887    3.4445    0.4994 H         1 <0>         0.1664
     13 C10        -1.1471    1.7898    0.3886 C.2       1 <0>         0.5007
     14 O1         -2.0593    1.0243    0.6184 O.2       1 <0>        -0.4949
     15 N3         -0.6059    3.9997    1.2416 N.am      1 <0>        -0.7425
     16 C11        -1.1492    4.9813    1.9885 C.2       1 <0>         0.7168
     17 O2         -2.3277    5.2550    1.8686 O.2       1 <0>        -0.5543
     18 N4         -0.3860    5.6595    2.8683 N.am      1 <0>        -0.6806
     19 C12        -0.9688    6.6129    3.7109 C.ar      1 <0>         0.1682
     20 C13        -2.0136    7.4032    3.2497 C.ar      1 <0>        -0.0669
     21 C14        -2.5894    8.3401    4.0850 C.ar      1 <0>        -0.0951
     22 C15        -2.1201    8.4987    5.3763 C.ar      1 <0>        -0.0674
     23 C16        -1.0770    7.7168    5.8368 C.ar      1 <0>        -0.0245
     24 C17        -0.4999    6.7745    5.0077 C.ar      1 <0>        -0.0859
     25 N5         -0.5777    7.8898    7.2194 N.pl3     1 <0>         0.0279
     26 O3          0.3414    7.2015    7.6256 O.2       1 <0>        -0.1591
     27 O4         -1.0861    8.7204    7.9510 O.3       1 <0>        -0.1523
     28 C18         0.2678    4.1289   -2.9401 C.ar      1 <0>        -0.0760
     29 C19        -0.6387    5.0164   -3.5194 C.ar      1 <0>        -0.0650
     30 C20        -0.4432    5.4505   -4.8145 C.ar      1 <0>        -0.1267
     31 C21         0.6444    5.0000   -5.5413 C.ar      1 <0>        -0.0957
     32 C22         1.5445    4.1158   -4.9738 C.ar      1 <0>        -0.1260
     33 C23         1.3620    3.6779   -3.6780 C.ar      1 <0>        -0.0868
     34 H2          0.4418   -0.4484    1.3324 H         1 <0>         0.0711
     35 H3         -0.6600   -0.6337   -0.0532 H         1 <0>         0.0915
     36 H4          1.0890   -0.4465   -0.3257 H         1 <0>         0.0829
     37 H5          2.3722    0.8229    1.3390 H         1 <0>         0.1373
     38 H6          4.4517    2.0856    1.0408 H         1 <0>         0.1383
     39 H7          4.5034    4.0540   -0.4404 H         1 <0>         0.1377
     40 H8          2.4745    4.7567   -1.6220 H         1 <0>         0.1390
     41 H9          0.3343    3.7813    1.3372 H         1 <0>         0.3999
     42 H10         0.5673    5.4868    2.9174 H         1 <0>         0.4130
     43 H11        -2.3776    7.2829    2.2401 H         1 <0>         0.1601
     44 H12        -3.4046    8.9522    3.7284 H         1 <0>         0.1546
     45 H13        -2.5691    9.2352    6.0262 H         1 <0>         0.1570
     46 H14         0.3149    6.1640    5.3680 H         1 <0>         0.1560
     47 H15        -1.4903    5.3656   -2.9545 H         1 <0>         0.1348
     48 H16        -1.1426    6.1404   -5.2631 H         1 <0>         0.1290
     49 H17         0.7912    5.3396   -6.5559 H         1 <0>         0.1269
     50 H18         2.3914    3.7673   -5.5462 H         1 <0>         0.1288
     51 H19         2.0649    2.9871   -3.2363 H         1 <0>         0.1276
@<TRIPOS>BOND
     1    1    2 1
     2    1   34 1
     3    1   35 1
     4    1   36 1
     5    2   13 am
     6    2    3 1
     7    3    8 ar
     8    3    4 ar
     9    4    5 ar
    10    4   37 1
    11    5    6 ar
    12    5   38 1
    13    6    7 ar
    14    6   39 1
    15    7    8 ar
    16    7   40 1
    17    8    9 1
    18    9   10 2
    19    9   28 1
    20   10   11 1
    21   11   12 1
    22   11   13 1
    23   11   15 1
    24   13   14 2
    25   15   16 am
    26   15   41 1
    27   16   17 2
    28   16   18 am
    29   18   19 1
    30   18   42 1
    31   19   24 ar
    32   19   20 ar
    33   20   21 ar
    34   20   43 1
    35   21   22 ar
    36   21   44 1
    37   22   23 ar
    38   22   45 1
    39   23   24 ar
    40   23   25 1
    41   24   46 1
    42   25   26 2
    43   25   27 1
    44   28   33 ar
    45   28   29 ar
    46   29   30 ar
    47   29   47 1
    48   30   31 ar
    49   30   48 1
    50   31   32 ar
    51   31   49 1
    52   32   33 ar
    53   32   50 1
    54   33   51 1
@<TRIPOS>MOLECULE
ZINC13732817
   49    52     0     0     0
SMALL
USER_CHARGES
3-(3-fluorophenyl)-1-[(3S)-1-methyl-2-oxo-5-phenyl-3H-1,4-benzodiazepin-3-yl]urea
@<TRIPOS>ATOM
      1 C1          4.3892   -7.6136   -2.8263 C.3       1 <0>         0.0647
      2 N1          4.6192   -6.5846   -1.8092 N.am      1 <0>        -0.5490
      3 C2          5.9020   -6.4680   -1.2968 C.ar      1 <0>         0.1725
      4 C3          6.9647   -6.5922   -2.1943 C.ar      1 <0>        -0.1448
      5 C4          8.2675   -6.4940   -1.7581 C.ar      1 <0>        -0.0714
      6 C5          8.5367   -6.2698   -0.4179 C.ar      1 <0>        -0.1297
      7 C6          7.5027   -6.1434    0.4803 C.ar      1 <0>        -0.0570
      8 C7          6.1699   -6.2403    0.0513 C.ar      1 <0>        -0.1352
      9 C8          5.1145   -6.0932    1.0658 C.2       1 <0>         0.2849
     10 N2          4.0137   -5.4510    0.8942 N.2       1 <0>        -0.5098
     11 C9          3.6938   -4.7913   -0.3711 C.3       1 <0>         0.3046
     12 H1          4.4850   -4.0860   -0.6253 H         1 <0>         0.1294
     13 C10         3.5808   -5.8325   -1.4511 C.2       1 <0>         0.5064
     14 O1          2.5153   -5.9929   -2.0077 O.2       1 <0>        -0.5061
     15 N3          2.4215   -4.0763   -0.2438 N.am      1 <0>        -0.7008
     16 C11         2.4113   -2.7329   -0.1357 C.2       1 <0>         0.7169
     17 O2          3.4580   -2.1144   -0.1439 O.2       1 <0>        -0.5684
     18 N4          1.2408   -2.0752   -0.0186 N.am      1 <0>        -0.6793
     19 C12         1.2229   -0.6760   -0.0032 C.ar      1 <0>         0.1918
     20 C13         0.1698    0.0128   -0.5912 C.ar      1 <0>        -0.1560
     21 C14         0.1535    1.3937   -0.5747 C.ar      1 <0>        -0.0700
     22 C15         1.1844    2.0920    0.0264 C.ar      1 <0>        -0.1698
     23 C16         2.2363    1.4092    0.6139 C.ar      1 <0>         0.1185
     24 C17         2.2574    0.0259    0.6001 C.ar      1 <0>        -0.1576
     25 F1          3.2423    2.0941    1.2006 F         1 <0>        -0.1357
     26 C18         5.3369   -6.7322    2.3838 C.ar      1 <0>        -0.0689
     27 C19         6.1867   -7.8326    2.4938 C.ar      1 <0>        -0.0873
     28 C20         6.3928   -8.4211    3.7247 C.ar      1 <0>        -0.1252
     29 C21         5.7514   -7.9275    4.8467 C.ar      1 <0>        -0.0986
     30 C22         4.9035   -6.8392    4.7431 C.ar      1 <0>        -0.1267
     31 C23         4.6927   -6.2395    3.5184 C.ar      1 <0>        -0.0675
     32 H2          4.0992   -8.5456   -2.3412 H         1 <0>         0.0702
     33 H3          3.5932   -7.2900   -3.4970 H         1 <0>         0.0919
     34 H4          5.3042   -7.7707   -3.3976 H         1 <0>         0.0857
     35 H5          6.7631   -6.7668   -3.2408 H         1 <0>         0.1367
     36 H6          9.0805   -6.5915   -2.4622 H         1 <0>         0.1367
     37 H7          9.5590   -6.1945   -0.0780 H         1 <0>         0.1366
     38 H8          7.7181   -5.9686    1.5240 H         1 <0>         0.1384
     39 H9          1.5864   -4.5698   -0.2373 H         1 <0>         0.4104
     40 H10         0.4107   -2.5717    0.0551 H         1 <0>         0.4135
     41 H11        -0.6363   -0.5313   -1.0609 H         1 <0>         0.1337
     42 H12        -0.6633    1.9289   -1.0360 H         1 <0>         0.1388
     43 H13         1.1694    3.1719    0.0375 H         1 <0>         0.1373
     44 H14         3.0777   -0.5070    1.0578 H         1 <0>         0.1530
     45 H15         6.6848   -8.2214    1.6180 H         1 <0>         0.1280
     46 H16         7.0533   -9.2712    3.8118 H         1 <0>         0.1284
     47 H17         5.9129   -8.3938    5.8074 H         1 <0>         0.1261
     48 H18         4.4053   -6.4585    5.6224 H         1 <0>         0.1276
     49 H19         4.0301   -5.3904    3.4386 H         1 <0>         0.1322
@<TRIPOS>BOND
     1    1    2 1
     2    1   32 1
     3    1   33 1
     4    1   34 1
     5    2   13 am
     6    2    3 1
     7    3    8 ar
     8    3    4 ar
     9    4    5 ar
    10    4   35 1
    11    5    6 ar
    12    5   36 1
    13    6    7 ar
    14    6   37 1
    15    7    8 ar
    16    7   38 1
    17    8    9 1
    18    9   10 2
    19    9   26 1
    20   10   11 1
    21   11   12 1
    22   11   13 1
    23   11   15 1
    24   13   14 2
    25   15   16 am
    26   15   39 1
    27   16   17 2
    28   16   18 am
    29   18   19 1
    30   18   40 1
    31   19   24 ar
    32   19   20 ar
    33   20   21 ar
    34   20   41 1
    35   21   22 ar
    36   21   42 1
    37   22   23 ar
    38   22   43 1
    39   23   24 ar
    40   23   25 1
    41   24   44 1
    42   26   31 ar
    43   26   27 ar
    44   27   28 ar
    45   27   45 1
    46   28   29 ar
    47   28   46 1
    48   29   30 ar
    49   29   47 1
    50   30   31 ar
    51   30   48 1
    52   31   49 1
@<TRIPOS>MOLECULE
ZINC13732799
   49    52     0     0     0
SMALL
USER_CHARGES
3-(2,4-dichlorophenyl)-1-[(3S)-1-methyl-2-oxo-5-phenyl-3H-1,4-benzodiazepin-3-yl]urea
@<TRIPOS>ATOM
      1 C1          2.3973    1.1716   -0.1668 C.3       1 <0>         0.0584
      2 N1          1.1512    1.9335   -0.0524 N.am      1 <0>        -0.5507
      3 C2          1.2512    3.3141    0.0229 C.ar      1 <0>         0.1675
      4 C3          2.2821    3.8408    0.8039 C.ar      1 <0>        -0.1444
      5 C4          2.4455    5.2030    0.9253 C.ar      1 <0>        -0.0714
      6 C5          1.5843    6.0674    0.2695 C.ar      1 <0>        -0.1292
      7 C6          0.5632    5.5667   -0.5041 C.ar      1 <0>        -0.0601
      8 C7          0.3828    4.1812   -0.6367 C.ar      1 <0>        -0.1393
      9 C8         -0.7329    3.7159   -1.4754 C.2       1 <0>         0.2926
     10 N2         -1.5003    2.7232   -1.1941 N.2       1 <0>        -0.5041
     11 C9         -1.3257    1.9333    0.0174 C.3       1 <0>         0.3093
     12 H1         -2.1177    1.1871    0.0810 H         1 <0>         0.1670
     13 C10         0.0116    1.2460   -0.0292 C.2       1 <0>         0.5022
     14 O1          0.0524    0.0341   -0.0512 O.2       1 <0>        -0.4967
     15 N3         -1.3839    2.8148    1.1861 N.am      1 <0>        -0.7439
     16 C11        -2.4806    2.8239    1.9694 C.2       1 <0>         0.7171
     17 O2         -3.4218    2.1005    1.7061 O.2       1 <0>        -0.5514
     18 N4         -2.5341    3.6348    3.0445 N.am      1 <0>        -0.6750
     19 C12        -3.6374    3.5839    3.9058 C.ar      1 <0>         0.1825
     20 C13        -4.8671    3.1432    3.4356 C.ar      1 <0>        -0.1106
     21 C14        -5.9526    3.0898    4.2879 C.ar      1 <0>        -0.0798
     22 C15        -5.8182    3.4842    5.6077 C.ar      1 <0>        -0.0446
     23 C16        -4.5955    3.9289    6.0784 C.ar      1 <0>        -0.0791
     24 C17        -3.5047    3.9799    5.2310 C.ar      1 <0>        -0.0616
     25 Cl1        -1.9708    4.5384    5.8216 Cl        1 <0>        -0.0537
     26 Cl2        -7.1864    3.4213    6.6743 Cl        1 <0>        -0.0557
     27 C18        -0.9911    4.4452   -2.7389 C.ar      1 <0>        -0.0752
     28 C19        -2.2631    4.4268   -3.3105 C.ar      1 <0>        -0.0649
     29 C20        -2.4987    5.1124   -4.4846 C.ar      1 <0>        -0.1266
     30 C21        -1.4735    5.8079   -5.1004 C.ar      1 <0>        -0.0962
     31 C22        -0.2083    5.8254   -4.5410 C.ar      1 <0>        -0.1261
     32 C23         0.0383    5.1481   -3.3645 C.ar      1 <0>        -0.0866
     33 H2          2.1689    0.1070   -0.2167 H         1 <0>         0.1024
     34 H3          2.9255    1.4727   -1.0715 H         1 <0>         0.0746
     35 H4          3.0245    1.3682    0.7027 H         1 <0>         0.0748
     36 H5          2.9578    3.1734    1.3180 H         1 <0>         0.1375
     37 H6          3.2466    5.5979    1.5325 H         1 <0>         0.1377
     38 H7          1.7145    7.1352    0.3660 H         1 <0>         0.1375
     39 H8         -0.1050    6.2451   -1.0137 H         1 <0>         0.1391
     40 H9         -0.6331    3.3919    1.3961 H         1 <0>         0.3993
     41 H10        -1.8086    4.2537    3.2218 H         1 <0>         0.4112
     42 H11        -4.9739    2.8391    2.4048 H         1 <0>         0.1751
     43 H12        -6.9083    2.7438    3.9230 H         1 <0>         0.1458
     44 H13        -4.4934    4.2368    7.1085 H         1 <0>         0.1492
     45 H14        -3.0630    3.8802   -2.8332 H         1 <0>         0.1348
     46 H15        -3.4843    5.1023   -4.9260 H         1 <0>         0.1290
     47 H16        -1.6616    6.3389   -6.0218 H         1 <0>         0.1267
     48 H17         0.5880    6.3701   -5.0264 H         1 <0>         0.1284
     49 H18         1.0266    5.1620   -2.9291 H         1 <0>         0.1272
@<TRIPOS>BOND
     1    1    2 1
     2    1   33 1
     3    1   34 1
     4    1   35 1
     5    2   13 am
     6    2    3 1
     7    3    8 ar
     8    3    4 ar
     9    4    5 ar
    10    4   36 1
    11    5    6 ar
    12    5   37 1
    13    6    7 ar
    14    6   38 1
    15    7    8 ar
    16    7   39 1
    17    8    9 1
    18    9   10 2
    19    9   27 1
    20   10   11 1
    21   11   12 1
    22   11   13 1
    23   11   15 1
    24   13   14 2
    25   15   16 am
    26   15   40 1
    27   16   17 2
    28   16   18 am
    29   18   19 1
    30   18   41 1
    31   19   24 ar
    32   19   20 ar
    33   20   21 ar
    34   20   42 1
    35   21   22 ar
    36   21   43 1
    37   22   23 ar
    38   22   26 1
    39   23   24 ar
    40   23   44 1
    41   24   25 1
    42   27   32 ar
    43   27   28 ar
    44   28   29 ar
    45   28   45 1
    46   29   30 ar
    47   29   46 1
    48   30   31 ar
    49   30   47 1
    50   31   32 ar
    51   31   48 1
    52   32   49 1
@<TRIPOS>MOLECULE
ZINC13732802
   49    52     0     0     0
SMALL
USER_CHARGES
3-(2,4-dichlorophenyl)-1-[(3R)-1-methyl-2-oxo-5-phenyl-3H-1,4-benzodiazepin-3-yl]urea
@<TRIPOS>ATOM
      1 C1          2.0099    6.3587    2.9665 C.3       1 <0>         0.0609
      2 N1          1.6441    5.8817    1.6305 N.am      1 <0>        -0.5492
      3 C2          2.6382    5.2845    0.8711 C.ar      1 <0>         0.1729
      4 C3          3.9097    5.8606    0.9118 C.ar      1 <0>        -0.1422
      5 C4          4.9486    5.3213    0.1859 C.ar      1 <0>        -0.0718
      6 C5          4.7402    4.1964   -0.5951 C.ar      1 <0>        -0.1295
      7 C6          3.4942    3.6164   -0.6486 C.ar      1 <0>        -0.0580
      8 C7          2.4243    4.1537    0.0907 C.ar      1 <0>        -0.1358
      9 C8          1.1188    3.4845   -0.0219 C.2       1 <0>         0.2859
     10 N2         -0.0131    4.0893   -0.1012 N.2       1 <0>        -0.5100
     11 C9         -0.1117    5.5482   -0.0859 C.3       1 <0>         0.3055
     12 H1          0.4996    5.9638   -0.8870 H         1 <0>         0.1302
     13 C10         0.3832    6.0561    1.2408 C.2       1 <0>         0.5062
     14 O1         -0.3864    6.6398    1.9742 O.2       1 <0>        -0.5066
     15 N3         -1.5086    5.9476   -0.2741 N.am      1 <0>        -0.6995
     16 C11        -1.9137    6.4441   -1.4598 C.2       1 <0>         0.7203
     17 O2         -1.1198    6.5606   -2.3733 O.2       1 <0>        -0.5670
     18 N4         -3.1988    6.8115   -1.6328 N.am      1 <0>        -0.6781
     19 C12        -3.6483    7.2126   -2.8972 C.ar      1 <0>         0.1856
     20 C13        -3.1190    6.6297   -4.0407 C.ar      1 <0>        -0.0962
     21 C14        -3.5679    7.0229   -5.2863 C.ar      1 <0>        -0.0818
     22 C15        -4.5365    8.0053   -5.3962 C.ar      1 <0>        -0.0417
     23 C16        -5.0621    8.5925   -4.2589 C.ar      1 <0>        -0.0806
     24 C17        -4.6206    8.1987   -3.0096 C.ar      1 <0>        -0.0565
     25 Cl1        -5.2806    8.9351   -1.5828 Cl        1 <0>        -0.0498
     26 Cl2        -5.0926    8.5023   -6.9638 Cl        1 <0>        -0.0552
     27 C18         1.1072    2.0031   -0.0393 C.ar      1 <0>        -0.0690
     28 C19         2.1551    1.2879    0.5398 C.ar      1 <0>        -0.0872
     29 C20         2.1384   -0.0917    0.5208 C.ar      1 <0>        -0.1252
     30 C21         1.0850   -0.7654   -0.0711 C.ar      1 <0>        -0.0984
     31 C22         0.0424   -0.0615   -0.6468 C.ar      1 <0>        -0.1268
     32 C23         0.0480    1.3183   -0.6345 C.ar      1 <0>        -0.0673
     33 H2          1.1371    6.8024    3.4455 H         1 <0>         0.1017
     34 H3          2.3670    5.5214    3.5661 H         1 <0>         0.0745
     35 H4          2.7978    7.1072    2.8820 H         1 <0>         0.0752
     36 H5          4.0802    6.7374    1.5188 H         1 <0>         0.1358
     37 H6          5.9272    5.7764    0.2254 H         1 <0>         0.1366
     38 H7          5.5566    3.7747   -1.1627 H         1 <0>         0.1365
     39 H8          3.3373    2.7395   -1.2593 H         1 <0>         0.1384
     40 H9         -2.1420    5.8546    0.4547 H         1 <0>         0.4112
     41 H10        -3.8125    6.7980   -0.8817 H         1 <0>         0.4138
     42 H11        -2.3596    5.8664   -3.9561 H         1 <0>         0.1547
     43 H12        -3.1592    6.5666   -6.1757 H         1 <0>         0.1454
     44 H13        -5.8176    9.3591   -4.3474 H         1 <0>         0.1495
     45 H14         2.9758    1.8127    1.0061 H         1 <0>         0.1280
     46 H15         2.9495   -0.6467    0.9686 H         1 <0>         0.1284
     47 H16         1.0763   -1.8453   -0.0835 H         1 <0>         0.1260
     48 H17        -0.7774   -0.5930   -1.1071 H         1 <0>         0.1276
     49 H18        -0.7661    1.8667   -1.0849 H         1 <0>         0.1323
@<TRIPOS>BOND
     1    1    2 1
     2    1   33 1
     3    1   34 1
     4    1   35 1
     5    2   13 am
     6    2    3 1
     7    3    8 ar
     8    3    4 ar
     9    4    5 ar
    10    4   36 1
    11    5    6 ar
    12    5   37 1
    13    6    7 ar
    14    6   38 1
    15    7    8 ar
    16    7   39 1
    17    8    9 1
    18    9   10 2
    19    9   27 1
    20   10   11 1
    21   11   12 1
    22   11   13 1
    23   11   15 1
    24   13   14 2
    25   15   16 am
    26   15   40 1
    27   16   17 2
    28   16   18 am
    29   18   19 1
    30   18   41 1
    31   19   24 ar
    32   19   20 ar
    33   20   21 ar
    34   20   42 1
    35   21   22 ar
    36   21   43 1
    37   22   23 ar
    38   22   26 1
    39   23   24 ar
    40   23   44 1
    41   24   25 1
    42   27   32 ar
    43   27   28 ar
    44   28   29 ar
    45   28   45 1
    46   29   30 ar
    47   29   46 1
    48   30   31 ar
    49   30   47 1
    50   31   32 ar
    51   31   48 1
    52   32   49 1
@<TRIPOS>MOLECULE
ZINC27425663
   54    57     0     0     0
SMALL
USER_CHARGES
1-(3-acetylphenyl)-3-[(3S)-1-methyl-2-oxo-5-phenyl-3H-1,4-benzodiazepin-3-yl]urea
@<TRIPOS>ATOM
      1 C1         -4.3238   10.2121    4.5277 C.3       1 <0>        -0.2039
      2 C2         -3.7031    9.1871    3.6139 C.2       1 <0>         0.3922
      3 O1         -4.1189    9.0522    2.4829 O.2       1 <0>        -0.4507
      4 C3         -2.5921    8.3496    4.0943 C.ar      1 <0>        -0.1532
      5 C4         -2.1102    8.5027    5.3986 C.ar      1 <0>        -0.0919
      6 C5         -1.0691    7.7161    5.8450 C.ar      1 <0>        -0.1123
      7 C6         -0.4980    6.7752    5.0076 C.ar      1 <0>        -0.1159
      8 C7         -0.9687    6.6144    3.7098 C.ar      1 <0>         0.1558
      9 C8         -2.0110    7.4018    3.2477 C.ar      1 <0>        -0.0637
     10 N1         -0.3858    5.6605    2.8674 N.am      1 <0>        -0.6954
     11 C9         -1.1493    4.9808    1.9890 C.2       1 <0>         0.7146
     12 O2         -2.3282    5.2536    1.8698 O.2       1 <0>        -0.5591
     13 N2         -0.6060    3.9988    1.2426 N.am      1 <0>        -0.7578
     14 C10        -1.4359    3.2600    0.2878 C.3       1 <0>         0.3086
     15 H1         -2.4914    3.4754    0.5103 H         1 <0>         0.1658
     16 C11        -1.1464    1.7877    0.3924 C.2       1 <0>         0.5046
     17 O3         -2.0579    1.0218    0.6238 O.2       1 <0>        -0.4959
     18 N3          0.0847    1.3040    0.2426 N.am      1 <0>        -0.5506
     19 C12         1.2206    2.0681    0.0250 C.ar      1 <0>         0.1669
     20 C13         2.3880    1.6851    0.6888 C.ar      1 <0>        -0.1467
     21 C14         3.5565    2.3945    0.5206 C.ar      1 <0>        -0.0723
     22 C15         3.5843    3.5002   -0.3133 C.ar      1 <0>        -0.1299
     23 C16         2.4440    3.8925   -0.9750 C.ar      1 <0>        -0.0602
     24 C17         1.2454    3.1807   -0.8133 C.ar      1 <0>        -0.1347
     25 C18         0.0637    3.6589   -1.5478 C.2       1 <0>         0.2870
     26 N4         -1.1301    3.7027   -1.0720 N.2       1 <0>        -0.5017
     27 C19         0.2641    4.1242   -2.9400 C.ar      1 <0>        -0.0741
     28 C20        -0.6436    5.0106   -3.5194 C.ar      1 <0>        -0.0653
     29 C21        -0.4494    5.4435   -4.8151 C.ar      1 <0>        -0.1263
     30 C22         0.6378    4.9929   -5.5424 C.ar      1 <0>        -0.0972
     31 C23         1.5389    4.1098   -4.9747 C.ar      1 <0>        -0.1265
     32 C24         1.3579    3.6732   -3.6784 C.ar      1 <0>        -0.0881
     33 C25         0.2512   -0.1501    0.3069 C.3       1 <0>         0.0666
     34 H2         -3.8175   10.1874    5.5039 H         1 <0>         0.0850
     35 H3         -5.3915    9.9844    4.6625 H         1 <0>         0.0966
     36 H4         -4.2155   11.2126    4.0836 H         1 <0>         0.0964
     37 H5         -2.5529    9.2368    6.0554 H         1 <0>         0.1366
     38 H6         -0.6982    7.8355    6.8522 H         1 <0>         0.1343
     39 H7          0.3170    6.1625    5.3638 H         1 <0>         0.1300
     40 H8         -2.3750    7.2812    2.2381 H         1 <0>         0.1506
     41 H9          0.6954    5.4656    2.9223 H         1 <0>         0.4295
     42 H10         0.4605    3.7521    1.3504 H         1 <0>         0.4142
     43 H11         2.3744    0.8242    1.3408 H         1 <0>         0.1374
     44 H12         4.4527    2.0880    1.0395 H         1 <0>         0.1373
     45 H13         4.5018    4.0549   -0.4438 H         1 <0>         0.1368
     46 H14         2.4714    4.7550   -1.6244 H         1 <0>         0.1386
     47 H15        -1.4949    5.3598   -2.9540 H         1 <0>         0.1348
     48 H16        -1.1497    6.1325   -5.2637 H         1 <0>         0.1286
     49 H17         0.7835    5.3315   -6.5575 H         1 <0>         0.1263
     50 H18         2.3856    3.7613   -5.5475 H         1 <0>         0.1281
     51 H19         2.0616    2.9833   -3.2365 H         1 <0>         0.1271
     52 H20         1.3124   -0.4041    0.1679 H         1 <0>         0.0893
     53 H21        -0.3461   -0.6230   -0.4866 H         1 <0>         0.0764
     54 H22        -0.0877   -0.5149    1.2877 H         1 <0>         0.0775
@<TRIPOS>BOND
     1    1    2 1
     2    1   34 1
     3    1   35 1
     4    1   36 1
     5    2    3 2
     6    2    4 1
     7    4    9 ar
     8    4    5 ar
     9    5    6 ar
    10    5   37 1
    11    6    7 ar
    12    6   38 1
    13    7    8 ar
    14    7   39 1
    15    8    9 ar
    16    8   10 1
    17    9   40 1
    18   10   11 am
    19   10   41 1
    20   11   12 2
    21   11   13 am
    22   13   14 1
    23   13   42 1
    24   14   15 1
    25   14   26 1
    26   14   16 1
    27   16   17 2
    28   16   18 am
    29   18   19 1
    30   18   33 1
    31   19   24 ar
    32   19   20 ar
    33   20   21 ar
    34   20   43 1
    35   21   22 ar
    36   21   44 1
    37   22   23 ar
    38   22   45 1
    39   23   24 ar
    40   23   46 1
    41   24   25 1
    42   25   26 2
    43   25   27 1
    44   27   32 ar
    45   27   28 ar
    46   28   29 ar
    47   28   47 1
    48   29   30 ar
    49   29   48 1
    50   30   31 ar
    51   30   49 1
    52   31   32 ar
    53   31   50 1
    54   32   51 1
    55   33   52 1
    56   33   53 1
    57   33   54 1
@<TRIPOS>MOLECULE
ZINC13732894
   52    55     0     0     0
SMALL
USER_CHARGES
1-[(3R)-1-methyl-2-oxo-5-phenyl-3H-1,4-benzodiazepin-3-yl]-3-[3-(trifluoromethyl)phenyl]urea
@<TRIPOS>ATOM
      1 C1         -6.3498    0.2038   -1.7868 C.3       1 <0>         0.0610
      2 N1         -5.6249    1.1719   -0.9600 N.am      1 <0>        -0.5487
      3 C2         -6.3264    2.2795   -0.5098 C.ar      1 <0>         0.1718
      4 C3         -7.2109    2.8857   -1.4046 C.ar      1 <0>        -0.1421
      5 C4         -7.9446    3.9888   -1.0281 C.ar      1 <0>        -0.0721
      6 C5         -7.8108    4.5099    0.2484 C.ar      1 <0>        -0.1292
      7 C6         -6.9437    3.9267    1.1428 C.ar      1 <0>        -0.0577
      8 C7         -6.1889    2.8024    0.7743 C.ar      1 <0>        -0.1348
      9 C8         -5.2781    2.2330    1.7797 C.2       1 <0>         0.2853
     10 N2         -4.0935    1.7953    1.5350 N.2       1 <0>        -0.5101
     11 C9         -3.5255    1.8165    0.1876 C.3       1 <0>         0.3054
     12 H1         -3.5460    2.8339   -0.2031 H         1 <0>         0.1298
     13 C10        -4.3441    0.9194   -0.7002 C.2       1 <0>         0.5063
     14 O1         -3.8233   -0.0592   -1.1923 O.2       1 <0>        -0.5075
     15 N3         -2.1426    1.3351    0.2304 N.am      1 <0>        -0.7005
     16 C11        -1.1216    2.2065    0.1087 C.2       1 <0>         0.7192
     17 O2         -1.3483    3.3922   -0.0366 O.2       1 <0>        -0.5702
     18 N4          0.1507    1.7636    0.1481 N.am      1 <0>        -0.6802
     19 C12         1.2107    2.6770    0.1237 C.ar      1 <0>         0.1645
     20 C13         1.1092    3.8408   -0.6274 C.ar      1 <0>        -0.0873
     21 C14         2.1550    4.7425   -0.6456 C.ar      1 <0>        -0.0996
     22 C15         3.3067    4.4825    0.0746 C.ar      1 <0>        -0.0848
     23 C16         3.4129    3.3223    0.8191 C.ar      1 <0>        -0.1638
     24 C17         2.3682    2.4189    0.8457 C.ar      1 <0>        -0.0979
     25 C18         4.6698    3.0427    1.6020 C.3       1 <0>         0.5103
     26 F1          5.5707    2.3336    0.8002 F         1 <0>        -0.1753
     27 F2          5.2507    4.2520    1.9988 F         1 <0>        -0.1748
     28 F3          4.3550    2.2830    2.7338 F         1 <0>        -0.1766
     29 C19        -5.7613    2.1586    3.1782 C.ar      1 <0>        -0.0695
     30 C20        -4.8496    2.1297    4.2333 C.ar      1 <0>        -0.0673
     31 C21        -5.3059    2.0667    5.5340 C.ar      1 <0>        -0.1267
     32 C22        -6.6643    2.0202    5.7920 C.ar      1 <0>        -0.0982
     33 C23        -7.5733    2.0424    4.7493 C.ar      1 <0>        -0.1253
     34 C24        -7.1295    2.1115    3.4447 C.ar      1 <0>        -0.0873
     35 H2         -5.6794   -0.6086   -2.0671 H         1 <0>         0.1017
     36 H3         -7.1914   -0.1978   -1.2225 H         1 <0>         0.0745
     37 H4         -6.7180    0.6977   -2.6861 H         1 <0>         0.0753
     38 H5         -7.3210    2.4852   -2.4015 H         1 <0>         0.1358
     39 H6         -8.6251    4.4486   -1.7295 H         1 <0>         0.1366
     40 H7         -8.3874    5.3748    0.5414 H         1 <0>         0.1365
     41 H8         -6.8434    4.3369    2.1368 H         1 <0>         0.1383
     42 H9         -1.9617    0.3892    0.3464 H         1 <0>         0.4108
     43 H10         0.3318    0.8115    0.1894 H         1 <0>         0.4131
     44 H11         0.2118    4.0423   -1.1935 H         1 <0>         0.1500
     45 H12         2.0751    5.6496   -1.2262 H         1 <0>         0.1404
     46 H13         4.1250    5.1871    0.0552 H         1 <0>         0.1385
     47 H14         2.4517    1.5130    1.4277 H         1 <0>         0.1397
     48 H15        -3.7888    2.1610    4.0329 H         1 <0>         0.1323
     49 H16        -4.6011    2.0490    6.3521 H         1 <0>         0.1277
     50 H17        -7.0165    1.9660    6.8115 H         1 <0>         0.1262
     51 H18        -8.6326    2.0059    4.9570 H         1 <0>         0.1284
     52 H19        -7.8400    2.1295    2.6316 H         1 <0>         0.1280
@<TRIPOS>BOND
     1    1    2 1
     2    1   35 1
     3    1   36 1
     4    1   37 1
     5    2   13 am
     6    2    3 1
     7    3    8 ar
     8    3    4 ar
     9    4    5 ar
    10    4   38 1
    11    5    6 ar
    12    5   39 1
    13    6    7 ar
    14    6   40 1
    15    7    8 ar
    16    7   41 1
    17    8    9 1
    18    9   10 2
    19    9   29 1
    20   10   11 1
    21   11   12 1
    22   11   13 1
    23   11   15 1
    24   13   14 2
    25   15   16 am
    26   15   42 1
    27   16   17 2
    28   16   18 am
    29   18   19 1
    30   18   43 1
    31   19   24 ar
    32   19   20 ar
    33   20   21 ar
    34   20   44 1
    35   21   22 ar
    36   21   45 1
    37   22   23 ar
    38   22   46 1
    39   23   24 ar
    40   23   25 1
    41   24   47 1
    42   25   26 1
    43   25   27 1
    44   25   28 1
    45   29   34 ar
    46   29   30 ar
    47   30   31 ar
    48   30   48 1
    49   31   32 ar
    50   31   49 1
    51   32   33 ar
    52   32   50 1
    53   33   34 ar
    54   33   51 1
    55   34   52 1
@<TRIPOS>MOLECULE
ZINC16740073
   52    55     0     0     0
SMALL
USER_CHARGES
1-[(3S)-1-methyl-2-oxo-5-phenyl-3H-1,4-benzodiazepin-3-yl]-3-[3-(trifluoromethyl)phenyl]urea
@<TRIPOS>ATOM
      1 C1          0.2493   -0.1489    0.3023 C.3       1 <0>         0.0665
      2 N1          0.0838    1.3054    0.2394 N.am      1 <0>        -0.5507
      3 C2          1.2204    2.0690    0.0236 C.ar      1 <0>         0.1664
      4 C3          2.3870    1.6845    0.6879 C.ar      1 <0>        -0.1436
      5 C4          3.5561    2.3933    0.5214 C.ar      1 <0>        -0.0719
      6 C5          3.5854    3.4998   -0.3113 C.ar      1 <0>        -0.1293
      7 C6          2.4460    3.8936   -0.9735 C.ar      1 <0>        -0.0606
      8 C7          1.2467    3.1824   -0.8136 C.ar      1 <0>        -0.1380
      9 C8          0.0659    3.6622   -1.5486 C.2       1 <0>         0.2905
     10 N2         -1.1282    3.7063   -1.0738 N.2       1 <0>        -0.5036
     11 C9         -1.4355    3.2625    0.2853 C.3       1 <0>         0.3087
     12 H1         -2.4887    3.4444    0.4994 H         1 <0>         0.1661
     13 C10        -1.1471    1.7898    0.3886 C.2       1 <0>         0.5011
     14 O1         -2.0593    1.0243    0.6184 O.2       1 <0>        -0.4955
     15 N3         -0.6059    3.9997    1.2416 N.am      1 <0>        -0.7444
     16 C11        -1.1492    4.9813    1.9885 C.2       1 <0>         0.7152
     17 O2         -2.3278    5.2550    1.8686 O.2       1 <0>        -0.5548
     18 N4         -0.3860    5.6595    2.8683 N.am      1 <0>        -0.6815
     19 C12        -0.9687    6.6128    3.7108 C.ar      1 <0>         0.1617
     20 C13        -2.0136    7.4032    3.2497 C.ar      1 <0>        -0.0851
     21 C14        -2.5897    8.3398    4.0851 C.ar      1 <0>        -0.0987
     22 C15        -2.1204    8.4984    5.3764 C.ar      1 <0>        -0.0832
     23 C16        -1.0770    7.7168    5.8367 C.ar      1 <0>        -0.1642
     24 C17        -0.4999    6.7745    5.0077 C.ar      1 <0>        -0.0979
     25 C18        -0.5684    7.8933    7.2443 C.3       1 <0>         0.5102
     26 F1          0.4520    8.8503    7.2549 F         1 <0>        -0.1753
     27 F2         -1.6155    8.3189    8.0686 F         1 <0>        -0.1743
     28 F3         -0.0694    6.6744    7.7161 F         1 <0>        -0.1770
     29 C19         0.2678    4.1288   -2.9401 C.ar      1 <0>        -0.0751
     30 C20        -0.6388    5.0164   -3.5194 C.ar      1 <0>        -0.0650
     31 C21        -0.4432    5.4504   -4.8145 C.ar      1 <0>        -0.1267
     32 C22         0.6443    4.9999   -5.5413 C.ar      1 <0>        -0.0963
     33 C23         1.5444    4.1157   -4.9738 C.ar      1 <0>        -0.1262
     34 C24         1.3620    3.6779   -3.6780 C.ar      1 <0>        -0.0872
     35 H2          0.4419   -0.4484    1.3325 H         1 <0>         0.0708
     36 H3         -0.6600   -0.6337   -0.0531 H         1 <0>         0.0913
     37 H4          1.0890   -0.4465   -0.3257 H         1 <0>         0.0825
     38 H5          2.3722    0.8229    1.3390 H         1 <0>         0.1369
     39 H6          4.4517    2.0856    1.0408 H         1 <0>         0.1377
     40 H7          4.5034    4.0540   -0.4405 H         1 <0>         0.1373
     41 H8          2.4745    4.7567   -1.6220 H         1 <0>         0.1389
     42 H9          0.3343    3.7813    1.3372 H         1 <0>         0.3988
     43 H10         0.5673    5.4868    2.9174 H         1 <0>         0.4098
     44 H11        -2.3776    7.2829    2.2400 H         1 <0>         0.1504
     45 H12        -3.4049    8.9518    3.7285 H         1 <0>         0.1414
     46 H13        -2.5696    9.2346    6.0264 H         1 <0>         0.1390
     47 H14         0.3149    6.1640    5.3680 H         1 <0>         0.1386
     48 H15        -1.4904    5.3656   -2.9545 H         1 <0>         0.1350
     49 H16        -1.1427    6.1404   -5.2631 H         1 <0>         0.1289
     50 H17         0.7911    5.3395   -6.5559 H         1 <0>         0.1267
     51 H18         2.3913    3.7672   -5.5462 H         1 <0>         0.1285
     52 H19         2.0649    2.9871   -3.2363 H         1 <0>         0.1274
@<TRIPOS>BOND
     1    1    2 1
     2    1   35 1
     3    1   36 1
     4    1   37 1
     5    2   13 am
     6    2    3 1
     7    3    8 ar
     8    3    4 ar
     9    4    5 ar
    10    4   38 1
    11    5    6 ar
    12    5   39 1
    13    6    7 ar
    14    6   40 1
    15    7    8 ar
    16    7   41 1
    17    8    9 1
    18    9   10 2
    19    9   29 1
    20   10   11 1
    21   11   12 1
    22   11   13 1
    23   11   15 1
    24   13   14 2
    25   15   16 am
    26   15   42 1
    27   16   17 2
    28   16   18 am
    29   18   19 1
    30   18   43 1
    31   19   24 ar
    32   19   20 ar
    33   20   21 ar
    34   20   44 1
    35   21   22 ar
    36   21   45 1
    37   22   23 ar
    38   22   46 1
    39   23   24 ar
    40   23   25 1
    41   24   47 1
    42   25   26 1
    43   25   27 1
    44   25   28 1
    45   29   34 ar
    46   29   30 ar
    47   30   31 ar
    48   30   48 1
    49   31   32 ar
    50   31   49 1
    51   32   33 ar
    52   32   50 1
    53   33   34 ar
    54   33   51 1
    55   34   52 1
