@<TRIPOS>MOLECULE
ZINC18230030
   32    35     0     0     0
SMALL
USER_CHARGES

@<TRIPOS>ATOM
      1 C1         -0.0024    1.3636   -0.3852 C.ar      1 <0>        -0.1425
      2 C2          1.1843    2.0764   -0.3355 C.ar      1 <0>        -0.0866
      3 C3          2.3918    1.4233   -0.1939 C.ar      1 <0>        -0.1380
      4 C4          2.4281    0.0365   -0.0988 C.ar      1 <0>         0.1367
      5 C5          1.2250   -0.6816   -0.1490 C.ar      1 <0>        -0.0800
      6 C6          0.0127   -0.0131   -0.2925 C.ar      1 <0>        -0.0826
      7 C7          1.5867   -2.1097   -0.0238 C.2       1 <0>        -0.2056
      8 C8          0.7284   -3.2007   -0.0213 C.2       1 <0>         0.2986
      9 C9         -0.7457   -3.1540    0.0907 C.2       1 <0>         0.1829
     10 N1         -1.5003   -2.0946    0.2062 N.2       1 <0>        -0.2631
     11 O1         -2.9062   -2.2339    0.3026 O.3       1 <0>        -0.3834
     12 C10        -1.1809   -4.5701    0.0427 C.ar      1 <0>        -0.1642
     13 C11        -2.4307   -5.1782    0.1013 C.ar      1 <0>        -0.0259
     14 C12        -2.5280   -6.5532    0.0311 C.ar      1 <0>        -0.1512
     15 C13        -1.3849   -7.3243   -0.0969 C.ar      1 <0>        -0.0586
     16 C14        -0.1407   -6.7311   -0.1555 C.ar      1 <0>        -0.1447
     17 C15        -0.0228   -5.3458   -0.0871 C.ar      1 <0>         0.1647
     18 N2          1.0909   -4.5168   -0.1279 N.pl3     1 <0>        -0.6175
     19 C16         3.0493   -2.1247    0.0967 C.2       1 <0>         0.5684
     20 O2          3.7472   -3.1157    0.2192 O.2       1 <0>        -0.5230
     21 N3          3.4842   -0.8541    0.0471 N.am      1 <0>        -0.6490
     22 H1         -0.9413    1.8865   -0.4922 H         1 <0>         0.1273
     23 H2          1.1645    3.1537   -0.4088 H         1 <0>         0.1294
     24 H3          3.3103    1.9903   -0.1572 H         1 <0>         0.1266
     25 H4         -0.9122   -0.5695   -0.3311 H         1 <0>         0.1639
     26 H5         -3.3798   -1.3948    0.3850 H         1 <0>         0.4132
     27 H6         -3.3218   -4.5764    0.2018 H         1 <0>         0.1385
     28 H7         -3.4969   -7.0283    0.0763 H         1 <0>         0.1358
     29 H8         -1.4681   -8.3998   -0.1510 H         1 <0>         0.1377
     30 H9          0.7438   -7.3428   -0.2549 H         1 <0>         0.1344
     31 H10         2.0048   -4.8291   -0.2181 H         1 <0>         0.4389
     32 H11         4.4164   -0.5923    0.1057 H         1 <0>         0.4189
@<TRIPOS>BOND
     1    1    6 ar
     2    1    2 ar
     3    1   22 1
     4    2    3 ar
     5    2   23 1
     6    3    4 ar
     7    3   24 1
     8    4   21 1
     9    4    5 ar
    10    5    6 ar
    11    5    7 1
    12    6   25 1
    13    7    8 2
    14    7   19 1
    15    8   18 1
    16    8    9 1
    17    9   10 2
    18    9   12 1
    19   10   11 1
    20   11   26 1
    21   12   17 ar
    22   12   13 ar
    23   13   14 ar
    24   13   27 1
    25   14   15 ar
    26   14   28 1
    27   15   16 ar
    28   15   29 1
    29   16   17 ar
    30   16   30 1
    31   17   18 1
    32   18   31 1
    33   19   20 2
    34   19   21 am
    35   21   32 1
@<TRIPOS>MOLECULE
ZINC18230030
   32    35     0     0     0
SMALL
USER_CHARGES

@<TRIPOS>ATOM
      1 C1         -0.0166    1.3748    0.0096 C.ar      1 <0>        -0.1225
      2 C2          1.1716    2.0888    0.0021 C.ar      1 <0>        -0.0962
      3 C3          2.3849    1.4332   -0.0130 C.ar      1 <0>        -0.1155
      4 C4          2.4239    0.0437   -0.0209 C.ar      1 <0>         0.0981
      5 C5          1.2204   -0.6769   -0.0133 C.ar      1 <0>        -0.0528
      6 C6          0.0021   -0.0041    0.0020 C.ar      1 <0>        -0.0805
      7 C7          1.5974   -2.1049   -0.0246 C.2       1 <0>        -0.2093
      8 C8          2.9936   -2.1364   -0.0381 C.2       1 <0>         0.3333
      9 N1          3.4675   -0.8669   -0.0358 N.pl3     1 <0>        -0.5789
     10 H1          4.4078   -0.6287   -0.0438 H         1 <0>         0.4230
     11 O1          3.7505   -3.2537   -0.0509 O.3       1 <0>        -0.4537
     12 C9          0.7262   -3.2100   -0.0222 C.2       1 <0>         0.3448
     13 C10         0.1967   -3.8930    1.1657 C.2       1 <0>        -0.1671
     14 C11        -0.6625   -4.9778    0.6376 C.ar      1 <0>        -0.0626
     15 C12        -1.4332   -5.9613    1.2492 C.ar      1 <0>        -0.0741
     16 C13        -2.1438   -6.8553    0.4745 C.ar      1 <0>        -0.1171
     17 C14        -2.0895   -6.7734   -0.9072 C.ar      1 <0>        -0.1048
     18 C15        -1.3281   -5.8025   -1.5238 C.ar      1 <0>        -0.1132
     19 C16        -0.6049   -4.8915   -0.7591 C.ar      1 <0>         0.0632
     20 N2          0.2180   -3.8346   -1.1211 N.pl3     1 <0>        -0.5424
     21 H2          0.4086   -3.5762   -2.0364 H         1 <0>         0.4251
     22 N3          0.4346   -3.6041    2.4257 N.2       1 <0>        -0.2807
     23 O2         -0.0801   -4.2653    3.3097 O.2       1 <0>         0.0258
     24 H3         -0.9601    1.9001    0.0260 H         1 <0>         0.1313
     25 H4          1.1469    3.1685    0.0078 H         1 <0>         0.1340
     26 H5          3.3046    1.9993   -0.0191 H         1 <0>         0.1285
     27 H6         -0.9243   -0.5592    0.0083 H         1 <0>         0.1229
     28 H7          3.9627   -3.5749   -0.9380 H         1 <0>         0.4047
     29 H8         -1.4750   -6.0251    2.3265 H         1 <0>         0.1455
     30 H9         -2.7428   -7.6202    0.9462 H         1 <0>         0.1335
     31 H10        -2.6482   -7.4764   -1.5072 H         1 <0>         0.1325
     32 H11        -1.2933   -5.7487   -2.6019 H         1 <0>         0.1251
@<TRIPOS>BOND
     1    1    6 ar
     2    1    2 ar
     3    1   24 1
     4    2    3 ar
     5    2   25 1
     6    3    4 ar
     7    3   26 1
     8    4    9 1
     9    4    5 ar
    10    5    6 ar
    11    5    7 1
    12    6   27 1
    13    7    8 2
    14    7   12 1
    15    8    9 1
    16    8   11 1
    17    9   10 1
    18   11   28 1
    19   12   20 1
    20   12   13 2
    21   13   14 1
    22   13   22 1
    23   14   19 ar
    24   14   15 ar
    25   15   16 ar
    26   15   29 1
    27   16   17 ar
    28   16   30 1
    29   17   18 ar
    30   17   31 1
    31   18   19 ar
    32   18   32 1
    33   19   20 1
    34   20   21 1
    35   22   23 2
@<TRIPOS>MOLECULE
ZINC18230030
   32    35     0     0     0
SMALL
USER_CHARGES

@<TRIPOS>ATOM
      1 C1         -0.0166    1.3757    0.0096 C.ar      1 <0>        -0.1357
      2 C2          1.1722    2.0867    0.0021 C.ar      1 <0>        -0.0871
      3 C3          2.3853    1.4289   -0.0135 C.ar      1 <0>        -0.1330
      4 C4          2.4252    0.0389   -0.0214 C.ar      1 <0>         0.1465
      5 C5          1.2200   -0.6774   -0.0133 C.ar      1 <0>        -0.0875
      6 C6          0.0021   -0.0041    0.0020 C.ar      1 <0>        -0.0793
      7 C7          1.5867   -2.1097   -0.0238 C.2       1 <0>        -0.2136
      8 C8          0.7284   -3.2007   -0.0213 C.2       1 <0>         0.3077
      9 C9          1.1246   -4.6257   -0.0260 C.2       1 <0>         0.1435
     10 N1          2.3359   -5.1133   -0.0337 N.2       1 <0>        -0.2047
     11 O1          2.5348   -6.5152   -0.0374 O.3       1 <0>        -0.3879
     12 C10        -0.1511   -5.3804   -0.0197 C.ar      1 <0>        -0.1524
     13 C11        -0.4460   -6.7399   -0.0207 C.ar      1 <0>        -0.0325
     14 C12        -1.7620   -7.1560   -0.0139 C.ar      1 <0>        -0.1476
     15 C13        -2.7850   -6.2226   -0.0067 C.ar      1 <0>        -0.0650
     16 C14        -2.5032   -4.8720   -0.0061 C.ar      1 <0>        -0.1436
     17 C15        -1.1821   -4.4335   -0.0119 C.ar      1 <0>         0.1573
     18 N2         -0.6401   -3.1547   -0.0078 N.pl3     1 <0>        -0.6231
     19 C16         3.0542   -2.1288   -0.0380 C.2       1 <0>         0.5661
     20 O2          3.7569   -3.1240   -0.0505 O.2       1 <0>        -0.4814
     21 N3          3.4872   -0.8566   -0.0360 N.am      1 <0>        -0.6546
     22 H1         -0.9596    1.9020    0.0260 H         1 <0>         0.1299
     23 H2          1.1495    3.1665    0.0081 H         1 <0>         0.1317
     24 H3          3.3053    1.9946   -0.0200 H         1 <0>         0.1287
     25 H4         -0.9244   -0.5591    0.0079 H         1 <0>         0.1145
     26 H5          3.4646   -6.7806   -0.0431 H         1 <0>         0.4151
     27 H6          0.3522   -7.4674   -0.0270 H         1 <0>         0.1376
     28 H7         -1.9942   -8.2107   -0.0147 H         1 <0>         0.1348
     29 H8         -3.8126   -6.5549   -0.0018 H         1 <0>         0.1367
     30 H9         -3.3094   -4.1534   -0.0008 H         1 <0>         0.1326
     31 H10        -1.1620   -2.3371    0.0014 H         1 <0>         0.4278
     32 H11         4.4217   -0.5969   -0.0438 H         1 <0>         0.4186
@<TRIPOS>BOND
     1    1    6 ar
     2    1    2 ar
     3    1   22 1
     4    2    3 ar
     5    2   23 1
     6    3    4 ar
     7    3   24 1
     8    4   21 1
     9    4    5 ar
    10    5    6 ar
    11    5    7 1
    12    6   25 1
    13    7    8 2
    14    7   19 1
    15    8   18 1
    16    8    9 1
    17    9   10 2
    18    9   12 1
    19   10   11 1
    20   11   26 1
    21   12   17 ar
    22   12   13 ar
    23   13   14 ar
    24   13   27 1
    25   14   15 ar
    26   14   28 1
    27   15   16 ar
    28   15   29 1
    29   16   17 ar
    30   16   30 1
    31   17   18 1
    32   18   31 1
    33   19   20 2
    34   19   21 am
    35   21   32 1
@<TRIPOS>MOLECULE
ZINC38367317
   37    40     0     0     0
SMALL
USER_CHARGES

@<TRIPOS>ATOM
      1 C1         -0.0530    1.3116    0.0544 C.ar      1 <0>        -0.1073
      2 C2          1.1132    2.0321   -0.1339 C.ar      1 <0>        -0.1086
      3 C3          2.3309    1.3844   -0.1610 C.ar      1 <0>        -0.0835
      4 C4          2.3849   -0.0007    0.0020 C.ar      1 <0>        -0.0615
      5 C5          1.2049   -0.7215    0.1915 C.ar      1 <0>        -0.1190
      6 C6         -0.0064   -0.0617    0.2166 C.ar      1 <0>        -0.1167
      7 C7          3.6871   -0.7018   -0.0264 C.ar      1 <0>         0.0913
      8 C8          4.0309   -1.5771   -1.0842 C.ar      1 <0>        -0.2650
      9 C9          3.4182   -2.0213   -2.2479 C.2       1 <0>         0.4356
     10 N1          4.2681   -2.8664   -2.8567 N.pl3     1 <0>        -0.4257
     11 H1          4.0935   -3.3247   -3.6935 H         1 <0>         0.4511
     12 N2          5.4421   -2.9869   -2.1049 N.2       1 <0>        -0.2809
     13 C10         5.3506   -2.2312   -1.0284 C.ar      1 <0>         0.2373
     14 N3          6.1538   -1.9659    0.0149 N.ar      1 <0>        -0.2027
     15 N4          5.8017   -1.1647    0.9532 N.ar      1 <0>        -0.1384
     16 C11         4.6345   -0.5232    0.9888 C.ar      1 <0>         0.0135
     17 C12         4.3334    0.3855    2.1187 C.ar      1 <0>        -0.0243
     18 C13         3.0821    0.3472    2.7338 C.ar      1 <0>        -0.0976
     19 C14         2.8076    1.1965    3.7861 C.ar      1 <0>        -0.1199
     20 C15         3.7704    2.0846    4.2312 C.ar      1 <0>        -0.1127
     21 C16         5.0134    2.1274    3.6252 C.ar      1 <0>        -0.1202
     22 C17         5.3019    1.2792    2.5758 C.ar      1 <0>        -0.0881
     23 N5          2.1598   -1.6601   -2.6992 N.pl3     1 <0>        -0.5509
     24 N6          1.6792   -2.1771   -3.8687 N.3       1 <0>        -0.6075
     25 H2         -1.0034    1.8240    0.0793 H         1 <0>         0.1280
     26 H3          1.0699    3.1038   -0.2602 H         1 <0>         0.1304
     27 H4          3.2404    1.9479   -0.3084 H         1 <0>         0.1276
     28 H5          1.2399   -1.7935    0.3183 H         1 <0>         0.1243
     29 H6         -0.9203   -0.6182    0.3632 H         1 <0>         0.1289
     30 H7          2.3295   -0.3454    2.3870 H         1 <0>         0.1204
     31 H8          1.8390    1.1680    4.2629 H         1 <0>         0.1222
     32 H9          3.5507    2.7476    5.0550 H         1 <0>         0.1222
     33 H10         5.7609    2.8229    3.9772 H         1 <0>         0.1254
     34 H11         6.2741    1.3104    2.1065 H         1 <0>         0.1276
     35 H12         1.6196   -1.0399   -2.1849 H         1 <0>         0.4273
     36 H13         1.6844   -3.1859   -3.8471 H         1 <0>         0.3414
     37 H14         0.7549   -1.8245   -4.0671 H         1 <0>         0.3760
@<TRIPOS>BOND
     1    1    6 ar
     2    1    2 ar
     3    1   25 1
     4    2    3 ar
     5    2   26 1
     6    3    4 ar
     7    3   27 1
     8    4    5 ar
     9    4    7 1
    10    5    6 ar
    11    5   28 1
    12    6   29 1
    13    7   16 ar
    14    7    8 ar
    15    8   13 ar
    16    8    9 2
    17    9   10 1
    18    9   23 1
    19   10   11 1
    20   10   12 1
    21   12   13 2
    22   13   14 ar
    23   14   15 ar
    24   15   16 ar
    25   16   17 1
    26   17   22 ar
    27   17   18 ar
    28   18   19 ar
    29   18   30 1
    30   19   20 ar
    31   19   31 1
    32   20   21 ar
    33   20   32 1
    34   21   22 ar
    35   21   33 1
    36   22   34 1
    37   23   24 1
    38   23   35 1
    39   24   36 1
    40   24   37 1
@<TRIPOS>MOLECULE
ZINC38367317
   38    41     0     0     0
SMALL
USER_CHARGES

@<TRIPOS>ATOM
      1 C1         -0.0530    1.3116    0.0544 C.ar      1 <0>        -0.1001
      2 C2          1.1132    2.0321   -0.1339 C.ar      1 <0>        -0.1043
      3 C3          2.3309    1.3844   -0.1610 C.ar      1 <0>        -0.0810
      4 C4          2.3849   -0.0007    0.0020 C.ar      1 <0>        -0.0742
      5 C5          1.2049   -0.7215    0.1915 C.ar      1 <0>        -0.1275
      6 C6         -0.0064   -0.0617    0.2166 C.ar      1 <0>        -0.1163
      7 C7          3.6871   -0.7018   -0.0264 C.ar      1 <0>         0.0643
      8 C8          4.0309   -1.5771   -1.0842 C.ar      1 <0>        -0.2021
      9 C9          3.4182   -2.0213   -2.2479 C.2       1 <0>         0.3375
     10 N1          4.2681   -2.8664   -2.8567 N.pl3     1 <0>        -0.4167
     11 H1          4.0935   -3.3247   -3.6935 H         1 <0>         0.4484
     12 N2          5.4421   -2.9869   -2.1049 N.2       1 <0>        -0.2167
     13 C10         5.3506   -2.2312   -1.0284 C.ar      1 <0>         0.2256
     14 N3          6.1538   -1.9659    0.0149 N.ar      1 <0>        -0.1668
     15 N4          5.8017   -1.1647    0.9532 N.ar      1 <0>        -0.1264
     16 C11         4.6345   -0.5232    0.9888 C.ar      1 <0>         0.0674
     17 C12         4.3334    0.3855    2.1187 C.ar      1 <0>        -0.0521
     18 C13         3.0821    0.3472    2.7338 C.ar      1 <0>        -0.0907
     19 C14         2.8076    1.1965    3.7861 C.ar      1 <0>        -0.1199
     20 C15         3.7704    2.0846    4.2312 C.ar      1 <0>        -0.0983
     21 C16         5.0134    2.1274    3.6252 C.ar      1 <0>        -0.1179
     22 C17         5.3019    1.2792    2.5758 C.ar      1 <0>        -0.0797
     23 N5          2.1598   -1.6601   -2.6992 N.pl3     1 <0>        -0.5849
     24 N6          1.6792   -2.1771   -3.8687 N.4       1 <0>        -0.3911
     25 H2         -1.0034    1.8240    0.0793 H         1 <0>         0.1335
     26 H3          1.0699    3.1038   -0.2602 H         1 <0>         0.1355
     27 H4          3.2404    1.9479   -0.3084 H         1 <0>         0.1309
     28 H5          1.2399   -1.7935    0.3183 H         1 <0>         0.1280
     29 H6         -0.9203   -0.6182    0.3632 H         1 <0>         0.1339
     30 H7          2.3295   -0.3454    2.3870 H         1 <0>         0.1213
     31 H8          1.8390    1.1680    4.2629 H         1 <0>         0.1271
     32 H9          3.5507    2.7476    5.0550 H         1 <0>         0.1284
     33 H10         5.7609    2.8229    3.9772 H         1 <0>         0.1315
     34 H11         6.2741    1.3104    2.1065 H         1 <0>         0.1302
     35 H12         1.6196   -1.0399   -2.1849 H         1 <0>         0.4745
     36 H13         2.2931   -1.9207   -4.6272 H         1 <0>         0.4411
     37 H14         1.6335   -3.1827   -3.7982 H         1 <0>         0.4412
     38 H15         0.7559   -1.8101   -4.0444 H         1 <0>         0.4662
@<TRIPOS>BOND
     1    1    6 ar
     2    1    2 ar
     3    1   25 1
     4    2    3 ar
     5    2   26 1
     6    3    4 ar
     7    3   27 1
     8    4    5 ar
     9    4    7 1
    10    5    6 ar
    11    5   28 1
    12    6   29 1
    13    7   16 ar
    14    7    8 ar
    15    8   13 ar
    16    8    9 2
    17    9   23 1
    18    9   10 1
    19   10   11 1
    20   10   12 1
    21   12   13 2
    22   13   14 ar
    23   14   15 ar
    24   15   16 ar
    25   16   17 1
    26   17   22 ar
    27   17   18 ar
    28   18   19 ar
    29   18   30 1
    30   19   20 ar
    31   19   31 1
    32   20   21 ar
    33   20   32 1
    34   21   22 ar
    35   21   33 1
    36   22   34 1
    37   23   24 1
    38   23   35 1
    39   24   36 1
    40   24   37 1
    41   24   38 1
@<TRIPOS>MOLECULE
ZINC38367317
   38    41     0     0     0
SMALL
USER_CHARGES

@<TRIPOS>ATOM
      1 C1         -0.0606    1.2969    0.0641 C.ar      1 <0>        -0.0981
      2 C2          1.1031    2.0206   -0.1263 C.ar      1 <0>        -0.1047
      3 C3          2.3227    1.3762   -0.1558 C.ar      1 <0>        -0.0800
      4 C4          2.3808   -0.0083    0.0071 C.ar      1 <0>        -0.0778
      5 C5          1.2037   -0.7323    0.1988 C.ar      1 <0>        -0.1231
      6 C6         -0.0096   -0.0761    0.2261 C.ar      1 <0>        -0.1161
      7 C7          3.6857   -0.7060   -0.0239 C.ar      1 <0>         0.0627
      8 C8          4.0279   -1.5766   -1.0765 C.ar      1 <0>        -0.1648
      9 C9          5.2891   -2.2076   -1.0405 C.ar      1 <0>         0.2781
     10 N1          5.3672   -2.9867   -2.1614 N.pl3     1 <0>        -0.4538
     11 H1          6.1239   -3.5415   -2.4073 H         1 <0>         0.4661
     12 N2          4.1851   -2.8584   -2.8980 N.2       1 <0>        -0.2503
     13 C10         3.3677   -2.0355   -2.2930 C.2       1 <0>         0.3261
     14 N3          2.0939   -1.6644   -2.7321 N.pl3     1 <0>        -0.5772
     15 N4          1.5977   -2.1749   -3.8980 N.4       1 <0>        -0.3807
     16 N5          6.1097   -1.9649   -0.0249 N.ar      1 <0>        -0.2212
     17 N6          5.7976   -1.1714    0.9343 N.ar      1 <0>        -0.1443
     18 C11         4.6379   -0.5234    0.9923 C.ar      1 <0>         0.0924
     19 C12         4.3485    0.3831    2.1283 C.ar      1 <0>        -0.0569
     20 C13         3.1017    0.3482    2.7515 C.ar      1 <0>        -0.0878
     21 C14         2.8383    1.1944    3.8092 C.ar      1 <0>        -0.1192
     22 C15         3.8082    2.0761    4.2514 C.ar      1 <0>        -0.0953
     23 C16         5.0469    2.1156    3.6367 C.ar      1 <0>        -0.1180
     24 C17         5.3239    1.2702    2.5818 C.ar      1 <0>        -0.0776
     25 H2         -1.0125    1.8065    0.0908 H         1 <0>         0.1341
     26 H3          1.0566    3.0922   -0.2526 H         1 <0>         0.1360
     27 H4          3.2303    1.9422   -0.3048 H         1 <0>         0.1305
     28 H5          1.2422   -1.8043    0.3250 H         1 <0>         0.1286
     29 H6         -0.9215   -0.6355    0.3744 H         1 <0>         0.1349
     30 H7          1.5621   -1.0444   -2.2090 H         1 <0>         0.4697
     31 H8          1.5492   -3.1805   -3.8310 H         1 <0>         0.4433
     32 H9          0.6738   -1.8037   -4.0614 H         1 <0>         0.4579
     33 H10         2.3436   -0.3395    2.4070 H         1 <0>         0.1224
     34 H11         1.8728    1.1686    4.2926 H         1 <0>         0.1287
     35 H12         3.5975    2.7365    5.0795 H         1 <0>         0.1297
     36 H13         5.8000    2.8066    3.9858 H         1 <0>         0.1324
     37 H14         6.2930    1.2985    2.1058 H         1 <0>         0.1301
     38 H15         2.2037   -1.9176   -4.6626 H         1 <0>         0.4431
@<TRIPOS>BOND
     1    1    6 ar
     2    1    2 ar
     3    1   25 1
     4    2    3 ar
     5    2   26 1
     6    3    4 ar
     7    3   27 1
     8    4    5 ar
     9    4    7 1
    10    5    6 ar
    11    5   28 1
    12    6   29 1
    13    7   18 ar
    14    7    8 ar
    15    8   13 1
    16    8    9 ar
    17    9   10 1
    18    9   16 ar
    19   10   11 1
    20   10   12 1
    21   12   13 2
    22   13   14 1
    23   14   15 1
    24   14   30 1
    25   15   31 1
    26   15   32 1
    27   15   38 1
    28   16   17 ar
    29   17   18 ar
    30   18   19 1
    31   19   24 ar
    32   19   20 ar
    33   20   21 ar
    34   20   33 1
    35   21   22 ar
    36   21   34 1
    37   22   23 ar
    38   22   35 1
    39   23   24 ar
    40   23   36 1
    41   24   37 1
@<TRIPOS>MOLECULE
ZINC05646855
   49    53     0     0     0
SMALL
USER_CHARGES

@<TRIPOS>ATOM
      1 C1         -0.1344    1.1494    0.3331 C.ar      1 <0>        -0.1060
      2 C2          0.9412    1.9948    0.1258 C.ar      1 <0>        -0.1088
      3 C3          2.2082    1.4755   -0.0422 C.ar      1 <0>        -0.0834
      4 C4          2.4037    0.0941   -0.0028 C.ar      1 <0>        -0.0652
      5 C5          1.3144   -0.7531    0.2067 C.ar      1 <0>        -0.1201
      6 C6          0.0526   -0.2209    0.3732 C.ar      1 <0>        -0.1162
      7 C7          3.7594   -0.4697   -0.1826 C.ar      1 <0>         0.0796
      8 C8          4.0945   -1.2363   -1.3251 C.ar      1 <0>        -0.2390
      9 C9          3.4312   -1.6634   -2.4658 C.2       1 <0>         0.3948
     10 N1          4.3023   -2.3783   -3.1986 N.pl3     1 <0>        -0.3804
     11 H1          4.1015   -2.7969   -4.0503 H         1 <0>         0.4629
     12 N2          5.5419   -2.4290   -2.5513 N.2       1 <0>        -0.2584
     13 C10         5.4701   -1.7571   -1.4189 C.ar      1 <0>         0.2235
     14 N3          6.3291   -1.4805   -0.4244 N.ar      1 <0>        -0.1856
     15 N4          5.9829   -0.7810    0.5939 N.ar      1 <0>        -0.1411
     16 C11         4.7673   -0.2632    0.7662 C.ar      1 <0>         0.0312
     17 C12         4.4775    0.5354    1.9792 C.ar      1 <0>        -0.0298
     18 C13         3.2929    0.3300    2.6865 C.ar      1 <0>        -0.0947
     19 C14         3.0287    1.0772    3.8159 C.ar      1 <0>        -0.1198
     20 C15         3.9355    2.0290    4.2469 C.ar      1 <0>        -0.1100
     21 C16         5.1119    2.2378    3.5494 C.ar      1 <0>        -0.1204
     22 C17         5.3907    1.4922    2.4224 C.ar      1 <0>        -0.0859
     23 N5          2.1071   -1.4003   -2.7918 N.am      1 <0>        -0.6448
     24 C18         1.5874   -1.8799   -3.9391 C.2       1 <0>         0.7100
     25 O1          2.2778   -2.5431   -4.6888 O.2       1 <0>        -0.5582
     26 N6          0.3024   -1.6245   -4.2555 N.am      1 <0>        -0.6650
     27 C19        -0.2664   -2.2051   -5.3945 C.ar      1 <0>         0.1484
     28 C20        -1.2280   -1.5150   -6.1209 C.ar      1 <0>        -0.1386
     29 C21        -1.7875   -2.0908   -7.2446 C.ar      1 <0>        -0.0985
     30 C22        -1.3912   -3.3531   -7.6467 C.ar      1 <0>        -0.1271
     31 C23        -0.4342   -4.0431   -6.9254 C.ar      1 <0>        -0.0986
     32 C24         0.1337   -3.4703   -5.8042 C.ar      1 <0>        -0.1179
     33 H2         -1.1235    1.5613    0.4685 H         1 <0>         0.1291
     34 H3          0.7885    3.0635    0.0952 H         1 <0>         0.1309
     35 H4          3.0469    2.1364   -0.2043 H         1 <0>         0.1281
     36 H5          1.4590   -1.8229    0.2379 H         1 <0>         0.1269
     37 H6         -0.7911   -0.8753    0.5353 H         1 <0>         0.1312
     38 H7          2.5839   -0.4122    2.3506 H         1 <0>         0.1215
     39 H8          2.1118    0.9191    4.3643 H         1 <0>         0.1233
     40 H9          3.7240    2.6117    5.1313 H         1 <0>         0.1231
     41 H10         5.8156    2.9827    3.8904 H         1 <0>         0.1262
     42 H11         6.3116    1.6527    1.8815 H         1 <0>         0.1281
     43 H12         1.5563   -0.8712   -2.1938 H         1 <0>         0.4296
     44 H13        -0.2281   -1.0382   -3.6936 H         1 <0>         0.4151
     45 H14        -1.5382   -0.5292   -5.8071 H         1 <0>         0.1279
     46 H15        -2.5357   -1.5548   -7.8097 H         1 <0>         0.1304
     47 H16        -1.8302   -3.8012   -8.5259 H         1 <0>         0.1272
     48 H17        -0.1270   -5.0289   -7.2418 H         1 <0>         0.1292
     49 H18         0.8847   -4.0075   -5.2442 H         1 <0>         0.1355
@<TRIPOS>BOND
     1    1    6 ar
     2    1    2 ar
     3    1   33 1
     4    2    3 ar
     5    2   34 1
     6    3    4 ar
     7    3   35 1
     8    4    5 ar
     9    4    7 1
    10    5    6 ar
    11    5   36 1
    12    6   37 1
    13    7   16 ar
    14    7    8 ar
    15    8   13 ar
    16    8    9 2
    17    9   10 1
    18    9   23 1
    19   10   11 1
    20   10   12 1
    21   12   13 2
    22   13   14 ar
    23   14   15 ar
    24   15   16 ar
    25   16   17 1
    26   17   22 ar
    27   17   18 ar
    28   18   19 ar
    29   18   38 1
    30   19   20 ar
    31   19   39 1
    32   20   21 ar
    33   20   40 1
    34   21   22 ar
    35   21   41 1
    36   22   42 1
    37   23   24 am
    38   23   43 1
    39   24   25 2
    40   24   26 am
    41   26   27 1
    42   26   44 1
    43   27   32 ar
    44   27   28 ar
    45   28   29 ar
    46   28   45 1
    47   29   30 ar
    48   29   46 1
    49   30   31 ar
    50   30   47 1
    51   31   32 ar
    52   31   48 1
    53   32   49 1
@<TRIPOS>MOLECULE
ZINC05646855
   49    53     0     0     0
SMALL
USER_CHARGES

@<TRIPOS>ATOM
      1 C1         -0.8115    0.6866    0.0392 C.ar      1 <0>        -0.0999
      2 C2          0.1791    1.6389   -0.1221 C.ar      1 <0>        -0.1091
      3 C3          1.5025    1.2560   -0.1976 C.ar      1 <0>        -0.0834
      4 C4          1.8408   -0.0947   -0.1106 C.ar      1 <0>        -0.0733
      5 C5          0.8372   -1.0501    0.0525 C.ar      1 <0>        -0.1121
      6 C6         -0.4825   -0.6544    0.1262 C.ar      1 <0>        -0.1095
      7 C7          3.2584   -0.5124   -0.1913 C.ar      1 <0>         0.0638
      8 C8          3.7514   -1.2260   -1.3009 C.ar      1 <0>        -0.1691
      9 C9          5.1139   -1.5912   -1.3105 C.ar      1 <0>         0.2738
     10 N1          5.3288   -2.2642   -2.4813 N.pl3     1 <0>        -0.4726
     11 H1          6.1773   -2.6385   -2.7656 H         1 <0>         0.4568
     12 N2          4.1333   -2.3288   -3.2043 N.2       1 <0>        -0.2127
     13 C10         3.1773   -1.7283   -2.5434 C.2       1 <0>         0.3403
     14 N3          1.8468   -1.5931   -2.9537 N.pl3     1 <0>        -0.5796
     15 C11         1.4426   -2.1184   -4.1548 C.2       1 <0>         0.5941
     16 N4          0.1961   -1.9918   -4.5393 N.2       1 <0>        -0.5983
     17 C12        -0.2394   -2.6274   -5.6723 C.ar      1 <0>         0.1185
     18 C13        -0.0910   -4.0094   -5.8019 C.ar      1 <0>        -0.1783
     19 C14        -0.5321   -4.6431   -6.9452 C.ar      1 <0>        -0.0941
     20 C15        -1.1204   -3.9121   -7.9619 C.ar      1 <0>        -0.1367
     21 C16        -1.2701   -2.5421   -7.8401 C.ar      1 <0>        -0.0975
     22 C17        -0.8387   -1.8966   -6.6998 C.ar      1 <0>        -0.1212
     23 O1          2.3291   -2.7660   -4.9410 O.3       1 <0>        -0.4913
     24 N5          5.8854   -1.2544   -0.2833 N.ar      1 <0>        -0.2363
     25 N6          5.4360   -0.6036    0.7274 N.ar      1 <0>        -0.1578
     26 C18         4.1705   -0.2090    0.8325 C.ar      1 <0>         0.0713
     27 C19         3.7234    0.5448    2.0275 C.ar      1 <0>        -0.0392
     28 C20         2.5220    0.2152    2.6538 C.ar      1 <0>        -0.0888
     29 C21         2.1111    0.9204    3.7665 C.ar      1 <0>        -0.1192
     30 C22         2.8882    1.9528    4.2604 C.ar      1 <0>        -0.1047
     31 C23         4.0811    2.2843    3.6433 C.ar      1 <0>        -0.1211
     32 C24         4.5052    1.5825    2.5334 C.ar      1 <0>        -0.0823
     33 H2         -1.8456    0.9918    0.1019 H         1 <0>         0.1295
     34 H3         -0.0841    2.6842   -0.1894 H         1 <0>         0.1309
     35 H4          2.2748    2.0003   -0.3242 H         1 <0>         0.1264
     36 H5          1.0927   -2.0973    0.1202 H         1 <0>         0.1265
     37 H6         -1.2603   -1.3930    0.2521 H         1 <0>         0.1320
     38 H7          0.3683   -4.5811   -5.0091 H         1 <0>         0.1220
     39 H8         -0.4176   -5.7122   -7.0469 H         1 <0>         0.1248
     40 H9         -1.4640   -4.4132   -8.8548 H         1 <0>         0.1241
     41 H10        -1.7299   -1.9773   -8.6377 H         1 <0>         0.1268
     42 H11        -0.9602   -0.8277   -6.6041 H         1 <0>         0.1271
     43 H12         1.9661   -3.0518   -5.7905 H         1 <0>         0.4188
     44 H13         1.9141   -0.5901    2.2686 H         1 <0>         0.1241
     45 H14         1.1807    0.6661    4.2525 H         1 <0>         0.1259
     46 H15         2.5622    2.5023    5.1311 H         1 <0>         0.1249
     47 H16         4.6836    3.0912    4.0334 H         1 <0>         0.1276
     48 H17         5.4389    1.8393    2.0551 H         1 <0>         0.1280
     49 H18         1.2099   -1.1279   -2.3889 H         1 <0>         0.4503
@<TRIPOS>BOND
     1    1    6 ar
     2    1    2 ar
     3    1   33 1
     4    2    3 ar
     5    2   34 1
     6    3    4 ar
     7    3   35 1
     8    4    5 ar
     9    4    7 1
    10    5    6 ar
    11    5   36 1
    12    6   37 1
    13    7   26 ar
    14    7    8 ar
    15    8   13 1
    16    8    9 ar
    17    9   24 ar
    18    9   10 1
    19   10   11 1
    20   10   12 1
    21   12   13 2
    22   13   14 1
    23   14   15 1
    24   14   49 1
    25   15   16 2
    26   15   23 1
    27   16   17 1
    28   17   22 ar
    29   17   18 ar
    30   18   19 ar
    31   18   38 1
    32   19   20 ar
    33   19   39 1
    34   20   21 ar
    35   20   40 1
    36   21   22 ar
    37   21   41 1
    38   22   42 1
    39   23   43 1
    40   24   25 ar
    41   25   26 ar
    42   26   27 1
    43   27   32 ar
    44   27   28 ar
    45   28   29 ar
    46   28   44 1
    47   29   30 ar
    48   29   45 1
    49   30   31 ar
    50   30   46 1
    51   31   32 ar
    52   31   47 1
    53   32   48 1
@<TRIPOS>MOLECULE
ZINC05646855
   50    54     0     0     0
SMALL
USER_CHARGES

@<TRIPOS>ATOM
      1 C1          0.6708    1.2927   -0.0955 C.ar      1 <0>        -0.0993
      2 C2          1.9591    1.7810   -0.2218 C.ar      1 <0>        -0.1052
      3 C3          3.0377    0.9290   -0.1021 C.ar      1 <0>        -0.0808
      4 C4          2.8270   -0.4275    0.1473 C.ar      1 <0>        -0.0796
      5 C5          1.5254   -0.9136    0.2741 C.ar      1 <0>        -0.1252
      6 C6          0.4552   -0.0514    0.1518 C.ar      1 <0>        -0.1169
      7 C7          3.9795   -1.3471    0.2764 C.ar      1 <0>         0.0565
      8 C8          4.2548   -2.3212   -0.7028 C.ar      1 <0>        -0.1601
      9 C9          5.3706   -3.1634   -0.5144 C.ar      1 <0>         0.2718
     10 N1          5.4104   -4.0045   -1.5918 N.pl3     1 <0>        -0.4509
     11 H1          6.0728   -4.6979   -1.7380 H         1 <0>         0.4670
     12 N2          4.3461   -3.7087   -2.4497 N.2       1 <0>        -0.1803
     13 C10         3.6394   -2.7214   -1.9625 C.2       1 <0>         0.2934
     14 N3          2.5007   -2.1537   -2.5438 N.pl3     1 <0>        -0.5516
     15 C11         2.0295   -2.6332   -3.7397 C.cat     1 <0>         0.6981
     16 N4          0.9627   -2.1013   -4.2844 N.pl3     1 <0>        -0.5721
     17 C12         0.4026   -2.6746   -5.3958 C.ar      1 <0>         0.0406
     18 C13         0.2589   -4.0611   -5.4725 C.ar      1 <0>        -0.1495
     19 C14        -0.3063   -4.6317   -6.5942 C.ar      1 <0>        -0.0816
     20 C15        -0.7303   -3.8332   -7.6415 C.ar      1 <0>        -0.0817
     21 C16        -0.5904   -2.4584   -7.5721 C.ar      1 <0>        -0.0866
     22 C17        -0.0322   -1.8744   -6.4538 C.ar      1 <0>        -0.0892
     23 O1          2.6649   -3.6531   -4.3557 O.3       1 <0>        -0.4011
     24 N5          6.1227   -3.0147    0.5701 N.ar      1 <0>        -0.2162
     25 N6          5.8720   -2.1265    1.4619 N.ar      1 <0>        -0.1467
     26 C18         4.8487   -1.2816    1.3776 C.ar      1 <0>         0.0960
     27 C19         4.6238   -0.2772    2.4437 C.ar      1 <0>        -0.0560
     28 C20         3.3393   -0.0594    2.9405 C.ar      1 <0>        -0.0878
     29 C21         3.1362    0.8769    3.9336 C.ar      1 <0>        -0.1192
     30 C22         4.2038    1.5991    4.4359 C.ar      1 <0>        -0.0956
     31 C23         5.4804    1.3874    3.9470 C.ar      1 <0>        -0.1182
     32 C24         5.6968    0.4497    2.9580 C.ar      1 <0>        -0.0772
     33 H2         -0.1701    1.9644   -0.1860 H         1 <0>         0.1348
     34 H3          2.1208    2.8312   -0.4148 H         1 <0>         0.1367
     35 H4          4.0429    1.3112   -0.2016 H         1 <0>         0.1317
     36 H5          1.3558   -1.9627    0.4668 H         1 <0>         0.1296
     37 H6         -0.5528   -0.4264    0.2494 H         1 <0>         0.1358
     38 H7          0.5898   -4.6855   -4.6559 H         1 <0>         0.1438
     39 H8         -0.4177   -5.7042   -6.6550 H         1 <0>         0.1499
     40 H9         -1.1721   -4.2850   -8.5173 H         1 <0>         0.1469
     41 H10        -0.9231   -1.8409   -8.3932 H         1 <0>         0.1498
     42 H11         0.0724   -0.8009   -6.3990 H         1 <0>         0.1464
     43 H12         2.3077   -3.8697   -5.2278 H         1 <0>         0.4463
     44 H13         2.5050   -0.6222    2.5485 H         1 <0>         0.1226
     45 H14         2.1417    1.0465    4.3191 H         1 <0>         0.1285
     46 H15         4.0399    2.3314    5.2127 H         1 <0>         0.1295
     47 H16         6.3101    1.9542    4.3431 H         1 <0>         0.1322
     48 H17         6.6946    0.2820    2.5803 H         1 <0>         0.1302
     49 H18         2.0443   -1.4210   -2.1014 H         1 <0>         0.4611
     50 H19         0.5696   -1.3018   -3.9007 H         1 <0>         0.4490
@<TRIPOS>BOND
     1    1    6 ar
     2    1    2 ar
     3    1   33 1
     4    2    3 ar
     5    2   34 1
     6    3    4 ar
     7    3   35 1
     8    4    5 ar
     9    4    7 1
    10    5    6 ar
    11    5   36 1
    12    6   37 1
    13    7   26 ar
    14    7    8 ar
    15    8   13 1
    16    8    9 ar
    17    9   24 ar
    18    9   10 1
    19   10   11 1
    20   10   12 1
    21   12   13 2
    22   13   14 1
    23   14   15 1
    24   14   49 1
    25   15   16 2
    26   15   23 1
    27   16   17 1
    28   16   50 1
    29   17   22 ar
    30   17   18 ar
    31   18   19 ar
    32   18   38 1
    33   19   20 ar
    34   19   39 1
    35   20   21 ar
    36   20   40 1
    37   21   22 ar
    38   21   41 1
    39   22   42 1
    40   23   43 1
    41   24   25 ar
    42   25   26 ar
    43   26   27 1
    44   27   32 ar
    45   27   28 ar
    46   28   29 ar
    47   28   44 1
    48   29   30 ar
    49   29   45 1
    50   30   31 ar
    51   30   46 1
    52   31   32 ar
    53   31   47 1
    54   32   48 1
@<TRIPOS>MOLECULE
ZINC05646855
   50    54     0     0     0
SMALL
NO_CHARGES

@<TRIPOS>ATOM
      1 C1          0.5962    1.3195   -0.1663 C.ar      1 <0>        -0.1143
      2 C2          1.8859    1.8067   -0.2834 C.ar      1 <0>        -0.1096
      3 C3          2.9628    0.9536   -0.1577 C.ar      1 <0>        -0.0903
      4 C4          2.7491   -0.4035    0.0886 C.ar      1 <0>        -0.0469
      5 C5          1.4456   -0.8884    0.2061 C.ar      1 <0>        -0.1260
      6 C6          0.3775   -0.0248    0.0778 C.ar      1 <0>        -0.1181
      7 C7          3.8991   -1.3239    0.2240 C.ar      1 <0>         0.0259
      8 C8          4.1819   -2.3017   -0.7602 C.ar      1 <0>        -0.2000
      9 C9          5.3487   -3.1748   -0.5404 C.ar      1 <0>         0.2346
     10 N1          5.4082   -3.9912   -1.5743 N.2       1 <0>        -0.2824
     11 H1          4.1849   -4.1689   -3.2858 H         1 <0>         0.4471
     12 N2          4.3560   -3.7050   -2.4513 N.pl3     1 <0>        -0.4252
     13 C10         3.6175   -2.6914   -1.9662 C.2       1 <0>         0.2846
     14 N3          2.4950   -2.1362   -2.5634 N.pl3     1 <0>        -0.5241
     15 C11         2.0446   -2.6238   -3.7650 C.cat     1 <0>         0.3468
     16 N4          0.9844   -2.0994   -4.3290 N.pl3     1 <0>        -0.5864
     17 C12         0.4442   -2.6809   -5.4459 C.ar      1 <0>         0.1020
     18 C13         0.3071   -4.0683   -5.5174 C.ar      1 <0>        -0.1790
     19 C14        -0.2376   -4.6473   -6.6449 C.ar      1 <0>        -0.0781
     20 C15        -0.6471   -3.8561   -7.7035 C.ar      1 <0>        -0.1396
     21 C16        -0.5137   -2.4804   -7.6393 C.ar      1 <0>        -0.0820
     22 C17         0.0232   -1.8881   -6.5150 C.ar      1 <0>        -0.1389
     23 O1          2.6942   -3.6439   -4.3658 O.3       1 <0>        -0.4648
     24 N5          6.0785   -3.0007    0.5734 N.ar      1 <0>        -0.2264
     25 N6          5.7860   -2.1014    1.4404 N.ar      1 <0>        -0.1559
     26 C18         4.7576   -1.2617    1.3278 C.ar      1 <0>         0.0182
     27 C19         4.5159   -0.2549    2.3866 C.ar      1 <0>        -0.0167
     28 C20         3.2248   -0.0432    2.8702 C.ar      1 <0>        -0.1003
     29 C21         3.0061    0.8959    3.8570 C.ar      1 <0>        -0.1204
     30 C22         4.0643    1.6269    4.3669 C.ar      1 <0>        -0.1172
     31 C23         5.3471    1.4219    3.8912 C.ar      1 <0>        -0.1206
     32 C24         5.5794    0.4816    2.9085 C.ar      1 <0>        -0.0911
     33 H2         -0.2433    1.9922   -0.2614 H         1 <0>         0.1263
     34 H3          2.0499    2.8570   -0.4740 H         1 <0>         0.1282
     35 H4          3.9690    1.3350   -0.2501 H         1 <0>         0.1263
     36 H5          1.2735   -1.9375    0.3964 H         1 <0>         0.1248
     37 H6         -0.6317   -0.3988    0.1682 H         1 <0>         0.1277
     38 H7          0.6271   -4.6871   -4.6920 H         1 <0>         0.1330
     39 H8         -0.3442   -5.7205   -6.7015 H         1 <0>         0.1319
     40 H9         -1.0726   -4.3144   -8.5840 H         1 <0>         0.1285
     41 H10        -0.8348   -1.8687   -8.4694 H         1 <0>         0.1315
     42 H11         0.1223   -0.8139   -6.4642 H         1 <0>         0.1297
     43 H12         2.3515   -3.8666   -5.2422 H         1 <0>         0.4277
     44 H13         2.3979   -0.6130    2.4726 H         1 <0>         0.1197
     45 H14         2.0068    1.0610    4.2320 H         1 <0>         0.1203
     46 H15         3.8881    2.3609    5.1394 H         1 <0>         0.1204
     47 H16         6.1690    1.9959    4.2929 H         1 <0>         0.1236
     48 H17         6.5820    0.3189    2.5413 H         1 <0>         0.1263
     49 H18         2.0284   -1.4034   -2.1318 H         1 <0>         0.4435
     50 H19         0.5821   -1.2996   -3.9557 H         1 <0>         0.4254
@<TRIPOS>BOND
     1    1    6 ar
     2    1    2 ar
     3    1   33 1
     4    2    3 ar
     5    2   34 1
     6    3    4 ar
     7    3   35 1
     8    4    5 ar
     9    4    7 1
    10    5    6 ar
    11    5   36 1
    12    6   37 1
    13    7   26 ar
    14    7    8 ar
    15    8    9 ar
    16    8   13 2
    17    9   24 ar
    18    9   10 2
    19   10   12 1
    20   11   12 1
    21   12   13 1
    22   13   14 1
    23   14   15 1
    24   14   49 1
    25   15   16 2
    26   15   23 1
    27   16   17 1
    28   16   50 1
    29   17   22 ar
    30   17   18 ar
    31   18   19 ar
    32   18   38 1
    33   19   20 ar
    34   19   39 1
    35   20   21 ar
    36   20   40 1
    37   21   22 ar
    38   21   41 1
    39   22   42 1
    40   23   43 1
    41   24   25 ar
    42   25   26 ar
    43   26   27 1
    44   27   32 ar
    45   27   28 ar
    46   28   29 ar
    47   28   44 1
    48   29   30 ar
    49   29   45 1
    50   30   31 ar
    51   30   46 1
    52   31   32 ar
    53   31   47 1
    54   32   48 1
@<TRIPOS>MOLECULE
ZINC05646855
   49    53     0     0     0
SMALL
USER_CHARGES

@<TRIPOS>ATOM
      1 C1         -0.1477    1.1701    0.3682 C.ar      1 <0>        -0.1037
      2 C2          0.9267    2.0148    0.1532 C.ar      1 <0>        -0.1094
      3 C3          2.1916    1.4945   -0.0280 C.ar      1 <0>        -0.0828
      4 C4          2.3860    0.1132    0.0062 C.ar      1 <0>        -0.0666
      5 C5          1.2984   -0.7332    0.2239 C.ar      1 <0>        -0.1143
      6 C6          0.0384   -0.2004    0.4033 C.ar      1 <0>        -0.1156
      7 C7          3.7401   -0.4517   -0.1880 C.ar      1 <0>         0.0582
      8 C8          4.0625   -1.2097   -1.3303 C.ar      1 <0>        -0.1681
      9 C9          3.3389   -1.6439   -2.5191 C.2       1 <0>         0.3472
     10 N1          4.1684   -2.3401   -3.2526 N.2       1 <0>        -0.1931
     11 H1          6.1973   -2.8659   -2.9810 H         1 <0>         0.4563
     12 N2          5.4192   -2.4052   -2.6300 N.pl3     1 <0>        -0.4753
     13 C10         5.3733   -1.7172   -1.4491 C.ar      1 <0>         0.2717
     14 N3          6.2575   -1.4673   -0.4902 N.ar      1 <0>        -0.2354
     15 N4          5.9637   -0.7757    0.5502 N.ar      1 <0>        -0.1595
     16 C11         4.7599   -0.2498    0.7562 C.ar      1 <0>         0.0698
     17 C12         4.4942    0.5431    1.9797 C.ar      1 <0>        -0.0383
     18 C13         3.3184    0.3429    2.7019 C.ar      1 <0>        -0.0898
     19 C14         3.0768    1.0838    3.8407 C.ar      1 <0>        -0.1194
     20 C15         3.9981    2.0240    4.2659 C.ar      1 <0>        -0.1052
     21 C16         5.1665    2.2270    3.5536 C.ar      1 <0>        -0.1208
     22 C17         5.4218    1.4881    2.4165 C.ar      1 <0>        -0.0825
     23 N5          2.0004   -1.3664   -2.8205 N.am      1 <0>        -0.6385
     24 C18         1.4557   -1.8335   -3.9614 C.2       1 <0>         0.6985
     25 O1          2.1271   -2.4959   -4.7289 O.2       1 <0>        -0.5186
     26 N6          0.1670   -1.5663   -4.2516 N.am      1 <0>        -0.6768
     27 C19        -0.4271   -2.1332   -5.3847 C.ar      1 <0>         0.1590
     28 C20        -1.3962   -1.4297   -6.0879 C.ar      1 <0>        -0.1441
     29 C21        -1.9807   -1.9920   -7.2058 C.ar      1 <0>        -0.0997
     30 C22        -1.6018   -3.2541   -7.6251 C.ar      1 <0>        -0.1329
     31 C23        -0.6370   -3.9571   -6.9272 C.ar      1 <0>        -0.0989
     32 C24        -0.0446   -3.3980   -5.8118 C.ar      1 <0>        -0.1192
     33 H2         -1.1353    1.5825    0.5136 H         1 <0>         0.1297
     34 H3          0.7749    3.0837    0.1269 H         1 <0>         0.1311
     35 H4          3.0294    2.1548   -0.1965 H         1 <0>         0.1271
     36 H5          1.4424   -1.8032    0.2511 H         1 <0>         0.1273
     37 H6         -0.8043   -0.8546    0.5715 H         1 <0>         0.1321
     38 H7          2.5981   -0.3904    2.3704 H         1 <0>         0.1233
     39 H8          2.1664    0.9296    4.4008 H         1 <0>         0.1255
     40 H9          3.8044    2.6020    5.1574 H         1 <0>         0.1249
     41 H10         5.8821    2.9624    3.8904 H         1 <0>         0.1277
     42 H11         6.3363    1.6443    1.8636 H         1 <0>         0.1283
     43 H12         1.4648   -0.8380   -2.2082 H         1 <0>         0.4202
     44 H13        -0.3487   -0.9811   -3.6751 H         1 <0>         0.4093
     45 H14        -1.6928   -0.4442   -5.7606 H         1 <0>         0.1259
     46 H15        -2.7347   -1.4456   -7.7528 H         1 <0>         0.1278
     47 H16        -2.0605   -3.6917   -8.4994 H         1 <0>         0.1246
     48 H17        -0.3435   -4.9427   -7.2570 H         1 <0>         0.1269
     49 H18         0.7122   -3.9457   -5.2699 H         1 <0>         0.1364
@<TRIPOS>BOND
     1    1    6 ar
     2    1    2 ar
     3    1   33 1
     4    2    3 ar
     5    2   34 1
     6    3    4 ar
     7    3   35 1
     8    4    5 ar
     9    4    7 1
    10    5    6 ar
    11    5   36 1
    12    6   37 1
    13    7   16 ar
    14    7    8 ar
    15    8    9 1
    16    8   13 ar
    17    9   23 1
    18    9   10 2
    19   10   12 1
    20   11   12 1
    21   12   13 1
    22   13   14 ar
    23   14   15 ar
    24   15   16 ar
    25   16   17 1
    26   17   22 ar
    27   17   18 ar
    28   18   19 ar
    29   18   38 1
    30   19   20 ar
    31   19   39 1
    32   20   21 ar
    33   20   40 1
    34   21   22 ar
    35   21   41 1
    36   22   42 1
    37   23   24 am
    38   23   43 1
    39   24   25 2
    40   24   26 am
    41   26   27 1
    42   26   44 1
    43   27   32 ar
    44   27   28 ar
    45   28   29 ar
    46   28   45 1
    47   29   30 ar
    48   29   46 1
    49   30   31 ar
    50   30   47 1
    51   31   32 ar
    52   31   48 1
    53   32   49 1
@<TRIPOS>MOLECULE
ZINC00582590
   54    56     0     0     0
SMALL
USER_CHARGES

@<TRIPOS>ATOM
      1 C1          0.3210   -0.2542   -0.2950 C.3       1 <0>        -0.1471
      2 C2         -0.6989    0.1485    0.7720 C.3       1 <0>        -0.0980
      3 C3         -0.9526    1.6552    0.6922 C.3       1 <0>        -0.1473
      4 C4         -2.0102   -0.6029    0.5335 C.3       1 <0>         0.1711
      5 H1         -2.4152   -0.3269   -0.4401 H         1 <0>         0.1082
      6 C5         -3.0151   -0.2346    1.6269 C.3       1 <0>         0.0616
      7 O1         -2.4404   -0.4943    2.9092 O.3       1 <0>        -0.5710
      8 N1         -1.7592   -2.0458    0.5668 N.pl3     1 <0>        -0.6786
      9 C6         -2.6062   -2.9119   -0.1051 C.ar      1 <0>         0.6293
     10 N2         -3.6349   -2.4098   -0.7763 N.ar      1 <0>        -0.6062
     11 C7         -4.4751   -3.1988   -1.4363 C.ar      1 <0>         0.5376
     12 C8         -4.2539   -4.5867   -1.4114 C.ar      1 <0>        -0.1535
     13 C9         -3.1523   -5.0726   -0.6878 C.ar      1 <0>         0.3509
     14 N3         -2.3585   -4.2107   -0.0601 N.ar      1 <0>        -0.6161
     15 N4         -3.1762   -6.4368   -0.8324 N.pl3     1 <0>        -0.4727
     16 C10        -4.2520   -6.7464   -1.6124 C.2       1 <0>         0.2292
     17 N5         -4.8825   -5.6599   -1.9508 N.2       1 <0>        -0.4526
     18 C11        -2.2219   -7.3866   -0.2551 C.3       1 <0>         0.1354
     19 C12        -2.9632   -8.3593    0.6643 C.3       1 <0>        -0.1619
     20 C13        -1.5372   -8.1679   -1.3784 C.3       1 <0>        -0.1618
     21 N6         -5.5464   -2.6655   -2.1337 N.pl3     1 <0>        -0.6280
     22 C14        -5.6825   -1.2864   -2.2512 C.ar      1 <0>         0.1488
     23 C15        -4.5525   -0.4885   -2.4166 C.ar      1 <0>        -0.1220
     24 C16        -4.6779    0.8657   -2.5326 C.ar      1 <0>        -0.0594
     25 C17        -5.9451    1.4590   -2.4857 C.ar      1 <0>        -0.1364
     26 C18        -7.0831    0.6589   -2.3195 C.ar      1 <0>         0.0117
     27 C19        -6.9477   -0.7079   -2.2089 C.ar      1 <0>        -0.1557
     28 Cl1        -8.6583    1.3861   -2.2597 Cl        1 <0>        -0.0441
     29 C20        -6.0813    2.9182   -2.6102 C.2       1 <0>         0.5168
     30 O2         -5.0862    3.6154   -2.7549 O.co2     1 <0>        -0.6900
     31 O3         -7.1896    3.4349   -2.5690 O.co2     1 <0>        -0.6630
     32 H2          1.2552    0.2811   -0.1251 H         1 <0>         0.0549
     33 H3          0.5018   -1.3276   -0.2382 H         1 <0>         0.0529
     34 H4         -0.0674   -0.0030   -1.2820 H         1 <0>         0.0568
     35 H5         -0.3105   -0.1028    1.7590 H         1 <0>         0.0821
     36 H6         -1.3236    1.9090   -0.3008 H         1 <0>         0.0629
     37 H7         -1.6929    1.9391    1.4402 H         1 <0>         0.0595
     38 H8         -0.0222    2.1908    0.8803 H         1 <0>         0.0576
     39 H9         -3.2659    0.8232    1.5485 H         1 <0>         0.0601
     40 H10        -3.9187   -0.8321    1.5060 H         1 <0>         0.0503
     41 H11        -3.0232   -0.2835    3.6514 H         1 <0>         0.3749
     42 H12        -0.9999   -2.3948    1.0594 H         1 <0>         0.4127
     43 H13        -4.5374   -7.7457   -1.9061 H         1 <0>         0.2129
     44 H14        -1.4715   -6.8438    0.3196 H         1 <0>         0.1056
     45 H15        -3.7136   -8.9021    0.0895 H         1 <0>         0.0647
     46 H16        -2.2531   -9.0660    1.0938 H         1 <0>         0.0772
     47 H17        -3.4510   -7.8027    1.4645 H         1 <0>         0.0630
     48 H18        -1.0091   -7.4750   -2.0333 H         1 <0>         0.0633
     49 H19        -0.8272   -8.8746   -0.9489 H         1 <0>         0.0771
     50 H20        -2.2876   -8.7108   -1.9531 H         1 <0>         0.0647
     51 H21        -6.2018   -3.2539   -2.5402 H         1 <0>         0.4250
     52 H22        -3.5736   -0.9432   -2.4528 H         1 <0>         0.1261
     53 H23        -3.7989    1.4800   -2.6603 H         1 <0>         0.1350
     54 H24        -7.8223   -1.3294   -2.0853 H         1 <0>         0.1255
@<TRIPOS>BOND
     1    1    2 1
     2    1   32 1
     3    1   33 1
     4    1   34 1
     5    2    3 1
     6    2    4 1
     7    2   35 1
     8    3   36 1
     9    3   37 1
    10    3   38 1
    11    4    5 1
    12    4    6 1
    13    4    8 1
    14    6    7 1
    15    6   39 1
    16    6   40 1
    17    7   41 1
    18    8    9 1
    19    8   42 1
    20    9   14 ar
    21    9   10 ar
    22   10   11 ar
    23   11   12 ar
    24   11   21 1
    25   12   17 1
    26   12   13 ar
    27   13   14 ar
    28   13   15 1
    29   15   16 1
    30   15   18 1
    31   16   17 2
    32   16   43 1
    33   18   19 1
    34   18   20 1
    35   18   44 1
    36   19   45 1
    37   19   46 1
    38   19   47 1
    39   20   48 1
    40   20   49 1
    41   20   50 1
    42   21   22 1
    43   21   51 1
    44   22   27 ar
    45   22   23 ar
    46   23   24 ar
    47   23   52 1
    48   24   25 ar
    49   24   53 1
    50   25   26 ar
    51   25   29 1
    52   26   27 ar
    53   26   28 1
    54   27   54 1
    55   29   30 2
    56   29   31 1
@<TRIPOS>MOLECULE
ZINC10254746
   54    56     0     0     0
SMALL
USER_CHARGES
2-chloro-4-[[2-[[(1S)-1-(hydroxymethyl)-2-methyl-propyl]amino]-9-isopropyl-purin-6-yl]amino]benzoic acid
@<TRIPOS>ATOM
      1 C1          8.6928    4.9687   -2.2469 C.3       1 <0>        -0.1430
      2 C2          7.3574    4.2723   -1.9773 C.3       1 <0>        -0.1025
      3 C3          7.3630    2.8883   -2.6295 C.3       1 <0>        -0.1458
      4 C4          7.1552    4.1240   -0.4680 C.3       1 <0>         0.1689
      5 H1          7.9323    3.4783   -0.0590 H         1 <0>         0.1087
      6 C5          7.2347    5.5006    0.1950 C.3       1 <0>         0.0620
      7 O1          6.2542    6.3649   -0.3828 O.3       1 <0>        -0.5639
      8 N1          5.8409    3.5316   -0.2073 N.pl3     1 <0>        -0.6781
      9 C6          5.6819    2.6282    0.8307 C.ar      1 <0>         0.6156
     10 N2          4.4766    2.1235    1.0619 N.ar      1 <0>        -0.5902
     11 C7          4.2734    1.2540    2.0451 C.ar      1 <0>         0.4775
     12 C8          5.3651    0.8789    2.8472 C.ar      1 <0>        -0.1162
     13 C9          6.6233    1.4343    2.5614 C.ar      1 <0>         0.3408
     14 N3          6.7371    2.2979    1.5573 N.ar      1 <0>        -0.5980
     15 N4          7.4915    0.8970    3.4778 N.pl3     1 <0>        -0.4734
     16 C10         6.7748    0.0506    4.2725 C.2       1 <0>         0.2374
     17 N5          5.5287    0.0390    3.8987 N.2       1 <0>        -0.4443
     18 C11         8.9248    1.1805    3.5841 C.3       1 <0>         0.1356
     19 C12         9.2276    1.7679    4.9641 C.3       1 <0>        -0.1627
     20 C13         9.7163   -0.1154    3.3967 C.3       1 <0>        -0.1624
     21 N6          3.0117    0.7325    2.2788 N.pl3     1 <0>        -0.5366
     22 C14         1.9335    1.1448    1.5014 C.ar      1 <0>         0.0927
     23 C15         0.8605    0.2827    1.2891 C.ar      1 <0>        -0.1566
     24 C16        -0.2011    0.6805    0.5279 C.ar      1 <0>        -0.0503
     25 C17        -0.2145    1.9573   -0.0433 C.ar      1 <0>        -0.1207
     26 C18         0.8628    2.8258    0.1680 C.ar      1 <0>         0.0082
     27 C19         1.9301    2.4174    0.9387 C.ar      1 <0>        -0.1257
     28 Cl1         0.8541    4.4121   -0.5372 Cl        1 <0>        -0.0460
     29 C20        -1.3566    2.3846   -0.8700 C.2       1 <0>         0.4859
     30 O2         -1.3666    3.4942   -1.3655 O.co2     1 <0>        -0.6072
     31 H2          8.8262    5.0952   -3.3213 H         1 <0>         0.0584
     32 H3          8.6977    5.9452   -1.7626 H         1 <0>         0.0586
     33 H4          9.5060    4.3616   -1.8489 H         1 <0>         0.0534
     34 H5          6.5461    4.8679   -2.3958 H         1 <0>         0.0855
     35 H6          6.3861    2.4223   -2.5014 H         1 <0>         0.0574
     36 H7          7.5811    2.9887   -3.6928 H         1 <0>         0.0556
     37 H8          8.1260    2.2681   -2.1591 H         1 <0>         0.0513
     38 H9          7.0461    5.4006    1.2639 H         1 <0>         0.0450
     39 H10         8.2277    5.9222    0.0391 H         1 <0>         0.0548
     40 H11         6.2474    7.2569   -0.0096 H         1 <0>         0.3774
     41 H12         5.0820    3.7720   -0.7615 H         1 <0>         0.4211
     42 H13         7.1818   -0.5250    5.0906 H         1 <0>         0.2156
     43 H14         9.2118    1.8962    2.8137 H         1 <0>         0.1048
     44 H15         8.9407    1.0522    5.7345 H         1 <0>         0.0658
     45 H16        10.2940    1.9789    5.0431 H         1 <0>         0.0778
     46 H17         8.6637    2.6911    5.0976 H         1 <0>         0.0632
     47 H18         9.5007   -0.5339    2.4136 H         1 <0>         0.0634
     48 H19        10.7828    0.0956    3.4758 H         1 <0>         0.0777
     49 H20         9.4294   -0.8311    4.1671 H         1 <0>         0.0657
     50 H21         3.0331   -0.2596    2.1556 H         1 <0>         0.3793
     51 H22         0.8679   -0.7039    1.7284 H         1 <0>         0.1261
     52 H23        -1.0310    0.0085    0.3664 H         1 <0>         0.1413
     53 H24         2.7633    3.0840    1.1048 H         1 <0>         0.1502
     54 O3         -2.3903    1.5450   -1.0768 O.co2     1 <0>        -0.7589
@<TRIPOS>BOND
     1    1    2 1
     2    1   31 1
     3    1   32 1
     4    1   33 1
     5    2    3 1
     6    2    4 1
     7    2   34 1
     8    3   35 1
     9    3   36 1
    10    3   37 1
    11    4    5 1
    12    4    6 1
    13    4    8 1
    14    6    7 1
    15    6   38 1
    16    6   39 1
    17    7   40 1
    18    8    9 1
    19    8   41 1
    20    9   14 ar
    21    9   10 ar
    22   10   11 ar
    23   11   12 ar
    24   11   21 1
    25   12   17 1
    26   12   13 ar
    27   13   14 ar
    28   13   15 1
    29   15   16 1
    30   15   18 1
    31   16   17 2
    32   16   42 1
    33   18   19 1
    34   18   20 1
    35   18   43 1
    36   19   44 1
    37   19   45 1
    38   19   46 1
    39   20   47 1
    40   20   48 1
    41   20   49 1
    42   21   22 1
    43   21   50 1
    44   22   27 ar
    45   22   23 ar
    46   23   24 ar
    47   23   51 1
    48   24   25 ar
    49   24   52 1
    50   25   26 ar
    51   25   29 1
    52   26   27 ar
    53   26   28 1
    54   27   53 1
    55   29   30 2
    56   29   54 1
@<TRIPOS>MOLECULE
ZINC13674793
   22    24     0     0     0
SMALL
USER_CHARGES

@<TRIPOS>ATOM
      1 C1         -0.0162    1.3430    0.0094 C.2       1 <0>        -0.2114
      2 C2          1.3256    1.7743   -0.0011 C.2       1 <0>        -0.1625
      3 C3          2.0971    0.6542   -0.0145 C.2       1 <0>         0.0345
      4 O1          1.2805   -0.4171   -0.0124 O.3       1 <0>        -0.1765
      5 C4          0.0021   -0.0041    0.0020 C.2       1 <0>        -0.0320
      6 C5          3.5733    0.6187   -0.0292 C.ar      1 <0>         0.0343
      7 C6          4.2287   -0.6068   -0.0477 C.ar      1 <0>         0.0294
      8 C7          5.6322   -0.5884   -0.0617 C.ar      1 <0>        -0.2777
      9 C8          6.6428   -1.5460   -0.0812 C.2       1 <0>         0.4318
     10 N1          7.8175   -0.8942   -0.0867 N.pl3     1 <0>        -0.4338
     11 H1          8.6894   -1.3191   -0.1001 H         1 <0>         0.4498
     12 N2          7.5988    0.4876   -0.0710 N.2       1 <0>        -0.2805
     13 C9          6.3021    0.7258   -0.0556 C.ar      1 <0>         0.2315
     14 N3          5.5413    1.8317   -0.0368 N.ar      1 <0>        -0.1929
     15 N4          4.2592    1.7649   -0.0300 N.ar      1 <0>        -0.1310
     16 N5          6.4689   -2.9189   -0.0922 N.pl3     1 <0>        -0.8230
     17 H2         -0.8931    1.9731    0.0252 H         1 <0>         0.1533
     18 H3          1.6738    2.7966    0.0008 H         1 <0>         0.1589
     19 H4         -0.8668   -0.6455    0.0072 H         1 <0>         0.2074
     20 H5          3.6796   -1.5367   -0.0509 H         1 <0>         0.1495
     21 H6          5.5746   -3.2946   -0.0863 H         1 <0>         0.4268
     22 H7          7.2413   -3.5056   -0.1057 H         1 <0>         0.4141
@<TRIPOS>BOND
     1    1    5 2
     2    1    2 1
     3    1   17 1
     4    2    3 2
     5    2   18 1
     6    3    4 1
     7    3    6 1
     8    4    5 1
     9    5   19 1
    10    6   15 ar
    11    6    7 ar
    12    7    8 ar
    13    7   20 1
    14    8   13 ar
    15    8    9 2
    16    9   10 1
    17    9   16 1
    18   10   11 1
    19   10   12 1
    20   12   13 2
    21   13   14 ar
    22   14   15 ar
    23   16   21 1
    24   16   22 1
@<TRIPOS>MOLECULE
ZINC13597821
   29    32     0     0     0
SMALL
USER_CHARGES

@<TRIPOS>ATOM
      1 C1         -0.0166    1.3747    0.0096 C.ar      1 <0>        -0.1351
      2 C2          1.1715    2.0889    0.0021 C.ar      1 <0>        -0.1558
      3 C3          2.3855    1.4335   -0.0135 C.ar      1 <0>        -0.1218
      4 C4          2.4252    0.0445   -0.0218 C.ar      1 <0>         0.0729
      5 C5          1.2214   -0.6772   -0.0137 C.ar      1 <0>         0.0050
      6 C6          0.0021   -0.0041    0.0020 C.ar      1 <0>        -0.1283
      7 C7          1.5978   -2.1033   -0.0257 C.2       1 <0>        -0.4073
      8 C8          2.9951   -2.1359   -0.0400 C.2       1 <0>         0.4869
      9 N1          3.4697   -0.8656   -0.0376 N.pl3     1 <0>        -0.6262
     10 H1          4.4099   -0.6273   -0.0461 H         1 <0>         0.3986
     11 O1          3.7515   -3.2537   -0.0541 O.3       1 <0>        -0.6939
     12 C9          0.7215   -3.2139   -0.0224 C.2       1 <0>         0.3290
     13 N2          0.2356   -3.8187   -1.0822 N.2       1 <0>        -0.4601
     14 C10        -0.5829   -4.8606   -0.7652 C.ar      1 <0>         0.1157
     15 C11        -1.2960   -5.7560   -1.5635 C.ar      1 <0>        -0.1051
     16 C12        -2.0695   -6.7423   -0.9784 C.ar      1 <0>        -0.0810
     17 C13        -2.1481   -6.8571    0.3980 C.ar      1 <0>        -0.1494
     18 C14        -1.4485   -5.9800    1.2105 C.ar      1 <0>        -0.0317
     19 C15        -0.6689   -4.9852    0.6382 C.ar      1 <0>        -0.2474
     20 C16         0.1882   -3.9130    1.1902 C.2       1 <0>         0.3791
     21 O2          0.4068   -3.6573    2.3562 O.2       1 <0>        -0.3882
     22 H2         -0.9601    1.9000    0.0260 H         1 <0>         0.1069
     23 H3          1.1465    3.1686    0.0081 H         1 <0>         0.1089
     24 H4          3.3050    2.0001   -0.0196 H         1 <0>         0.1064
     25 H5         -0.9242   -0.5593    0.0075 H         1 <0>         0.1029
     26 H6         -1.2443   -5.6785   -2.6395 H         1 <0>         0.1325
     27 H7         -2.6188   -7.4307   -1.6035 H         1 <0>         0.1305
     28 H8         -2.7565   -7.6322    0.8400 H         1 <0>         0.1293
     29 H9         -1.5098   -6.0701    2.2850 H         1 <0>         0.1267
@<TRIPOS>BOND
     1    1    6 ar
     2    1    2 ar
     3    1   22 1
     4    2    3 ar
     5    2   23 1
     6    3    4 ar
     7    3   24 1
     8    4    9 1
     9    4    5 ar
    10    5    6 ar
    11    5    7 1
    12    6   25 1
    13    7    8 2
    14    7   12 1
    15    8    9 1
    16    8   11 1
    17    9   10 1
    18   12   20 1
    19   12   13 2
    20   13   14 1
    21   14   19 ar
    22   14   15 ar
    23   15   16 ar
    24   15   26 1
    25   16   17 ar
    26   16   27 1
    27   17   18 ar
    28   17   28 1
    29   18   19 ar
    30   18   29 1
    31   19   20 1
    32   20   21 2
@<TRIPOS>MOLECULE
ZINC05224686
   35    38     0     0     0
SMALL
USER_CHARGES
4,5-diphenyl-1H-pyrazolo[5,4-c]pyridazin-3-amine
@<TRIPOS>ATOM
      1 C1         -0.1922    6.6056   -0.7110 C.ar      1 <0>        -0.1050
      2 C2          0.6546    6.1644   -1.7122 C.ar      1 <0>        -0.1107
      3 C3          1.3739    4.9986   -1.5474 C.ar      1 <0>        -0.0845
      4 C4          1.2459    4.2643   -0.3679 C.ar      1 <0>        -0.0624
      5 C5          0.3862    4.7118    0.6357 C.ar      1 <0>        -0.1086
      6 C6         -0.3236    5.8820    0.4609 C.ar      1 <0>        -0.1145
      7 C7          2.0142    3.0126   -0.1847 C.ar      1 <0>         0.0620
      8 C8          1.3737    1.7597   -0.1281 C.ar      1 <0>        -0.1827
      9 C9         -0.0083    1.3020   -0.2101 C.2       1 <0>         0.3756
     10 N1          0.0008   -0.0007   -0.0903 N.2       1 <0>        -0.2874
     11 N2          1.3131   -0.4576    0.0690 N.pl3     1 <0>        -0.4815
     12 H1          1.5829   -1.4140    0.1805 H         1 <0>         0.4591
     13 C10         2.1694    0.6082    0.0484 C.ar      1 <0>         0.2762
     14 N3          3.4869    0.7375    0.1551 N.ar      1 <0>        -0.2462
     15 N4          4.0703    1.8794    0.1034 N.ar      1 <0>        -0.1604
     16 C11         3.4130    3.0238   -0.0600 C.ar      1 <0>         0.0599
     17 C12         4.1539    4.3061   -0.1109 C.ar      1 <0>        -0.0350
     18 C13         5.3311    4.4054   -0.8516 C.ar      1 <0>        -0.0841
     19 C14         6.0133    5.6040   -0.9002 C.ar      1 <0>        -0.1210
     20 C15         5.5382    6.7021   -0.2059 C.ar      1 <0>        -0.1070
     21 C16         4.3740    6.6080    0.5353 C.ar      1 <0>        -0.1194
     22 C17         3.6797    5.4165    0.5865 C.ar      1 <0>        -0.0911
     23 N5         -1.1362    2.1073   -0.3899 N.pl3     1 <0>        -0.8246
     24 H2         -0.7528    7.5189   -0.8447 H         1 <0>         0.1280
     25 H3          0.7526    6.7335   -2.6248 H         1 <0>         0.1295
     26 H4          2.0349    4.6554   -2.3295 H         1 <0>         0.1250
     27 H5          0.2795    4.1455    1.5491 H         1 <0>         0.1259
     28 H6         -0.9860    6.2318    1.2388 H         1 <0>         0.1305
     29 H7          5.7055    3.5474   -1.3901 H         1 <0>         0.1277
     30 H8          6.9228    5.6833   -1.4771 H         1 <0>         0.1271
     31 H9          6.0782    7.6367   -0.2429 H         1 <0>         0.1244
     32 H10         4.0074    7.4689    1.0747 H         1 <0>         0.1251
     33 H11         2.7707    5.3444    1.1652 H         1 <0>         0.1230
     34 H12        -2.0174    1.7045   -0.4358 H         1 <0>         0.4126
     35 H13        -1.0379    3.0691   -0.4688 H         1 <0>         0.4146
@<TRIPOS>BOND
     1    1    6 ar
     2    1    2 ar
     3    1   24 1
     4    2    3 ar
     5    2   25 1
     6    3    4 ar
     7    3   26 1
     8    4    5 ar
     9    4    7 1
    10    5    6 ar
    11    5   27 1
    12    6   28 1
    13    7   16 ar
    14    7    8 ar
    15    8   13 ar
    16    8    9 1
    17    9   10 2
    18    9   23 1
    19   10   11 1
    20   11   12 1
    21   11   13 1
    22   13   14 ar
    23   14   15 ar
    24   15   16 ar
    25   16   17 1
    26   17   22 ar
    27   17   18 ar
    28   18   19 ar
    29   18   29 1
    30   19   20 ar
    31   19   30 1
    32   20   21 ar
    33   20   31 1
    34   21   22 ar
    35   21   32 1
    36   22   33 1
    37   23   34 1
    38   23   35 1
@<TRIPOS>MOLECULE
ZINC01641925
   40    42     0     0     0
SMALL
USER_CHARGES

@<TRIPOS>ATOM
      1 C1         -0.0178    1.4608    0.0101 C.3       1 <0>         0.0831
      2 N1          0.0021   -0.0041    0.0020 N.pl3     1 <0>        -0.4808
      3 C2          0.0085   -0.8054   -1.1023 C.2       1 <0>         0.2308
      4 N2          0.0274   -2.0557   -0.7436 N.2       1 <0>        -0.4545
      5 C3          0.0343   -2.1368    0.6098 C.ar      1 <0>        -0.1554
      6 C4          0.0236   -0.8217    1.1034 C.ar      1 <0>         0.3460
      7 N3          0.0327   -0.6231    2.4177 N.ar      1 <0>        -0.6159
      8 C5          0.0544   -1.6488    3.2534 C.ar      1 <0>         0.6298
      9 N4          0.0680   -2.9065    2.8307 N.ar      1 <0>        -0.6237
     10 C6          0.0525   -3.1954    1.5342 C.ar      1 <0>         0.5415
     11 N5          0.0685   -4.5100    1.1029 N.pl3     1 <0>        -0.6890
     12 C7          0.0874   -5.6013    2.0801 C.3       1 <0>         0.1707
     13 C8          0.1022   -6.9232    1.3567 C.ar      1 <0>        -0.1135
     14 C9         -1.0881   -7.5430    1.0249 C.ar      1 <0>        -0.0983
     15 C10        -1.0745   -8.7555    0.3613 C.ar      1 <0>        -0.1220
     16 C11         0.1294   -9.3482    0.0290 C.ar      1 <0>        -0.1103
     17 C12         1.3196   -8.7280    0.3600 C.ar      1 <0>        -0.1222
     18 C13         1.3060   -7.5133    1.0198 C.ar      1 <0>        -0.0984
     19 N6          0.0637   -1.4010    4.6162 N.pl3     1 <0>        -0.6906
     20 C14         0.0877   -2.5182    5.5636 C.3       1 <0>         0.1417
     21 C15         0.0936   -1.9741    6.9936 C.3       1 <0>         0.0611
     22 O1         -1.1346   -1.2892    7.2477 O.3       1 <0>        -0.5709
     23 H1          1.0048    1.8381    0.0023 H         1 <0>         0.0748
     24 H2         -0.5450    1.8219   -0.8730 H         1 <0>         0.0893
     25 H3         -0.5280    1.8123    0.9069 H         1 <0>         0.0882
     26 H4         -0.0013   -0.4536   -2.1234 H         1 <0>         0.2190
     27 H5          0.0672   -4.7091    0.1536 H         1 <0>         0.4197
     28 H6          0.9790   -5.5172    2.7015 H         1 <0>         0.0778
     29 H7         -0.8008   -5.5413    2.7091 H         1 <0>         0.0779
     30 H8         -2.0286   -7.0800    1.2846 H         1 <0>         0.1238
     31 H9         -2.0044   -9.2401    0.1028 H         1 <0>         0.1245
     32 H10         0.1400  -10.2958   -0.4888 H         1 <0>         0.1237
     33 H11         2.2602   -9.1911    0.1006 H         1 <0>         0.1244
     34 H12         2.2359   -7.0270    1.2750 H         1 <0>         0.1237
     35 H13         0.0543   -0.4879    4.9432 H         1 <0>         0.4161
     36 H14        -0.7954   -3.1397    5.4150 H         1 <0>         0.0745
     37 H15         0.9844   -3.1155    5.3984 H         1 <0>         0.0812
     38 H16         0.2009   -2.8004    7.6963 H         1 <0>         0.0659
     39 H17         0.9273   -1.2826    7.1158 H         1 <0>         0.0536
     40 H18        -1.2006   -0.9172    8.1379 H         1 <0>         0.3829
@<TRIPOS>BOND
     1    1    2 1
     2    1   23 1
     3    1   24 1
     4    1   25 1
     5    2    6 1
     6    2    3 1
     7    3    4 2
     8    3   26 1
     9    4    5 1
    10    5   10 ar
    11    5    6 ar
    12    6    7 ar
    13    7    8 ar
    14    8    9 ar
    15    8   19 1
    16    9   10 ar
    17   10   11 1
    18   11   12 1
    19   11   27 1
    20   12   13 1
    21   12   28 1
    22   12   29 1
    23   13   18 ar
    24   13   14 ar
    25   14   15 ar
    26   14   30 1
    27   15   16 ar
    28   15   31 1
    29   16   17 ar
    30   16   32 1
    31   17   18 ar
    32   17   33 1
    33   18   34 1
    34   19   20 1
    35   19   35 1
    36   20   21 1
    37   20   36 1
    38   20   37 1
    39   21   22 1
    40   21   38 1
    41   21   39 1
    42   22   40 1
@<TRIPOS>MOLECULE
ZINC18128386
   32    35     0     0     0
SMALL
USER_CHARGES

@<TRIPOS>ATOM
      1 C1         -0.0144    1.3783   -0.0475 C.ar      1 <0>        -0.1490
      2 C2          1.1682    2.0823    0.1064 C.ar      1 <0>        -0.0585
      3 C3          2.3772    1.4201    0.1626 C.ar      1 <0>        -0.1423
      4 C4          2.4194    0.0322    0.0651 C.ar      1 <0>         0.1621
      5 C5          1.2216   -0.6755   -0.0898 C.ar      1 <0>        -0.1630
      6 C6          0.0078    0.0017   -0.1459 C.ar      1 <0>        -0.0258
      7 C7          1.5784   -2.1123   -0.1637 C.2       1 <0>         0.1819
      8 N1          0.7676   -3.1257   -0.3075 N.2       1 <0>        -0.2626
      9 O1         -0.6275   -2.9070   -0.4115 O.3       1 <0>        -0.3801
     10 C8          3.0517   -2.1495   -0.0391 C.2       1 <0>         0.3100
     11 C9          3.8485   -3.2860   -0.0531 C.2       1 <0>        -0.2149
     12 C10         3.4076   -4.6942    0.0396 C.ar      1 <0>        -0.0612
     13 C11         2.1590   -5.2973    0.1613 C.ar      1 <0>        -0.0785
     14 C12         2.0668   -6.6724    0.2256 C.ar      1 <0>        -0.1110
     15 C13         3.2134   -7.4494    0.1697 C.ar      1 <0>        -0.0614
     16 C14         4.4568   -6.8607    0.0495 C.ar      1 <0>        -0.1104
     17 C15         4.5697   -5.4766   -0.0178 C.ar      1 <0>         0.1440
     18 N2          5.6744   -4.6429   -0.1379 N.am      1 <0>        -0.6463
     19 C16         5.3102   -3.3497   -0.1695 C.2       1 <0>         0.5708
     20 O2          6.0621   -2.3968   -0.2739 O.2       1 <0>        -0.5192
     21 Br1         3.0736   -9.3331    0.2595 Br        1 <0>        -0.0419
     22 N3          3.4858   -0.8573    0.0925 N.pl3     1 <0>        -0.6148
     23 H1         -0.9555    1.9067   -0.0861 H         1 <0>         0.1365
     24 H2          1.1438    3.1593    0.1827 H         1 <0>         0.1384
     25 H3          3.2931    1.9799    0.2821 H         1 <0>         0.1351
     26 H4         -0.9142   -0.5478   -0.2655 H         1 <0>         0.1392
     27 H5         -1.1459   -3.7167   -0.5153 H         1 <0>         0.4144
     28 H6          1.2662   -4.6913    0.2055 H         1 <0>         0.1720
     29 H7          1.0998   -7.1441    0.3200 H         1 <0>         0.1383
     30 H8          5.3430   -7.4765    0.0076 H         1 <0>         0.1374
     31 H9          6.5912   -4.9545   -0.1959 H         1 <0>         0.4211
     32 H10         4.4151   -0.5976    0.1913 H         1 <0>         0.4398
@<TRIPOS>BOND
     1    1    6 ar
     2    1    2 ar
     3    1   23 1
     4    2    3 ar
     5    2   24 1
     6    3    4 ar
     7    3   25 1
     8    4   22 1
     9    4    5 ar
    10    5    6 ar
    11    5    7 1
    12    6   26 1
    13    7    8 2
    14    7   10 1
    15    8    9 1
    16    9   27 1
    17   10   11 2
    18   10   22 1
    19   11   19 1
    20   11   12 1
    21   12   17 ar
    22   12   13 ar
    23   13   14 ar
    24   13   28 1
    25   14   15 ar
    26   14   29 1
    27   15   16 ar
    28   15   21 1
    29   16   17 ar
    30   16   30 1
    31   17   18 1
    32   18   19 am
    33   18   31 1
    34   19   20 2
    35   22   32 1
@<TRIPOS>MOLECULE
ZINC21288966
   49    52     0     0     0
SMALL
USER_CHARGES
2-(2-chlorophenyl)-5,7-dihydroxy-8-[(3S,4R)-3-hydroxy-1-methyl-4-piperidyl]chromen-4-one
@<TRIPOS>ATOM
      1 C1          6.0895   -0.0238    5.9621 C.3       1 <0>        -0.0460
      2 N1          6.1756    1.0472    4.9603 N.4       1 <0>        -0.3934
      3 C2          5.9739    0.5180    3.6055 C.3       1 <0>        -0.0028
      4 C3          6.2126    1.6289    2.5802 C.3       1 <0>        -0.1464
      5 C4          5.2418    2.7821    2.8491 C.3       1 <0>        -0.0180
      6 H1          4.2050    2.4431    2.7074 H         1 <0>         0.1039
      7 C5          5.4391    3.2830    4.2825 C.3       1 <0>         0.1015
      8 H2          4.7709    4.1271    4.5084 H         1 <0>         0.0941
      9 C6          5.2218    2.1236    5.2574 C.3       1 <0>        -0.0361
     10 O1          6.7669    3.7898    4.4323 O.3       1 <0>        -0.5639
     11 C7          5.5132    3.9050    1.8814 C.ar      1 <0>        -0.2158
     12 C8          6.8017    4.3949    1.7322 C.ar      1 <0>         0.2946
     13 C9          7.0678    5.4304    0.8434 C.ar      1 <0>        -0.3049
     14 C10         6.0448    5.9841    0.0956 C.ar      1 <0>         0.3111
     15 C11         4.7411    5.4942    0.2412 C.ar      1 <0>        -0.3649
     16 C12         4.4748    4.4470    1.1407 C.ar      1 <0>         0.2362
     17 O2          3.2147    3.9814    1.2730 O.3       1 <0>        -0.2171
     18 C13         2.1871    4.4838    0.5705 C.2       1 <0>         0.1982
     19 C14         2.3394    5.4926   -0.3277 C.2       1 <0>        -0.2780
     20 C15         3.6225    6.0546   -0.5353 C.2       1 <0>         0.4382
     21 O3          3.7953    6.9641   -1.3304 O.2       1 <0>        -0.4786
     22 C16         0.8407    3.9147    0.7769 C.ar      1 <0>        -0.0680
     23 C17         0.6478    2.5322    0.7263 C.ar      1 <0>        -0.0708
     24 C18        -0.6124    2.0073    0.9205 C.ar      1 <0>        -0.1159
     25 C19        -1.6867    2.8467    1.1599 C.ar      1 <0>        -0.0780
     26 C20        -1.5036    4.2164    1.2169 C.ar      1 <0>        -0.1066
     27 C21        -0.2472    4.7566    1.0243 C.ar      1 <0>        -0.0057
     28 Cl1        -0.0199    6.4765    1.0889 Cl        1 <0>        -0.0424
     29 O4          6.3024    6.9947   -0.7728 O.3       1 <0>        -0.4999
     30 O5          7.8133    3.8585    2.4614 O.3       1 <0>        -0.4665
     31 H3          6.8128   -0.8151    5.7159 H         1 <0>         0.1242
     32 H4          5.0728   -0.4438    5.9634 H         1 <0>         0.1169
     33 H5          6.3184    0.3856    6.9571 H         1 <0>         0.1225
     34 H6          6.6809   -0.3050    3.4243 H         1 <0>         0.1308
     35 H7          4.9438    0.1448    3.5072 H         1 <0>         0.1211
     36 H8          7.2477    1.9910    2.6662 H         1 <0>         0.1216
     37 H9          6.0450    1.2349    1.5669 H         1 <0>         0.1057
     38 H10         4.1951    1.7434    5.1512 H         1 <0>         0.1298
     39 H11         5.3771    2.4772    6.2874 H         1 <0>         0.1312
     40 H12         7.0946    4.1958    5.4007 H         1 <0>         0.4106
     41 H13         8.0758    5.8030    0.7365 H         1 <0>         0.1471
     42 H14         1.4871    5.8659   -0.8759 H         1 <0>         0.1670
     43 H15         1.4839    1.8757    0.5352 H         1 <0>         0.1384
     44 H16        -0.7625    0.9385    0.8812 H         1 <0>         0.1407
     45 H17        -2.6721    2.4298    1.3071 H         1 <0>         0.1438
     46 H18        -2.3456    4.8651    1.4082 H         1 <0>         0.1476
     47 H19         5.4855    7.4321   -1.3656 H         1 <0>         0.4556
     48 H20         8.8375    4.2431    2.3473 H         1 <0>         0.4397
     49 H21         7.1882    1.4744    5.0059 H         1 <0>         0.4481
@<TRIPOS>BOND
     1    1    2 1
     2    1   31 1
     3    1   32 1
     4    1   33 1
     5    2    9 1
     6    2    3 1
     7    2   49 1
     8    3    4 1
     9    3   34 1
    10    3   35 1
    11    4    5 1
    12    4   36 1
    13    4   37 1
    14    5    6 1
    15    5    7 1
    16    5   11 1
    17    7    8 1
    18    7    9 1
    19    7   10 1
    20    9   38 1
    21    9   39 1
    22   10   40 1
    23   11   16 ar
    24   11   12 ar
    25   12   13 ar
    26   12   30 1
    27   13   14 ar
    28   13   41 1
    29   14   15 ar
    30   14   29 1
    31   15   20 1
    32   15   16 ar
    33   16   17 1
    34   17   18 1
    35   18   19 2
    36   18   22 1
    37   19   20 1
    38   19   42 1
    39   20   21 2
    40   22   27 ar
    41   22   23 ar
    42   23   24 ar
    43   23   43 1
    44   24   25 ar
    45   24   44 1
    46   25   26 ar
    47   25   45 1
    48   26   27 ar
    49   26   46 1
    50   27   28 1
    51   29   47 1
    52   30   48 1
