@<TRIPOS>MOLECULE
ZINC27415684
   54    56     0     0     0
SMALL
USER_CHARGES

@<TRIPOS>ATOM
      1 C1         -0.1780    1.4896    0.0162 C.3       1 <0>        -0.1198
      2 C2         -0.0809   -0.0142    0.0079 C.2       1 <0>        -0.1375
      3 C3          0.1206   -0.6637    1.1276 C.2       1 <0>        -0.1539
      4 C4          0.1232    0.0784    2.4392 C.3       1 <0>        -0.0513
      5 C5         -0.8640   -0.5621    3.3807 C.ar      1 <0>        -0.1052
      6 C6         -0.4213   -1.4255    4.3642 C.ar      1 <0>        -0.0808
      7 C7         -1.3264   -2.0138    5.2279 C.ar      1 <0>        -0.0925
      8 C8         -2.6767   -1.7395    5.1101 C.ar      1 <0>        -0.0921
      9 C9         -3.1243   -0.8766    4.1288 C.ar      1 <0>        -0.1500
     10 C10        -2.2173   -0.2808    3.2641 C.ar      1 <0>         0.1030
     11 O1         -2.6546    0.5728    2.3013 O.3       1 <0>        -0.4953
     12 C11        -0.8409   -2.9560    6.2991 C.3       1 <0>        -0.0649
     13 C12        -0.5299   -2.1649    7.5713 C.3       1 <0>         0.2106
     14 C13        -0.0056   -3.0919    8.6429 C.2       1 <0>        -0.4342
     15 C14         1.2425   -2.6626    8.9461 C.2       1 <0>         0.2241
     16 C15         1.5511   -1.4971    8.1179 C.2       1 <0>         0.4688
     17 O2          2.5964   -0.8763    8.1486 O.2       1 <0>        -0.4593
     18 O3          0.5076   -1.2134    7.3164 O.3       1 <0>        -0.3137
     19 O4          2.0712   -3.2219    9.8680 O.3       1 <0>        -0.6404
     20 C16        -0.7114   -4.2353    9.2393 C.ar      1 <0>         0.0723
     21 C17        -1.0339   -5.3483    8.4545 C.ar      1 <0>        -0.1134
     22 C18        -1.6952   -6.4166    9.0180 C.ar      1 <0>        -0.1431
     23 C19        -2.0423   -6.3909   10.3636 C.ar      1 <0>         0.0689
     24 C20        -1.7243   -5.2881   11.1473 C.ar      1 <0>        -0.1423
     25 C21        -1.0581   -4.2169   10.5951 C.ar      1 <0>        -0.0959
     26 O5         -2.6946   -7.4468   10.9143 O.3       1 <0>        -0.5042
     27 C22        -1.7700   -1.4600    8.0574 C.2       1 <0>         0.4809
     28 O6         -2.8617   -1.8904    7.7695 O.2       1 <0>        -0.5004
     29 O7         -1.6618   -0.3539    8.8102 O.3       1 <0>        -0.3420
     30 C23        -2.8785    0.2627    9.2360 C.3       1 <0>         0.0332
     31 C24        -0.2157   -0.7709   -1.2883 C.3       1 <0>        -0.1156
     32 H1          0.7122    1.9086    0.4853 H         1 <0>         0.0636
     33 H2         -0.2547    1.8544   -1.0081 H         1 <0>         0.0559
     34 H3         -1.0616    1.7936    0.5773 H         1 <0>         0.0738
     35 H4          0.2849   -1.7310    1.1107 H         1 <0>         0.1075
     36 H5          1.1206    0.0392    2.8769 H         1 <0>         0.0792
     37 H6         -0.1585    1.1176    2.2692 H         1 <0>         0.0850
     38 H7          0.6327   -1.6414    4.4582 H         1 <0>         0.1260
     39 H8         -3.3819   -2.2005    5.7858 H         1 <0>         0.1415
     40 H9         -4.1789   -0.6627    4.0372 H         1 <0>         0.1228
     41 H10        -2.8739    0.1420    1.4638 H         1 <0>         0.3812
     42 H11        -1.6137   -3.6950    6.5106 H         1 <0>         0.1034
     43 H12         0.0616   -3.4619    5.9562 H         1 <0>         0.0933
     44 H13        -0.7650   -5.3691    7.4087 H         1 <0>         0.1212
     45 H14        -1.9449   -7.2759    8.4132 H         1 <0>         0.1184
     46 H15        -1.9966   -5.2729   12.1924 H         1 <0>         0.1179
     47 H16        -0.8075   -3.3623   11.2060 H         1 <0>         0.1194
     48 H17        -2.1089   -8.1234   11.2807 H         1 <0>         0.3796
     49 H18        -3.4609    0.5582    8.3632 H         1 <0>         0.0565
     50 H19        -3.4538   -0.4438    9.8344 H         1 <0>         0.0586
     51 H20        -2.6491    1.1439    9.8350 H         1 <0>         0.0966
     52 H21        -0.3777   -0.0671   -2.1047 H         1 <0>         0.0593
     53 H22         0.6958   -1.3390   -1.4739 H         1 <0>         0.0625
     54 H23        -1.0628   -1.4539   -1.2240 H         1 <0>         0.0630
@<TRIPOS>BOND
     1    1    2 1
     2    1   32 1
     3    1   33 1
     4    1   34 1
     5    2    3 2
     6    2   31 1
     7    3    4 1
     8    3   35 1
     9    4    5 1
    10    4   36 1
    11    4   37 1
    12    5   10 ar
    13    5    6 ar
    14    6    7 ar
    15    6   38 1
    16    7    8 ar
    17    7   12 1
    18    8    9 ar
    19    8   39 1
    20    9   10 ar
    21    9   40 1
    22   10   11 1
    23   11   41 1
    24   12   13 1
    25   12   42 1
    26   12   43 1
    27   13   18 1
    28   13   14 1
    29   13   27 1
    30   14   15 2
    31   14   20 1
    32   15   16 1
    33   15   19 1
    34   16   17 2
    35   16   18 1
    36   20   25 ar
    37   20   21 ar
    38   21   22 ar
    39   21   44 1
    40   22   23 ar
    41   22   45 1
    42   23   24 ar
    43   23   26 1
    44   24   25 ar
    45   24   46 1
    46   25   47 1
    47   26   48 1
    48   27   28 2
    49   27   29 1
    50   29   30 1
    51   30   49 1
    52   30   50 1
    53   30   51 1
    54   31   52 1
    55   31   53 1
    56   31   54 1
@<TRIPOS>MOLECULE
ZINC01649340
   52    54     0     0     0
SMALL
USER_CHARGES

@<TRIPOS>ATOM
      1 C1         -0.0187    1.5258    0.0104 C.3       1 <0>        -0.1531
      2 C2          0.0021   -0.0041    0.0020 C.3       1 <0>        -0.1278
      3 C3         -1.4333   -0.5336    0.0129 C.3       1 <0>         0.1689
      4 H1         -1.9701   -0.1109    0.8621 H         1 <0>         0.1030
      5 C4         -1.4133   -2.0590    0.1302 C.3       1 <0>         0.0625
      6 O1         -0.6117   -2.6069   -0.9183 O.3       1 <0>        -0.5692
      7 N1         -2.1054   -0.1483   -1.2305 N.pl3     1 <0>        -0.6816
      8 C5         -3.4856   -0.0365   -1.2658 C.ar      1 <0>         0.6305
      9 N2         -4.1766   -0.2783   -0.1589 N.ar      1 <0>        -0.6256
     10 C6         -5.5013   -0.1844   -0.1423 C.ar      1 <0>         0.5407
     11 C7         -6.1646    0.1788   -1.3275 C.ar      1 <0>        -0.1560
     12 C8         -5.3921    0.4251   -2.4741 C.ar      1 <0>         0.3485
     13 N3         -4.0693    0.3129   -2.4004 N.ar      1 <0>        -0.6161
     14 N4         -6.2808    0.7538   -3.4662 N.pl3     1 <0>        -0.4704
     15 C9         -7.5330    0.7038   -2.9264 C.2       1 <0>         0.2320
     16 N5         -7.4624    0.3664   -1.6720 N.2       1 <0>        -0.4548
     17 C10        -5.9467    1.0964   -4.8508 C.3       1 <0>         0.1344
     18 C11        -6.6196    0.1019   -5.7989 C.3       1 <0>        -0.1626
     19 C12        -6.4419    2.5107   -5.1599 C.3       1 <0>        -0.1626
     20 N6         -6.2133   -0.4389    1.0165 N.pl3     1 <0>        -0.6899
     21 C13        -5.5062   -0.8166    2.2427 C.3       1 <0>         0.1717
     22 C14        -6.5039   -1.0364    3.3505 C.ar      1 <0>        -0.1135
     23 C15        -6.8801    0.0183    4.1611 C.ar      1 <0>        -0.0982
     24 C16        -7.7953   -0.1833    5.1773 C.ar      1 <0>        -0.1219
     25 C17        -8.3347   -1.4394    5.3826 C.ar      1 <0>        -0.1101
     26 C18        -7.9592   -2.4939    4.5714 C.ar      1 <0>        -0.1221
     27 C19        -7.0472   -2.2913    3.5524 C.ar      1 <0>        -0.0986
     28 H2          1.0039    1.9031    0.0027 H         1 <0>         0.0563
     29 H3         -0.5459    1.8868   -0.8726 H         1 <0>         0.0552
     30 H4         -0.5289    1.8773    0.9072 H         1 <0>         0.0537
     31 H5          0.5123   -0.3556   -0.8948 H         1 <0>         0.0768
     32 H6          0.5293   -0.3651    0.8851 H         1 <0>         0.0774
     33 H7         -0.9936   -2.3437    1.0951 H         1 <0>         0.0524
     34 H8         -2.4301   -2.4431    0.0488 H         1 <0>         0.0503
     35 H9         -0.5540   -3.5721   -0.9058 H         1 <0>         0.3776
     36 H10        -1.5839    0.0285   -2.0291 H         1 <0>         0.4145
     37 H11        -8.4474    0.9139   -3.4613 H         1 <0>         0.2138
     38 H12        -4.8660    1.0524   -4.9853 H         1 <0>         0.1061
     39 H13        -7.7004    0.1459   -5.6644 H         1 <0>         0.0654
     40 H14        -6.3710    0.3568   -6.8291 H         1 <0>         0.0793
     41 H15        -6.2668   -0.9057   -5.5787 H         1 <0>         0.0629
     42 H16        -5.9625    3.2193   -4.4845 H         1 <0>         0.0629
     43 H17        -6.1933    2.7656   -6.1901 H         1 <0>         0.0793
     44 H18        -7.5227    2.5547   -5.0254 H         1 <0>         0.0654
     45 H19        -7.1807   -0.3672    1.0169 H         1 <0>         0.4195
     46 H20        -4.9460   -1.7357    2.0706 H         1 <0>         0.0763
     47 H21        -4.8186   -0.0196    2.5258 H         1 <0>         0.0773
     48 H22        -6.4587    0.9996    4.0008 H         1 <0>         0.1237
     49 H23        -8.0886    0.6405    5.8111 H         1 <0>         0.1245
     50 H24        -9.0492   -1.5971    6.1770 H         1 <0>         0.1237
     51 H25        -8.3804   -3.4753    4.7320 H         1 <0>         0.1244
     52 H26        -6.7567   -3.1143    2.9163 H         1 <0>         0.1232
@<TRIPOS>BOND
     1    1    2 1
     2    1   28 1
     3    1   29 1
     4    1   30 1
     5    2    3 1
     6    2   31 1
     7    2   32 1
     8    3    4 1
     9    3    5 1
    10    3    7 1
    11    5    6 1
    12    5   33 1
    13    5   34 1
    14    6   35 1
    15    7    8 1
    16    7   36 1
    17    8   13 ar
    18    8    9 ar
    19    9   10 ar
    20   10   11 ar
    21   10   20 1
    22   11   16 1
    23   11   12 ar
    24   12   13 ar
    25   12   14 1
    26   14   15 1
    27   14   17 1
    28   15   16 2
    29   15   37 1
    30   17   18 1
    31   17   19 1
    32   17   38 1
    33   18   39 1
    34   18   40 1
    35   18   41 1
    36   19   42 1
    37   19   43 1
    38   19   44 1
    39   20   21 1
    40   20   45 1
    41   21   22 1
    42   21   46 1
    43   21   47 1
    44   22   27 ar
    45   22   23 ar
    46   23   24 ar
    47   23   48 1
    48   24   25 ar
    49   24   49 1
    50   25   26 ar
    51   25   50 1
    52   26   27 ar
    53   26   51 1
    54   27   52 1
@<TRIPOS>MOLECULE
ZINC14945706
   33    34     0     0     0
SMALL
USER_CHARGES
N-tert-butyl-2-(trifluoromethyl)quinazolin-4-amine
@<TRIPOS>ATOM
      1 C1          1.6403   -4.7634   -1.2889 C.3       1 <0>        -0.1661
      2 C2          2.3840   -4.2763   -0.0437 C.3       1 <0>         0.1712
      3 C3          3.8150   -4.8177   -0.0600 C.3       1 <0>        -0.1578
      4 C4          1.6634   -4.7775    1.2095 C.3       1 <0>        -0.1654
      5 N1          2.4161   -2.8117   -0.0357 N.pl3     1 <0>        -0.6809
      6 C5          1.2377   -2.0966   -0.0208 C.ar      1 <0>         0.4891
      7 C6          1.2462   -0.6801   -0.0134 C.ar      1 <0>        -0.1815
      8 C7          2.4355    0.0569   -0.0208 C.ar      1 <0>        -0.0739
      9 C8          2.3813    1.4197   -0.0130 C.ar      1 <0>        -0.1189
     10 C9          1.1592    2.0863    0.0022 C.ar      1 <0>        -0.0726
     11 C10        -0.0169    1.3973    0.0097 C.ar      1 <0>        -0.0981
     12 C11         0.0021   -0.0041    0.0020 C.ar      1 <0>         0.1841
     13 N2         -1.1259   -0.7300    0.0084 N.ar      1 <0>        -0.5065
     14 C12        -1.0734   -2.0407    0.0005 C.ar      1 <0>         0.2932
     15 N3          0.0650   -2.7159   -0.0134 N.ar      1 <0>        -0.5623
     16 C13        -2.3676   -2.8126    0.0081 C.3       1 <0>         0.5462
     17 F1         -3.4238   -1.9554   -0.3187 F         1 <0>        -0.1552
     18 F2         -2.2991   -3.8472   -0.9311 F         1 <0>        -0.1608
     19 F3         -2.5815   -3.3519    1.2811 F         1 <0>        -0.1643
     20 H1          2.1537   -4.4064   -2.1816 H         1 <0>         0.0529
     21 H2          1.6164   -5.8531   -1.2948 H         1 <0>         0.0683
     22 H3          0.6208   -4.3777   -1.2773 H         1 <0>         0.0846
     23 H4          4.3448   -4.4707    0.8271 H         1 <0>         0.0634
     24 H5          3.7911   -5.9074   -0.0659 H         1 <0>         0.0803
     25 H6          4.3284   -4.4607   -0.9528 H         1 <0>         0.0634
     26 H7          0.6440   -4.3918    1.2211 H         1 <0>         0.0830
     27 H8          1.6395   -5.8672    1.2036 H         1 <0>         0.0685
     28 H9          2.1933   -4.4305    2.0965 H         1 <0>         0.0531
     29 H10         3.2665   -2.3452   -0.0410 H         1 <0>         0.4131
     30 H11         3.3893   -0.4495   -0.0330 H         1 <0>         0.1298
     31 H12         3.2988    1.9894   -0.0188 H         1 <0>         0.1355
     32 H13         1.1428    3.1662    0.0078 H         1 <0>         0.1390
     33 H14        -0.9575    1.9279    0.0171 H         1 <0>         0.1458
@<TRIPOS>BOND
     1    1    2 1
     2    1   20 1
     3    1   21 1
     4    1   22 1
     5    2    3 1
     6    2    4 1
     7    2    5 1
     8    3   23 1
     9    3   24 1
    10    3   25 1
    11    4   26 1
    12    4   27 1
    13    4   28 1
    14    5    6 1
    15    5   29 1
    16    6   15 ar
    17    6    7 ar
    18    7   12 ar
    19    7    8 ar
    20    8    9 ar
    21    8   30 1
    22    9   10 ar
    23    9   31 1
    24   10   11 ar
    25   10   32 1
    26   11   12 ar
    27   11   33 1
    28   12   13 ar
    29   13   14 ar
    30   14   15 ar
    31   14   16 1
    32   16   17 1
    33   16   18 1
    34   16   19 1
@<TRIPOS>MOLECULE
ZINC03814434
   62    69     0     0     0
SMALL
USER_CHARGES

@<TRIPOS>ATOM
      1 C1         -0.1295    1.5952   -0.2973 C.3       1 <0>        -0.1687
      2 C2         -0.0862    0.0696   -0.1900 C.3       1 <0>         0.3342
      3 C3          0.5692   -0.4501   -1.4637 C.3       1 <0>         0.0405
      4 H1          1.4796    0.1159   -1.6612 H         1 <0>         0.1372
      5 C4          0.9167   -1.9328   -1.2889 C.3       1 <0>        -0.0061
      6 H2          1.3963   -2.3075   -2.1932 H         1 <0>         0.1555
      7 C5          1.8785   -2.0596   -0.1021 C.3       1 <0>        -0.1827
      8 C6          1.2061   -1.5198    1.1541 C.3       1 <0>         0.2999
      9 H3          1.9797   -1.4243    1.9161 H         1 <0>         0.1550
     10 O1          0.6555   -0.2442    0.9666 O.3       1 <0>        -0.3234
     11 N1          0.2189   -2.4746    1.6600 N.pl3     1 <0>        -0.5366
     12 C7          0.4705   -3.5508    2.4739 C.ar      1 <0>         0.1469
     13 C8          1.6649   -4.0152    3.0240 C.ar      1 <0>        -0.1522
     14 C9          1.5948   -5.1456    3.8201 C.ar      1 <0>        -0.0582
     15 C10         0.4006   -5.7997    4.0696 C.ar      1 <0>        -0.1457
     16 C11        -0.7984   -5.3597    3.5358 C.ar      1 <0>        -0.0280
     17 C12        -0.7487   -4.2198    2.7307 C.ar      1 <0>        -0.1131
     18 C13        -1.7893   -3.4830    2.0197 C.ar      1 <0>         0.0276
     19 C14        -1.1442   -2.4197    1.3841 C.ar      1 <0>         0.0376
     20 C15        -1.8806   -1.5095    0.6175 C.ar      1 <0>         0.0894
     21 N2         -1.4718   -0.3951   -0.1095 N.pl3     1 <0>        -0.5183
     22 C16        -2.5611    0.1913   -0.7090 C.ar      1 <0>         0.1618
     23 C17        -2.6521    1.3277   -1.5118 C.ar      1 <0>        -0.1305
     24 C18        -3.9109    1.6745   -1.9733 C.ar      1 <0>        -0.0737
     25 C19        -5.0393    0.9368   -1.6616 C.ar      1 <0>        -0.1358
     26 C20        -4.9745   -0.1955   -0.8662 C.ar      1 <0>        -0.0503
     27 C21        -3.7147   -0.5596   -0.3919 C.ar      1 <0>        -0.1042
     28 C22        -3.2693   -1.6660    0.4845 C.ar      1 <0>        -0.0360
     29 C23        -3.9084   -2.7313    1.1102 C.ar      1 <0>        -0.0288
     30 C24        -3.1873   -3.6421    1.8754 C.ar      1 <0>        -0.1255
     31 C25        -4.1221   -4.6480    2.4030 C.2       1 <0>         0.5632
     32 O2         -3.8062   -5.5851    3.1110 O.2       1 <0>        -0.5106
     33 N3         -5.3744   -4.3851    1.9926 N.am      1 <0>        -0.7162
     34 C26        -5.3495   -3.1771    1.1601 C.3       1 <0>         0.1358
     35 N4         -0.3067   -2.7008   -1.0216 N.4       1 <0>        -0.5252
     36 C27         0.0145   -4.1336   -0.9773 C.3       1 <0>        -0.0497
     37 O3         -0.3340   -0.2979   -2.5607 O.3       1 <0>        -0.3614
     38 C28         0.3101   -0.0933   -3.8198 C.3       1 <0>         0.0162
     39 H4          0.8261    2.0094    0.0240 H         1 <0>         0.0984
     40 H5         -0.3202    1.8814   -1.3317 H         1 <0>         0.1036
     41 H6         -0.9255    1.9818    0.3392 H         1 <0>         0.0921
     42 H7          2.1370   -3.1081    0.0458 H         1 <0>         0.1233
     43 H8          2.7835   -1.4869   -0.3048 H         1 <0>         0.1455
     44 H9          2.6036   -3.5149    2.8368 H         1 <0>         0.1365
     45 H10         2.5026   -5.5304    4.2610 H         1 <0>         0.1359
     46 H11         0.4045   -6.6780    4.6980 H         1 <0>         0.1352
     47 H12        -1.7278   -5.8736    3.7323 H         1 <0>         0.1600
     48 H13        -1.7792    1.9122   -1.7624 H         1 <0>         0.1440
     49 H14        -4.0153    2.5500   -2.5970 H         1 <0>         0.1336
     50 H15        -5.9967    1.2527   -2.0488 H         1 <0>         0.1332
     51 H16        -5.8575   -0.7687   -0.6249 H         1 <0>         0.1415
     52 H17        -6.1628   -4.9065    2.2103 H         1 <0>         0.4348
     53 H18        -5.9671   -2.3994    1.6094 H         1 <0>         0.1115
     54 H19        -5.7060   -3.4063    0.1559 H         1 <0>         0.1103
     55 H20        -0.6958   -2.4158   -0.1353 H         1 <0>         0.4186
     56 H21         0.4349   -4.4415   -1.9347 H         1 <0>         0.1256
     57 H22         0.7403   -4.3189   -0.1854 H         1 <0>         0.1191
     58 H23        -0.8932   -4.7035   -0.7789 H         1 <0>         0.1256
     59 H24         0.9168    0.8112   -3.7748 H         1 <0>         0.0633
     60 H25         0.9482   -0.9479   -4.0446 H         1 <0>         0.0514
     61 H26        -0.4433    0.0130   -4.6003 H         1 <0>         0.1100
     62 H27        -0.9785   -2.5293   -1.7546 H         1 <0>         0.4274
@<TRIPOS>BOND
     1    1    2 1
     2    1   39 1
     3    1   40 1
     4    1   41 1
     5    2   10 1
     6    2   21 1
     7    2    3 1
     8    3    4 1
     9    3    5 1
    10    3   37 1
    11    5    6 1
    12    5    7 1
    13    5   35 1
    14    7    8 1
    15    7   42 1
    16    7   43 1
    17    8    9 1
    18    8   10 1
    19    8   11 1
    20   11   19 1
    21   11   12 1
    22   12   17 ar
    23   12   13 ar
    24   13   14 ar
    25   13   44 1
    26   14   15 ar
    27   14   45 1
    28   15   16 ar
    29   15   46 1
    30   16   17 ar
    31   16   47 1
    32   17   18 1
    33   18   30 ar
    34   18   19 ar
    35   19   20 ar
    36   20   28 ar
    37   20   21 1
    38   21   22 1
    39   22   27 ar
    40   22   23 ar
    41   23   24 ar
    42   23   48 1
    43   24   25 ar
    44   24   49 1
    45   25   26 ar
    46   25   50 1
    47   26   27 ar
    48   26   51 1
    49   27   28 1
    50   28   29 ar
    51   29   34 1
    52   29   30 ar
    53   30   31 1
    54   31   32 2
    55   31   33 am
    56   33   34 1
    57   33   52 1
    58   34   53 1
    59   34   54 1
    60   35   36 1
    61   35   55 1
    62   35   62 1
    63   36   56 1
    64   36   57 1
    65   36   58 1
    66   37   38 1
    67   38   59 1
    68   38   60 1
    69   38   61 1
@<TRIPOS>MOLECULE
ZINC14945722
   37    39     0     0     0
SMALL
USER_CHARGES
N-[(1R)-1-phenylethyl]-2-(trifluoromethyl)quinazolin-4-amine
@<TRIPOS>ATOM
      1 C1         -5.2448    4.3834    1.5083 C.3       1 <0>        -0.1582
      2 C2         -4.8935    4.0117    0.0663 C.3       1 <0>         0.1871
      3 H1         -4.7557    4.9202   -0.5198 H         1 <0>         0.1069
      4 C3         -6.0115    3.1948   -0.5285 C.ar      1 <0>        -0.0970
      5 C4         -6.1072    1.8450   -0.2460 C.ar      1 <0>        -0.1177
      6 C5         -7.1352    1.0966   -0.7881 C.ar      1 <0>        -0.1142
      7 C6         -8.0620    1.6959   -1.6204 C.ar      1 <0>        -0.1159
      8 C7         -7.9635    3.0447   -1.9067 C.ar      1 <0>        -0.1130
      9 C8         -6.9380    3.7940   -1.3611 C.ar      1 <0>        -0.1041
     10 N1         -3.6553    3.2287    0.0517 N.pl3     1 <0>        -0.6827
     11 C9         -2.4348    3.8693    0.0443 C.ar      1 <0>         0.4877
     12 C10        -1.2257    3.1314    0.0296 C.ar      1 <0>        -0.1796
     13 C11        -1.2080    1.7323    0.0172 C.ar      1 <0>        -0.0744
     14 C12        -0.0126    1.0758    0.0080 C.ar      1 <0>        -0.1174
     15 C13         1.1889    1.7788    0.0003 C.ar      1 <0>        -0.0722
     16 C14         1.2055    3.1419    0.0074 C.ar      1 <0>        -0.0972
     17 C15        -0.0047    3.8484    0.0222 C.ar      1 <0>         0.1839
     18 N2         -0.0446    5.1893    0.0292 N.ar      1 <0>        -0.5048
     19 C16        -1.1945    5.8203    0.0427 C.ar      1 <0>         0.2969
     20 N3         -2.3602    5.1934    0.0502 N.ar      1 <0>        -0.5677
     21 C17        -1.1880    7.3273    0.0506 C.3       1 <0>         0.5468
     22 F1          0.0849    7.7900   -0.2996 F         1 <0>        -0.1548
     23 F2         -2.1269    7.8025   -0.8713 F         1 <0>        -0.1606
     24 F3         -1.5161    7.7883    1.3301 F         1 <0>        -0.1639
     25 H2         -4.4362    4.9742    1.9385 H         1 <0>         0.0679
     26 H3         -6.1660    4.9659    1.5192 H         1 <0>         0.0735
     27 H4         -5.3825    3.4748    2.0945 H         1 <0>         0.0590
     28 H5         -5.3807    1.3758    0.4010 H         1 <0>         0.1176
     29 H6         -7.2124    0.0429   -0.5641 H         1 <0>         0.1251
     30 H7         -8.8633    1.1105   -2.0466 H         1 <0>         0.1249
     31 H8         -8.6876    3.5130   -2.5570 H         1 <0>         0.1267
     32 H9         -6.8608    4.8477   -1.5851 H         1 <0>         0.1271
     33 H10        -3.6944    2.2595    0.0472 H         1 <0>         0.4133
     34 H11        -2.1340    1.1764    0.0190 H         1 <0>         0.1291
     35 H12         0.0021   -0.0041    0.0020 H         1 <0>         0.1361
     36 H13         2.1225    1.2359   -0.0112 H         1 <0>         0.1396
     37 H14         2.1453    3.6739    0.0020 H         1 <0>         0.1465
@<TRIPOS>BOND
     1    1    2 1
     2    1   25 1
     3    1   26 1
     4    1   27 1
     5    2    3 1
     6    2    4 1
     7    2   10 1
     8    4    9 ar
     9    4    5 ar
    10    5    6 ar
    11    5   28 1
    12    6    7 ar
    13    6   29 1
    14    7    8 ar
    15    7   30 1
    16    8    9 ar
    17    8   31 1
    18    9   32 1
    19   10   11 1
    20   10   33 1
    21   11   20 ar
    22   11   12 ar
    23   12   17 ar
    24   12   13 ar
    25   13   14 ar
    26   13   34 1
    27   14   15 ar
    28   14   35 1
    29   15   16 ar
    30   15   36 1
    31   16   17 ar
    32   16   37 1
    33   17   18 ar
    34   18   19 ar
    35   19   20 ar
    36   19   21 1
    37   21   22 1
    38   21   23 1
    39   21   24 1
@<TRIPOS>MOLECULE
ZINC14945723
   37    39     0     0     0
SMALL
USER_CHARGES
N-[(1S)-1-phenylethyl]-2-(trifluoromethyl)quinazolin-4-amine
@<TRIPOS>ATOM
      1 C1         -0.0127    1.0858    0.0080 C.3       1 <0>        -0.1580
      2 C2         -0.7288    1.5792    1.2668 C.3       1 <0>         0.1874
      3 H1         -0.7436    2.6691    1.2728 H         1 <0>         0.1068
      4 C3         -2.1426    1.0576    1.2775 C.ar      1 <0>        -0.0972
      5 C4         -2.3972   -0.2410    1.6771 C.ar      1 <0>        -0.1176
      6 C5         -3.6946   -0.7181    1.6911 C.ar      1 <0>        -0.1143
      7 C6         -4.7363    0.1005    1.2968 C.ar      1 <0>        -0.1159
      8 C7         -4.4812    1.3975    0.8922 C.ar      1 <0>        -0.1131
      9 C8         -3.1843    1.8760    0.8824 C.ar      1 <0>        -0.1041
     10 N1         -0.0203    1.0939    2.4537 N.pl3     1 <0>        -0.6827
     11 C9          1.0559    1.7981    2.9499 C.ar      1 <0>         0.4873
     12 C10         1.7513    1.3497    4.0996 C.ar      1 <0>        -0.1796
     13 C11         1.3943    0.1774    4.7750 C.ar      1 <0>        -0.0744
     14 C12         2.1055   -0.2082    5.8732 C.ar      1 <0>        -0.1174
     15 C13         3.1843    0.5455    6.3270 C.ar      1 <0>        -0.0721
     16 C14         3.5607    1.6892    5.6878 C.ar      1 <0>        -0.0973
     17 C15         2.8519    2.1147    4.5561 C.ar      1 <0>         0.1842
     18 N2          3.1808    3.2318    3.8903 N.ar      1 <0>        -0.5055
     19 C16         2.4970    3.6021    2.8339 C.ar      1 <0>         0.2969
     20 N3          1.4652    2.9169    2.3672 N.ar      1 <0>        -0.5668
     21 C17         2.9050    4.8644    2.1190 C.3       1 <0>         0.5467
     22 F1          2.4996    5.9754    2.8664 F         1 <0>        -0.1637
     23 F2          4.2957    4.8862    1.9681 F         1 <0>        -0.1595
     24 F3          2.2985    4.9035    0.8590 F         1 <0>        -0.1561
     25 H2          0.0021   -0.0041    0.0020 H         1 <0>         0.0587
     26 H3          1.0099    1.4631    0.0003 H         1 <0>         0.0681
     27 H4         -0.5399    1.4469   -0.8751 H         1 <0>         0.0734
     28 H5         -1.5829   -0.8818    1.9815 H         1 <0>         0.1177
     29 H6         -3.8940   -1.7313    2.0075 H         1 <0>         0.1251
     30 H7         -5.7496   -0.2730    1.3052 H         1 <0>         0.1248
     31 H8         -5.2951    2.0371    0.5842 H         1 <0>         0.1267
     32 H9         -2.9850    2.8893    0.5663 H         1 <0>         0.1270
     33 H10        -0.3084    0.2771    2.8903 H         1 <0>         0.4132
     34 H11         0.5594   -0.4155    4.4319 H         1 <0>         0.1291
     35 H12         1.8276   -1.1103    6.3980 H         1 <0>         0.1361
     36 H13         3.7313    0.2193    7.1992 H         1 <0>         0.1396
     37 H14         4.4000    2.2637    6.0511 H         1 <0>         0.1463
@<TRIPOS>BOND
     1    1    2 1
     2    1   25 1
     3    1   26 1
     4    1   27 1
     5    2    3 1
     6    2    4 1
     7    2   10 1
     8    4    9 ar
     9    4    5 ar
    10    5    6 ar
    11    5   28 1
    12    6    7 ar
    13    6   29 1
    14    7    8 ar
    15    7   30 1
    16    8    9 ar
    17    8   31 1
    18    9   32 1
    19   10   11 1
    20   10   33 1
    21   11   20 ar
    22   11   12 ar
    23   12   17 ar
    24   12   13 ar
    25   13   14 ar
    26   13   34 1
    27   14   15 ar
    28   14   35 1
    29   15   16 ar
    30   15   36 1
    31   16   17 ar
    32   16   37 1
    33   17   18 ar
    34   18   19 ar
    35   19   20 ar
    36   19   21 1
    37   21   22 1
    38   21   23 1
    39   21   24 1
@<TRIPOS>MOLECULE
ZINC13763987
   58    60     0     0     0
SMALL
USER_CHARGES

@<TRIPOS>ATOM
      1 C1          0.1578    1.5374   -0.0550 C.3       1 <0>         0.0751
      2 N1          0.1405    0.0725   -0.0490 N.pl3     1 <0>        -0.6052
      3 C2          0.1526   -0.6549    1.2226 C.3       1 <0>         0.0781
      4 C3          0.1130   -0.6173   -1.2329 C.ar      1 <0>         0.2662
      5 C4          0.0907   -2.0163   -1.2253 C.ar      1 <0>        -0.2052
      6 C5          0.0634   -2.7049   -2.4005 C.ar      1 <0>        -0.0095
      7 C6          0.0571   -2.0088   -3.6208 C.ar      1 <0>        -0.2285
      8 C7          0.0791   -0.6041   -3.6251 C.ar      1 <0>        -0.0136
      9 C8          0.1015    0.0789   -2.4465 C.ar      1 <0>        -0.2096
     10 C9          0.0283   -2.7459   -4.8858 C.2       1 <0>         0.3472
     11 C10        -1.1318   -2.6338   -5.7722 C.2       1 <0>        -0.2156
     12 C11        -2.2155   -1.8149   -5.4131 C.2       1 <0>         0.0427
     13 C12        -3.2932   -1.7123   -6.2402 C.2       1 <0>        -0.2291
     14 C13        -3.3218   -2.4218   -7.4458 C.2       1 <0>         0.3271
     15 N2         -4.4076   -2.3168   -8.2754 N.pl3     1 <0>        -0.5670
     16 C14        -5.5932   -1.5745   -7.8399 C.3       1 <0>         0.0599
     17 C15        -4.3827   -2.9470   -9.5977 C.3       1 <0>         0.0554
     18 C16        -2.2440   -3.2378   -7.8064 C.2       1 <0>        -0.2315
     19 C17        -1.1610   -3.3404   -6.9861 C.2       1 <0>         0.0418
     20 C18         1.1595   -3.5951   -5.2643 C.ar      1 <0>        -0.2294
     21 C19         1.4688   -4.7356   -4.5044 C.ar      1 <0>        -0.0083
     22 C20         2.5217   -5.5239   -4.8594 C.ar      1 <0>        -0.2091
     23 C21         3.2949   -5.1986   -5.9792 C.ar      1 <0>         0.2684
     24 C22         2.9897   -4.0632   -6.7377 C.ar      1 <0>        -0.2129
     25 C23         1.9343   -3.2743   -6.3915 C.ar      1 <0>        -0.0124
     26 N3          4.3537   -5.9934   -6.3335 N.pl3     1 <0>        -0.6054
     27 C24         4.6068   -7.2418   -5.6099 C.3       1 <0>         0.0752
     28 C25         5.2324   -5.5946   -7.4358 C.3       1 <0>         0.0714
     29 H1          1.1895    1.8885   -0.0733 H         1 <0>         0.0634
     30 H2         -0.3662    1.9033   -0.9380 H         1 <0>         0.0772
     31 H3         -0.3371    1.9103    0.8417 H         1 <0>         0.0797
     32 H4          0.1745    0.0566    2.0480 H         1 <0>         0.0849
     33 H5         -0.7436   -1.2708    1.2974 H         1 <0>         0.0666
     34 H6          1.0360   -1.2919    1.2684 H         1 <0>         0.0666
     35 H7          0.0955   -2.5508   -0.2869 H         1 <0>         0.1368
     36 H8          0.0469   -3.7848   -2.3941 H         1 <0>         0.1311
     37 H9          0.0744   -0.0662   -4.5616 H         1 <0>         0.1321
     38 H10         0.1143    1.1588   -2.4490 H         1 <0>         0.1385
     39 H11        -2.1943   -1.2676   -4.4823 H         1 <0>         0.1502
     40 H12        -4.1266   -1.0830   -5.9647 H         1 <0>         0.1496
     41 H13        -5.4962   -0.5296   -8.1347 H         1 <0>         0.0782
     42 H14        -6.4811   -2.0025   -8.3053 H         1 <0>         0.0920
     43 H15        -5.6843   -1.6391   -6.7557 H         1 <0>         0.0872
     44 H16        -3.4649   -3.5244   -9.7078 H         1 <0>         0.0932
     45 H17        -5.2428   -3.6085   -9.7012 H         1 <0>         0.0844
     46 H18        -4.4221   -2.1768  -10.3680 H         1 <0>         0.0828
     47 H19        -2.2688   -3.7839   -8.7378 H         1 <0>         0.1515
     48 H20        -0.3276   -3.9672   -7.2670 H         1 <0>         0.1501
     49 H21         0.8728   -4.9869   -3.6395 H         1 <0>         0.1313
     50 H22         2.7599   -6.4008   -4.2756 H         1 <0>         0.1387
     51 H23         3.5887   -3.8144   -7.6013 H         1 <0>         0.1403
     52 H24         1.6963   -2.4007   -6.9802 H         1 <0>         0.1323
     53 H25         4.0682   -8.0572   -6.0927 H         1 <0>         0.0638
     54 H26         5.6754   -7.4566   -5.6187 H         1 <0>         0.0794
     55 H27         4.2651   -7.1404   -4.5798 H         1 <0>         0.0780
     56 H28         4.8381   -4.6943   -7.9072 H         1 <0>         0.0851
     57 H29         6.2318   -5.3946   -7.0496 H         1 <0>         0.0679
     58 H30         5.2809   -6.3981   -8.1707 H         1 <0>         0.0706
@<TRIPOS>BOND
     1    1    2 1
     2    1   29 1
     3    1   30 1
     4    1   31 1
     5    2    3 1
     6    2    4 1
     7    3   32 1
     8    3   33 1
     9    3   34 1
    10    4    9 ar
    11    4    5 ar
    12    5    6 ar
    13    5   35 1
    14    6    7 ar
    15    6   36 1
    16    7    8 ar
    17    7   10 1
    18    8    9 ar
    19    8   37 1
    20    9   38 1
    21   10   11 2
    22   10   20 1
    23   11   19 1
    24   11   12 1
    25   12   13 2
    26   12   39 1
    27   13   14 1
    28   13   40 1
    29   14   15 2
    30   14   18 1
    31   15   16 1
    32   15   17 1
    33   16   41 1
    34   16   42 1
    35   16   43 1
    36   17   44 1
    37   17   45 1
    38   17   46 1
    39   18   19 2
    40   18   47 1
    41   19   48 1
    42   20   25 ar
    43   20   21 ar
    44   21   22 ar
    45   21   49 1
    46   22   23 ar
    47   22   50 1
    48   23   24 ar
    49   23   26 1
    50   24   25 ar
    51   24   51 1
    52   25   52 1
    53   26   27 1
    54   26   28 1
    55   27   53 1
    56   27   54 1
    57   27   55 1
    58   28   56 1
    59   28   57 1
    60   28   58 1
@<TRIPOS>MOLECULE
ZINC17782150
   26    27     0     0     0
SMALL
USER_CHARGES

@<TRIPOS>ATOM
      1 C1          1.2107    0.1110   -0.3167 C.ar      1 <0>        -0.0845
      2 C2          2.3695    0.6247   -0.8574 C.ar      1 <0>        -0.1353
      3 C3          2.4406    0.9025   -2.2165 C.ar      1 <0>         0.1143
      4 C4          1.3452    0.6641   -3.0367 C.ar      1 <0>        -0.1360
      5 C5          0.1823    0.1506   -2.5047 C.ar      1 <0>        -0.0742
      6 C6          0.1062   -0.1304   -1.1380 C.ar      1 <0>         0.0044
      7 N1         -1.0458   -0.6406   -0.6057 N.2       1 <0>        -0.1879
      8 N2         -1.0418   -1.8093   -0.0598 N.2       1 <0>        -0.0741
      9 C7          0.0830   -2.5712   -0.0938 C.2       1 <0>        -0.2800
     10 C8          0.6978   -3.1916    0.9919 C.2       1 <0>         0.4511
     11 N3          1.7806   -3.8437    0.5189 N.pl3     1 <0>        -0.4845
     12 H1          2.4027   -4.3664    1.0487 H         1 <0>         0.4440
     13 N4          1.8562   -3.6401   -0.8630 N.2       1 <0>        -0.3488
     14 C9          0.8522   -2.8919   -1.2429 C.2       1 <0>         0.3951
     15 N5          0.5863   -2.4778   -2.5498 N.pl3     1 <0>        -0.8342
     16 N6          0.2770   -3.1474    2.3083 N.pl3     1 <0>        -0.8307
     17 O1          3.5849    1.4093   -2.7452 O.3       1 <0>        -0.4982
     18 H2          1.1578   -0.1088    0.7393 H         1 <0>         0.1196
     19 H3          3.2235    0.8119   -0.2234 H         1 <0>         0.1292
     20 H4          1.4048    0.8819   -4.0928 H         1 <0>         0.1346
     21 H5         -0.6689   -0.0344   -3.1432 H         1 <0>         0.1333
     22 H6         -0.2564   -2.0454   -2.7596 H         1 <0>         0.4089
     23 H7          1.2441   -2.6224   -3.2478 H         1 <0>         0.4071
     24 H8         -0.5195   -2.6474    2.5463 H         1 <0>         0.4262
     25 H9          0.7782   -3.6163    2.9937 H         1 <0>         0.4085
     26 H10         4.2088    0.7365   -3.0504 H         1 <0>         0.3919
@<TRIPOS>BOND
     1    1    6 ar
     2    1    2 ar
     3    1   18 1
     4    2    3 ar
     5    2   19 1
     6    3    4 ar
     7    3   17 1
     8    4    5 ar
     9    4   20 1
    10    5    6 ar
    11    5   21 1
    12    6    7 1
    13    7    8 2
    14    8    9 1
    15    9   14 1
    16    9   10 2
    17   10   11 1
    18   10   16 1
    19   11   12 1
    20   11   13 1
    21   13   14 2
    22   14   15 1
    23   15   22 1
    24   15   23 1
    25   16   24 1
    26   16   25 1
    27   17   26 1
@<TRIPOS>MOLECULE
ZINC17782150
   26    27     0     0     0
SMALL
USER_CHARGES

@<TRIPOS>ATOM
      1 C1         -0.0174    1.4084   -0.0035 C.2       1 <0>         0.0112
      2 C2          1.1490    2.1020   -0.0127 C.2       1 <0>        -0.2354
      3 C3          2.3781    1.4147   -0.0189 C.2       1 <0>         0.3914
      4 O1          3.4293    2.0422   -0.0276 O.2       1 <0>        -0.4959
      5 C4          2.4000    0.0066   -0.0146 C.2       1 <0>        -0.2038
      6 C5          1.2360   -0.6911   -0.0055 C.2       1 <0>        -0.0732
      7 C6          0.0020   -0.0039    0.0003 C.2       1 <0>        -0.0408
      8 N1         -1.1439   -0.6880    0.0093 N.2       1 <0>        -0.1200
      9 N2         -1.1284   -1.9737   -0.0951 N.pl3     1 <0>        -0.3983
     10 C7         -2.3258   -2.6792   -0.1925 C.2       1 <0>        -0.1356
     11 C8         -2.4915   -4.0393   -0.0144 C.2       1 <0>         0.3946
     12 N3         -3.8094   -4.3124   -0.1979 N.pl3     1 <0>        -0.4817
     13 H1         -4.2228   -5.1876   -0.1354 H         1 <0>         0.4481
     14 N4         -4.4681   -3.1130   -0.4923 N.2       1 <0>        -0.3445
     15 C9         -3.5945   -2.1362   -0.4850 C.2       1 <0>         0.3948
     16 N5         -3.8720   -0.7869   -0.7289 N.pl3     1 <0>        -0.8316
     17 N6         -1.4956   -4.9568    0.2943 N.pl3     1 <0>        -0.8462
     18 H2         -0.9598    1.9360    0.0053 H         1 <0>         0.1368
     19 H3          1.1347    3.1819   -0.0156 H         1 <0>         0.1403
     20 H4          3.3438   -0.5184   -0.0190 H         1 <0>         0.1354
     21 H5          1.2532   -1.7710   -0.0029 H         1 <0>         0.1156
     22 H6         -0.2830   -2.4492   -0.1059 H         1 <0>         0.3885
     23 H7         -3.1564   -0.1325   -0.7044 H         1 <0>         0.4173
     24 H8         -4.7799   -0.5057   -0.9226 H         1 <0>         0.4065
     25 H9         -0.5792   -4.6589    0.4052 H         1 <0>         0.4149
     26 H10        -1.7165   -5.8955    0.3990 H         1 <0>         0.4118
@<TRIPOS>BOND
     1    1    7 1
     2    1    2 2
     3    1   18 1
     4    2    3 1
     5    2   19 1
     6    3    4 2
     7    3    5 1
     8    5    6 2
     9    5   20 1
    10    6    7 1
    11    6   21 1
    12    7    8 2
    13    8    9 1
    14    9   10 1
    15    9   22 1
    16   10   15 1
    17   10   11 2
    18   11   12 1
    19   11   17 1
    20   12   13 1
    21   12   14 1
    22   14   15 2
    23   15   16 1
    24   16   23 1
    25   16   24 1
    26   17   25 1
    27   17   26 1
@<TRIPOS>MOLECULE
ZINC17782150
   27    28     0     0     0
SMALL
USER_CHARGES

@<TRIPOS>ATOM
      1 C1         -0.0175    1.4085   -0.0037 C.2       1 <0>        -0.0225
      2 C2          1.1489    2.1020   -0.0131 C.2       1 <0>        -0.1922
      3 C3          2.3781    1.4147   -0.0189 C.2       1 <0>         0.3825
      4 O1          3.4292    2.0423   -0.0270 O.2       1 <0>        -0.4508
      5 C4          2.3999    0.0066   -0.0151 C.2       1 <0>        -0.1577
      6 C5          1.2360   -0.6911   -0.0058 C.2       1 <0>        -0.1054
      7 C6          0.0020   -0.0039    0.0001 C.2       1 <0>         0.0536
      8 N1         -1.1438   -0.6880    0.0097 N.2       1 <0>        -0.1779
      9 N2         -1.1284   -1.9737   -0.0947 N.pl3     1 <0>        -0.4557
     10 C7         -2.3266   -2.6796   -0.1916 C.2       1 <0>        -0.0807
     11 C8         -3.6016   -2.1885    0.0927 C.2       1 <0>         0.5070
     12 N3         -4.4718   -3.1700   -0.1238 N.pl3     1 <0>        -0.4351
     13 H1         -5.4329   -3.1104   -0.0067 H         1 <0>         0.4767
     14 N4         -3.7697   -4.3033   -0.5496 N.pl3     1 <0>        -0.4320
     15 C9         -2.4745   -4.0069   -0.5968 C.cat     1 <0>         0.4909
     16 N5         -1.4497   -4.8669   -0.9789 N.pl3     1 <0>        -0.8015
     17 N6         -3.9072   -0.9022    0.5261 N.pl3     1 <0>        -0.7849
     18 H2         -0.9598    1.9360    0.0052 H         1 <0>         0.1445
     19 H3          1.1346    3.1819   -0.0164 H         1 <0>         0.1516
     20 H4          3.3437   -0.5184   -0.0200 H         1 <0>         0.1472
     21 H5          1.2533   -1.7710   -0.0032 H         1 <0>         0.1241
     22 H6         -0.2830   -2.4492   -0.1058 H         1 <0>         0.4009
     23 H7         -0.5307   -4.5565   -0.9784 H         1 <0>         0.4379
     24 H8         -1.6542   -5.7767   -1.2456 H         1 <0>         0.4301
     25 H9         -3.1983   -0.2530    0.6563 H         1 <0>         0.4474
     26 H10        -4.8292   -0.6546    0.6981 H         1 <0>         0.4249
     27 H11        -4.1627   -5.1606   -0.7763 H         1 <0>         0.4771
@<TRIPOS>BOND
     1    1    7 1
     2    1    2 2
     3    1   18 1
     4    2    3 1
     5    2   19 1
     6    3    4 2
     7    3    5 1
     8    5    6 2
     9    5   20 1
    10    6    7 1
    11    6   21 1
    12    7    8 2
    13    8    9 1
    14    9   10 1
    15    9   22 1
    16   10   15 1
    17   10   11 2
    18   11   12 1
    19   11   17 1
    20   12   13 1
    21   12   14 1
    22   14   15 2
    23   14   27 1
    24   15   16 1
    25   16   23 1
    26   16   24 1
    27   17   25 1
    28   17   26 1
@<TRIPOS>MOLECULE
ZINC17782150
   27    28     0     0     0
SMALL
USER_CHARGES

@<TRIPOS>ATOM
      1 C1         -0.0671    0.1506   -2.4543 C.ar      1 <0>        -0.0780
      2 C2          1.0595    0.7606   -2.9618 C.ar      1 <0>        -0.1323
      3 C3          2.1414    1.0263   -2.1322 C.ar      1 <0>         0.1375
      4 C4          2.0935    0.6783   -0.7884 C.ar      1 <0>        -0.1371
      5 C5          0.9712    0.0675   -0.2723 C.ar      1 <0>        -0.0871
      6 C6         -0.1200   -0.2008   -1.1029 C.ar      1 <0>        -0.0437
      7 N1         -1.2364   -0.8062   -0.5947 N.2       1 <0>        -0.1165
      8 N2         -1.1558   -1.9926   -0.0947 N.2       1 <0>        -0.0827
      9 C7          0.0298   -2.6576   -0.1101 C.2       1 <0>        -0.2485
     10 C8          0.6721   -3.2493    0.9916 C.2       1 <0>         0.5430
     11 N3          1.7996   -3.7946    0.5541 N.pl3     1 <0>        -0.4351
     12 H1          2.4438   -4.2722    1.0997 H         1 <0>         0.4754
     13 N4          1.9080   -3.5694   -0.8222 N.pl3     1 <0>        -0.4342
     14 C9          0.8445   -2.8903   -1.2320 C.cat     1 <0>         0.5159
     15 N5          0.5851   -2.4808   -2.5317 N.pl3     1 <0>        -0.7884
     16 N6          0.2106   -3.2605    2.2997 N.pl3     1 <0>        -0.7813
     17 O1          3.2501    1.6279   -2.6368 O.3       1 <0>        -0.4969
     18 H2         -0.9096   -0.0516   -3.0990 H         1 <0>         0.1475
     19 H3          1.1014    1.0322   -4.0063 H         1 <0>         0.1476
     20 H4          2.9371    0.8865   -0.1470 H         1 <0>         0.1404
     21 H5          0.9350   -0.2033    0.7726 H         1 <0>         0.1284
     22 H6         -0.2238   -1.9840   -2.7314 H         1 <0>         0.4390
     23 H7          1.2125   -2.6913   -3.2409 H         1 <0>         0.4283
     24 H8         -0.5925   -2.7700    2.5349 H         1 <0>         0.4487
     25 H9          0.6911   -3.7589    2.9792 H         1 <0>         0.4290
     26 H10         3.2291    2.5936   -2.5905 H         1 <0>         0.4068
     27 H11         2.6401   -3.8647   -1.3860 H         1 <0>         0.4741
@<TRIPOS>BOND
     1    1    6 ar
     2    1    2 ar
     3    1   18 1
     4    2    3 ar
     5    2   19 1
     6    3    4 ar
     7    3   17 1
     8    4    5 ar
     9    4   20 1
    10    5    6 ar
    11    5   21 1
    12    6    7 1
    13    7    8 2
    14    8    9 1
    15    9   14 1
    16    9   10 2
    17   10   11 1
    18   10   16 1
    19   11   12 1
    20   11   13 1
    21   13   14 2
    22   13   27 1
    23   14   15 1
    24   15   22 1
    25   15   23 1
    26   16   24 1
    27   16   25 1
    28   17   26 1
@<TRIPOS>MOLECULE
ZINC17782150
   27    28     0     0     0
SMALL
USER_CHARGES

@<TRIPOS>ATOM
      1 C1         -0.0169    1.3931    0.0097 C.ar      1 <0>        -0.0402
      2 C2          1.1683    2.0962    0.0022 C.ar      1 <0>        -0.1473
      3 C3          2.3804    1.4181   -0.0131 C.ar      1 <0>         0.1484
      4 C4          2.4041    0.0293   -0.0212 C.ar      1 <0>        -0.1491
      5 C5          1.2238   -0.6820   -0.0142 C.ar      1 <0>        -0.0792
      6 C6          0.0021   -0.0041    0.0020 C.ar      1 <0>         0.0315
      7 N1         -1.1719   -0.7061    0.0099 N.2       1 <0>        -0.2435
      8 N2         -1.1522   -1.9959    0.0028 N.2       1 <0>        -0.1650
      9 C7         -2.3190   -2.6936    0.0106 C.2       1 <0>        -0.1586
     10 C8         -3.6171   -2.1538    0.0203 C.2       1 <0>         0.5109
     11 N3         -4.4735   -3.1670    0.0249 N.pl3     1 <0>        -0.4430
     12 H1         -5.4402   -3.0882    0.0311 H         1 <0>         0.4722
     13 N4         -3.7556   -4.3676    0.0184 N.pl3     1 <0>        -0.4369
     14 C9         -2.4578   -4.0926    0.0045 C.cat     1 <0>         0.5506
     15 N5         -1.4246   -5.0181   -0.0100 N.pl3     1 <0>        -0.7763
     16 N6         -3.9434   -0.8056    0.0246 N.pl3     1 <0>        -0.7729
     17 O1          3.5464    2.1154   -0.0204 O.3       1 <0>        -0.4956
     18 H2         -0.9589    1.9211    0.0260 H         1 <0>         0.1407
     19 H3          1.1546    3.1761    0.0077 H         1 <0>         0.1446
     20 H4          3.3488   -0.4938   -0.0334 H         1 <0>         0.1392
     21 H5          1.2431   -1.7618   -0.0213 H         1 <0>         0.1398
     22 H6         -0.5029   -4.7160   -0.0170 H         1 <0>         0.4492
     23 H7         -1.6239   -5.9674   -0.0132 H         1 <0>         0.4280
     24 H8         -3.2410   -0.1366    0.0209 H         1 <0>         0.4506
     25 H9         -4.8739   -0.5319    0.0313 H         1 <0>         0.4236
     26 H10         3.8924    2.3125    0.8608 H         1 <0>         0.4024
     27 H11        -4.1436   -5.2566    0.0204 H         1 <0>         0.4759
@<TRIPOS>BOND
     1    1    6 ar
     2    1    2 ar
     3    1   18 1
     4    2    3 ar
     5    2   19 1
     6    3    4 ar
     7    3   17 1
     8    4    5 ar
     9    4   20 1
    10    5    6 ar
    11    5   21 1
    12    6    7 1
    13    7    8 2
    14    8    9 1
    15    9   14 1
    16    9   10 2
    17   10   11 1
    18   10   16 1
    19   11   12 1
    20   11   13 1
    21   13   14 2
    22   13   27 1
    23   14   15 1
    24   15   22 1
    25   15   23 1
    26   16   24 1
    27   16   25 1
    28   17   26 1
@<TRIPOS>MOLECULE
ZINC00582590
   54    56     0     0     0
SMALL
USER_CHARGES

@<TRIPOS>ATOM
      1 C1          0.3210   -0.2542   -0.2950 C.3       1 <0>        -0.1471
      2 C2         -0.6989    0.1485    0.7720 C.3       1 <0>        -0.0980
      3 C3         -0.9526    1.6552    0.6922 C.3       1 <0>        -0.1473
      4 C4         -2.0102   -0.6029    0.5335 C.3       1 <0>         0.1711
      5 H1         -2.4152   -0.3269   -0.4401 H         1 <0>         0.1082
      6 C5         -3.0151   -0.2346    1.6269 C.3       1 <0>         0.0616
      7 O1         -2.4404   -0.4943    2.9092 O.3       1 <0>        -0.5710
      8 N1         -1.7592   -2.0458    0.5668 N.pl3     1 <0>        -0.6786
      9 C6         -2.6062   -2.9119   -0.1051 C.ar      1 <0>         0.6293
     10 N2         -3.6349   -2.4098   -0.7763 N.ar      1 <0>        -0.6062
     11 C7         -4.4751   -3.1988   -1.4363 C.ar      1 <0>         0.5376
     12 C8         -4.2539   -4.5867   -1.4114 C.ar      1 <0>        -0.1535
     13 C9         -3.1523   -5.0726   -0.6878 C.ar      1 <0>         0.3509
     14 N3         -2.3585   -4.2107   -0.0601 N.ar      1 <0>        -0.6161
     15 N4         -3.1762   -6.4368   -0.8324 N.pl3     1 <0>        -0.4727
     16 C10        -4.2520   -6.7464   -1.6124 C.2       1 <0>         0.2292
     17 N5         -4.8825   -5.6599   -1.9508 N.2       1 <0>        -0.4526
     18 C11        -2.2219   -7.3866   -0.2551 C.3       1 <0>         0.1354
     19 C12        -2.9632   -8.3593    0.6643 C.3       1 <0>        -0.1619
     20 C13        -1.5372   -8.1679   -1.3784 C.3       1 <0>        -0.1618
     21 N6         -5.5464   -2.6655   -2.1337 N.pl3     1 <0>        -0.6280
     22 C14        -5.6825   -1.2864   -2.2512 C.ar      1 <0>         0.1488
     23 C15        -4.5525   -0.4885   -2.4166 C.ar      1 <0>        -0.1220
     24 C16        -4.6779    0.8657   -2.5326 C.ar      1 <0>        -0.0594
     25 C17        -5.9451    1.4590   -2.4857 C.ar      1 <0>        -0.1364
     26 C18        -7.0831    0.6589   -2.3195 C.ar      1 <0>         0.0117
     27 C19        -6.9477   -0.7079   -2.2089 C.ar      1 <0>        -0.1557
     28 Cl1        -8.6583    1.3861   -2.2597 Cl        1 <0>        -0.0441
     29 C20        -6.0813    2.9182   -2.6102 C.2       1 <0>         0.5168
     30 O2         -5.0862    3.6154   -2.7549 O.co2     1 <0>        -0.6900
     31 O3         -7.1896    3.4349   -2.5690 O.co2     1 <0>        -0.6630
     32 H2          1.2552    0.2811   -0.1251 H         1 <0>         0.0549
     33 H3          0.5018   -1.3276   -0.2382 H         1 <0>         0.0529
     34 H4         -0.0674   -0.0030   -1.2820 H         1 <0>         0.0568
     35 H5         -0.3105   -0.1028    1.7590 H         1 <0>         0.0821
     36 H6         -1.3236    1.9090   -0.3008 H         1 <0>         0.0629
     37 H7         -1.6929    1.9391    1.4402 H         1 <0>         0.0595
     38 H8         -0.0222    2.1908    0.8803 H         1 <0>         0.0576
     39 H9         -3.2659    0.8232    1.5485 H         1 <0>         0.0601
     40 H10        -3.9187   -0.8321    1.5060 H         1 <0>         0.0503
     41 H11        -3.0232   -0.2835    3.6514 H         1 <0>         0.3749
     42 H12        -0.9999   -2.3948    1.0594 H         1 <0>         0.4127
     43 H13        -4.5374   -7.7457   -1.9061 H         1 <0>         0.2129
     44 H14        -1.4715   -6.8438    0.3196 H         1 <0>         0.1056
     45 H15        -3.7136   -8.9021    0.0895 H         1 <0>         0.0647
     46 H16        -2.2531   -9.0660    1.0938 H         1 <0>         0.0772
     47 H17        -3.4510   -7.8027    1.4645 H         1 <0>         0.0630
     48 H18        -1.0091   -7.4750   -2.0333 H         1 <0>         0.0633
     49 H19        -0.8272   -8.8746   -0.9489 H         1 <0>         0.0771
     50 H20        -2.2876   -8.7108   -1.9531 H         1 <0>         0.0647
     51 H21        -6.2018   -3.2539   -2.5402 H         1 <0>         0.4250
     52 H22        -3.5736   -0.9432   -2.4528 H         1 <0>         0.1261
     53 H23        -3.7989    1.4800   -2.6603 H         1 <0>         0.1350
     54 H24        -7.8223   -1.3294   -2.0853 H         1 <0>         0.1255
@<TRIPOS>BOND
     1    1    2 1
     2    1   32 1
     3    1   33 1
     4    1   34 1
     5    2    3 1
     6    2    4 1
     7    2   35 1
     8    3   36 1
     9    3   37 1
    10    3   38 1
    11    4    5 1
    12    4    6 1
    13    4    8 1
    14    6    7 1
    15    6   39 1
    16    6   40 1
    17    7   41 1
    18    8    9 1
    19    8   42 1
    20    9   14 ar
    21    9   10 ar
    22   10   11 ar
    23   11   12 ar
    24   11   21 1
    25   12   17 1
    26   12   13 ar
    27   13   14 ar
    28   13   15 1
    29   15   16 1
    30   15   18 1
    31   16   17 2
    32   16   43 1
    33   18   19 1
    34   18   20 1
    35   18   44 1
    36   19   45 1
    37   19   46 1
    38   19   47 1
    39   20   48 1
    40   20   49 1
    41   20   50 1
    42   21   22 1
    43   21   51 1
    44   22   27 ar
    45   22   23 ar
    46   23   24 ar
    47   23   52 1
    48   24   25 ar
    49   24   53 1
    50   25   26 ar
    51   25   29 1
    52   26   27 ar
    53   26   28 1
    54   27   54 1
    55   29   30 2
    56   29   31 1
@<TRIPOS>MOLECULE
ZINC00582575
   52    54     0     0     0
SMALL
USER_CHARGES

@<TRIPOS>ATOM
      1 C1          0.4280   -0.4909    1.8513 C.3       1 <0>        -0.1353
      2 C2         -0.1373    0.3043    0.6728 C.3       1 <0>        -0.0998
      3 C3          0.1219    1.7960    0.8928 C.3       1 <0>        -0.1438
      4 C4          0.5445   -0.1465   -0.6206 C.3       1 <0>         0.1707
      5 H1          1.6116    0.0682   -0.5626 H         1 <0>         0.1020
      6 C5         -0.0633    0.6053   -1.8064 C.3       1 <0>         0.0638
      7 O1         -1.4784    0.4070   -1.8214 O.3       1 <0>        -0.5678
      8 N1          0.3453   -1.5866   -0.8014 N.pl3     1 <0>        -0.6843
      9 C6          1.2038   -2.4865   -0.1915 C.ar      1 <0>         0.6278
     10 N2          2.1960   -2.0197    0.5559 N.ar      1 <0>        -0.6013
     11 C7          3.0454   -2.8423    1.1611 C.ar      1 <0>         0.5297
     12 C8          2.8737   -4.2277    0.9949 C.ar      1 <0>        -0.1465
     13 C9          1.8096   -4.6754    0.1948 C.ar      1 <0>         0.3495
     14 N3          1.0032   -3.7820   -0.3699 N.ar      1 <0>        -0.6072
     15 N4          1.8776   -6.0456    0.2064 N.pl3     1 <0>        -0.4700
     16 C10         2.9424   -6.3955    0.9844 C.2       1 <0>         0.2415
     17 N5          3.5251   -5.3277    1.4458 N.2       1 <0>        -0.4572
     18 C11         0.9729   -6.9645   -0.4890 C.3       1 <0>         0.1340
     19 C12         1.7722   -7.8175   -1.4761 C.3       1 <0>        -0.1629
     20 C13         0.2864   -7.8742    0.5318 C.3       1 <0>        -0.1632
     21 N6          4.0779   -2.3459    1.9386 N.pl3     1 <0>        -0.6355
     22 C14         4.2903   -0.9669    2.0207 C.ar      1 <0>         0.1742
     23 C15         4.0436   -0.1577    0.9185 C.ar      1 <0>        -0.1100
     24 C16         4.2538    1.2045    1.0024 C.ar      1 <0>        -0.0884
     25 C17         4.7100    1.7642    2.1819 C.ar      1 <0>        -0.1271
     26 C18         4.9569    0.9617    3.2819 C.ar      1 <0>        -0.0129
     27 C19         4.7429   -0.4020    3.2058 C.ar      1 <0>        -0.1416
     28 Cl1         5.5294    1.6687    4.7604 Cl        1 <0>        -0.0669
     29 H2          0.2433   -1.5536    1.6946 H         1 <0>         0.0430
     30 H3          1.5012   -0.3158    1.9263 H         1 <0>         0.0707
     31 H4         -0.0578   -0.1697    2.7727 H         1 <0>         0.0403
     32 H5         -1.2106    0.1292    0.5978 H         1 <0>         0.0766
     33 H6          1.1945    1.9872    0.8596 H         1 <0>         0.0559
     34 H7         -0.3739    2.3703    0.1101 H         1 <0>         0.0538
     35 H8         -0.2703    2.0934    1.8654 H         1 <0>         0.0560
     36 H9          0.1535    1.6693   -1.7118 H         1 <0>         0.0658
     37 H10         0.3663    0.2281   -2.7345 H         1 <0>         0.0519
     38 H11        -1.9308    0.8561   -2.5484 H         1 <0>         0.3823
     39 H12        -0.3878   -1.9099   -1.3481 H         1 <0>         0.4179
     40 H13         3.2553   -7.4091    1.1873 H         1 <0>         0.2164
     41 H14         0.2195   -6.3923   -1.0303 H         1 <0>         0.1069
     42 H15         2.5256   -8.3897   -0.9348 H         1 <0>         0.0660
     43 H16         1.0991   -8.5011   -1.9935 H         1 <0>         0.0802
     44 H17         2.2613   -7.1693   -2.2033 H         1 <0>         0.0632
     45 H18        -0.2830   -7.2665    1.2351 H         1 <0>         0.0634
     46 H19        -0.3867   -8.5579    0.0144 H         1 <0>         0.0803
     47 H20         1.0399   -8.4464    1.0731 H         1 <0>         0.0660
     48 H21         4.6539   -2.9553    2.4263 H         1 <0>         0.4297
     49 H22         3.6881   -0.5939   -0.0033 H         1 <0>         0.1411
     50 H23         4.0621    1.8335    0.1457 H         1 <0>         0.1337
     51 H24         4.8742    2.8298    2.2445 H         1 <0>         0.1331
     52 H25         4.9317   -1.0277    4.0656 H         1 <0>         0.1347
@<TRIPOS>BOND
     1    1    2 1
     2    1   29 1
     3    1   30 1
     4    1   31 1
     5    2    3 1
     6    2    4 1
     7    2   32 1
     8    3   33 1
     9    3   34 1
    10    3   35 1
    11    4    5 1
    12    4    6 1
    13    4    8 1
    14    6    7 1
    15    6   36 1
    16    6   37 1
    17    7   38 1
    18    8    9 1
    19    8   39 1
    20    9   14 ar
    21    9   10 ar
    22   10   11 ar
    23   11   12 ar
    24   11   21 1
    25   12   17 1
    26   12   13 ar
    27   13   14 ar
    28   13   15 1
    29   15   16 1
    30   15   18 1
    31   16   17 2
    32   16   40 1
    33   18   19 1
    34   18   20 1
    35   18   41 1
    36   19   42 1
    37   19   43 1
    38   19   44 1
    39   20   45 1
    40   20   46 1
    41   20   47 1
    42   21   22 1
    43   21   48 1
    44   22   27 ar
    45   22   23 ar
    46   23   24 ar
    47   23   49 1
    48   24   25 ar
    49   24   50 1
    50   25   26 ar
    51   25   51 1
    52   26   27 ar
    53   26   28 1
    54   27   52 1
@<TRIPOS>MOLECULE
ZINC12354940
   36    41     0     0     0
SMALL
USER_CHARGES

@<TRIPOS>ATOM
      1 C1         -0.0166    1.3735    0.0096 C.ar      1 <0>        -0.1479
      2 C2          1.1715    2.0889    0.0021 C.ar      1 <0>        -0.0724
      3 C3          2.3842    1.4344   -0.0130 C.ar      1 <0>        -0.1443
      4 C4          2.4249    0.0433   -0.0208 C.ar      1 <0>         0.1440
      5 C5          1.2217   -0.6796   -0.0132 C.ar      1 <0>        -0.1070
      6 C6          0.0021   -0.0041    0.0020 C.ar      1 <0>        -0.0471
      7 C7          1.5900   -2.1053   -0.0244 C.ar      1 <0>        -0.0113
      8 C8          0.8450   -3.2914   -0.0236 C.ar      1 <0>        -0.1089
      9 C9          1.5048   -4.5329   -0.0368 C.ar      1 <0>        -0.1090
     10 C10         2.9047   -4.5788   -0.0507 C.ar      1 <0>        -0.0113
     11 C11         3.8802   -5.6817   -0.0671 C.ar      1 <0>        -0.1071
     12 C12         3.7578   -7.0705   -0.0742 C.ar      1 <0>        -0.0471
     13 C13         4.8890   -7.8567   -0.0904 C.ar      1 <0>        -0.1479
     14 C14         6.1466   -7.2721   -0.0996 C.ar      1 <0>        -0.0724
     15 C15         6.2826   -5.9007   -0.0927 C.ar      1 <0>        -0.1443
     16 C16         5.1525   -5.0888   -0.0765 C.ar      1 <0>         0.1440
     17 N1          4.9928   -3.7159   -0.0666 N.pl3     1 <0>        -0.6062
     18 H1          5.7195   -3.0734   -0.0704 H         1 <0>         0.4202
     19 C17         3.6507   -3.3893   -0.0512 C.ar      1 <0>         0.1470
     20 C18         2.9933   -2.1524   -0.0381 C.ar      1 <0>         0.1470
     21 N2          3.4735   -0.8571   -0.0356 N.pl3     1 <0>        -0.6063
     22 H2          4.4125   -0.6141   -0.0429 H         1 <0>         0.4202
     23 C19         0.4437   -5.5556   -0.0320 C.2       1 <0>         0.5841
     24 O1          0.6177   -6.7581   -0.0399 O.2       1 <0>        -0.4586
     25 N3         -0.7498   -4.9352   -0.0170 N.am      1 <0>        -0.6811
     26 C20        -0.5964   -3.5989   -0.0112 C.2       1 <0>         0.5840
     27 O2         -1.4957   -2.7819    0.0023 O.2       1 <0>        -0.4587
     28 H3         -0.9603    1.8985    0.0259 H         1 <0>         0.1315
     29 H4          1.1462    3.1686    0.0077 H         1 <0>         0.1328
     30 H5          3.3035    2.0013   -0.0190 H         1 <0>         0.1270
     31 H6         -0.9246   -0.5587    0.0082 H         1 <0>         0.1419
     32 H7          2.7797   -7.5284   -0.0668 H         1 <0>         0.1419
     33 H8          4.7961   -8.9327   -0.0956 H         1 <0>         0.1315
     34 H9          7.0273   -7.8971   -0.1119 H         1 <0>         0.1328
     35 H10         7.2667   -5.4559   -0.0996 H         1 <0>         0.1270
     36 H11        -1.6062   -5.3906   -0.0108 H         1 <0>         0.4318
@<TRIPOS>BOND
     1    1    6 ar
     2    1    2 ar
     3    1   28 1
     4    2    3 ar
     5    2   29 1
     6    3    4 ar
     7    3   30 1
     8    4   21 1
     9    4    5 ar
    10    5    6 ar
    11    5    7 1
    12    6   31 1
    13    7   20 ar
    14    7    8 ar
    15    8   26 1
    16    8    9 ar
    17    9   10 ar
    18    9   23 1
    19   10   19 ar
    20   10   11 1
    21   11   16 ar
    22   11   12 ar
    23   12   13 ar
    24   12   32 1
    25   13   14 ar
    26   13   33 1
    27   14   15 ar
    28   14   34 1
    29   15   16 ar
    30   15   35 1
    31   16   17 1
    32   17   18 1
    33   17   19 1
    34   19   20 ar
    35   20   21 1
    36   21   22 1
    37   23   24 2
    38   23   25 am
    39   25   26 am
    40   25   36 1
    41   26   27 2
@<TRIPOS>MOLECULE
ZINC01641925
   40    42     0     0     0
SMALL
USER_CHARGES

@<TRIPOS>ATOM
      1 C1         -0.0178    1.4608    0.0101 C.3       1 <0>         0.0831
      2 N1          0.0021   -0.0041    0.0020 N.pl3     1 <0>        -0.4808
      3 C2          0.0085   -0.8054   -1.1023 C.2       1 <0>         0.2308
      4 N2          0.0274   -2.0557   -0.7436 N.2       1 <0>        -0.4545
      5 C3          0.0343   -2.1368    0.6098 C.ar      1 <0>        -0.1554
      6 C4          0.0236   -0.8217    1.1034 C.ar      1 <0>         0.3460
      7 N3          0.0327   -0.6231    2.4177 N.ar      1 <0>        -0.6159
      8 C5          0.0544   -1.6488    3.2534 C.ar      1 <0>         0.6298
      9 N4          0.0680   -2.9065    2.8307 N.ar      1 <0>        -0.6237
     10 C6          0.0525   -3.1954    1.5342 C.ar      1 <0>         0.5415
     11 N5          0.0685   -4.5100    1.1029 N.pl3     1 <0>        -0.6890
     12 C7          0.0874   -5.6013    2.0801 C.3       1 <0>         0.1707
     13 C8          0.1022   -6.9232    1.3567 C.ar      1 <0>        -0.1135
     14 C9         -1.0881   -7.5430    1.0249 C.ar      1 <0>        -0.0983
     15 C10        -1.0745   -8.7555    0.3613 C.ar      1 <0>        -0.1220
     16 C11         0.1294   -9.3482    0.0290 C.ar      1 <0>        -0.1103
     17 C12         1.3196   -8.7280    0.3600 C.ar      1 <0>        -0.1222
     18 C13         1.3060   -7.5133    1.0198 C.ar      1 <0>        -0.0984
     19 N6          0.0637   -1.4010    4.6162 N.pl3     1 <0>        -0.6906
     20 C14         0.0877   -2.5182    5.5636 C.3       1 <0>         0.1417
     21 C15         0.0936   -1.9741    6.9936 C.3       1 <0>         0.0611
     22 O1         -1.1346   -1.2892    7.2477 O.3       1 <0>        -0.5709
     23 H1          1.0048    1.8381    0.0023 H         1 <0>         0.0748
     24 H2         -0.5450    1.8219   -0.8730 H         1 <0>         0.0893
     25 H3         -0.5280    1.8123    0.9069 H         1 <0>         0.0882
     26 H4         -0.0013   -0.4536   -2.1234 H         1 <0>         0.2190
     27 H5          0.0672   -4.7091    0.1536 H         1 <0>         0.4197
     28 H6          0.9790   -5.5172    2.7015 H         1 <0>         0.0778
     29 H7         -0.8008   -5.5413    2.7091 H         1 <0>         0.0779
     30 H8         -2.0286   -7.0800    1.2846 H         1 <0>         0.1238
     31 H9         -2.0044   -9.2401    0.1028 H         1 <0>         0.1245
     32 H10         0.1400  -10.2958   -0.4888 H         1 <0>         0.1237
     33 H11         2.2602   -9.1911    0.1006 H         1 <0>         0.1244
     34 H12         2.2359   -7.0270    1.2750 H         1 <0>         0.1237
     35 H13         0.0543   -0.4879    4.9432 H         1 <0>         0.4161
     36 H14        -0.7954   -3.1397    5.4150 H         1 <0>         0.0745
     37 H15         0.9844   -3.1155    5.3984 H         1 <0>         0.0812
     38 H16         0.2009   -2.8004    7.6963 H         1 <0>         0.0659
     39 H17         0.9273   -1.2826    7.1158 H         1 <0>         0.0536
     40 H18        -1.2006   -0.9172    8.1379 H         1 <0>         0.3829
@<TRIPOS>BOND
     1    1    2 1
     2    1   23 1
     3    1   24 1
     4    1   25 1
     5    2    6 1
     6    2    3 1
     7    3    4 2
     8    3   26 1
     9    4    5 1
    10    5   10 ar
    11    5    6 ar
    12    6    7 ar
    13    7    8 ar
    14    8    9 ar
    15    8   19 1
    16    9   10 ar
    17   10   11 1
    18   11   12 1
    19   11   27 1
    20   12   13 1
    21   12   28 1
    22   12   29 1
    23   13   18 ar
    24   13   14 ar
    25   14   15 ar
    26   14   30 1
    27   15   16 ar
    28   15   31 1
    29   16   17 ar
    30   16   32 1
    31   17   18 ar
    32   17   33 1
    33   18   34 1
    34   19   20 1
    35   19   35 1
    36   20   21 1
    37   20   36 1
    38   20   37 1
    39   21   22 1
    40   21   38 1
    41   21   39 1
    42   22   40 1
@<TRIPOS>MOLECULE
ZINC03872984
   56    63     0     0     0
SMALL
USER_CHARGES

@<TRIPOS>ATOM
      1 C1         -1.1449    0.9207   -2.2992 C.3       1 <0>        -0.1734
      2 C2         -0.8443   -0.1869   -1.2874 C.3       1 <0>         0.3608
      3 C3          0.6608   -0.5271   -1.2917 C.3       1 <0>         0.1089
      4 C4          1.0548   -0.6349    0.1959 C.3       1 <0>        -0.1931
      5 C5         -0.2437   -0.3496    0.9788 C.3       1 <0>         0.3159
      6 H1         -0.0464    0.3283    1.8093 H         1 <0>         0.1526
      7 O1         -1.1290    0.2586    0.0385 O.3       1 <0>        -0.3365
      8 N1         -0.7907   -1.6169    1.4725 N.pl3     1 <0>        -0.5139
      9 C6         -0.6316   -2.1589    2.7227 C.ar      1 <0>         0.1521
     10 C7          0.1280   -1.7303    3.8106 C.ar      1 <0>        -0.1535
     11 C8          0.0716   -2.4964    4.9622 C.ar      1 <0>        -0.0728
     12 C9         -0.6995   -3.6426    5.0489 C.ar      1 <0>        -0.1588
     13 C10        -1.4586   -4.0939    3.9832 C.ar      1 <0>        -0.0351
     14 C11        -1.4138   -3.3367    2.8110 C.ar      1 <0>        -0.1065
     15 C12        -2.0522   -3.5178    1.5109 C.ar      1 <0>         0.0000
     16 C13        -1.6151   -2.4505    0.7283 C.ar      1 <0>         0.1116
     17 C14        -1.9686   -2.3749   -0.6239 C.ar      1 <0>         0.1598
     18 N2         -1.6213   -1.3899   -1.6007 N.pl3     1 <0>        -0.5050
     19 C15        -2.1482   -1.7391   -2.8210 C.ar      1 <0>         0.1774
     20 C16        -2.0102   -1.1429   -4.0736 C.ar      1 <0>        -0.1496
     21 C17        -2.6914   -1.7253   -5.1291 C.ar      1 <0>        -0.0801
     22 C18        -3.4791   -2.8511   -4.9669 C.ar      1 <0>        -0.1542
     23 C19        -3.6271   -3.4663   -3.7348 C.ar      1 <0>        -0.0533
     24 C20        -2.9440   -2.8977   -2.6603 C.ar      1 <0>        -0.0998
     25 C21        -2.7951   -3.3523   -1.1935 C.ar      1 <0>        -0.0500
     26 C22        -3.2927   -4.3756   -0.3931 C.ar      1 <0>        -0.0443
     27 C23        -2.9346   -4.4703    0.9497 C.ar      1 <0>        -0.1321
     28 C24        -3.6117   -5.6413    1.5281 C.2       1 <0>         0.5681
     29 O2         -3.5170   -5.9945    2.6881 O.2       1 <0>        -0.5237
     30 N3         -4.3501   -6.2651    0.5950 N.am      1 <0>        -0.7231
     31 C25        -4.2144   -5.5378   -0.6718 C.3       1 <0>         0.1445
     32 C26         1.4435    0.5727   -1.9615 C.2       1 <0>         0.4474
     33 O3          1.9444    1.4488   -1.2970 O.2       1 <0>        -0.4796
     34 O4          1.5843    0.5792   -3.2964 O.3       1 <0>        -0.3367
     35 C27         2.3389    1.6518   -3.8640 C.3       1 <0>         0.0263
     36 O5          0.8858   -1.7724   -1.9557 O.3       1 <0>        -0.5063
     37 H2         -0.8247    1.8803   -1.8932 H         1 <0>         0.0927
     38 H3         -0.6079    0.7211   -3.2265 H         1 <0>         0.1054
     39 H4         -2.2161    0.9498   -2.4986 H         1 <0>         0.0969
     40 H5          1.4184   -1.6379    0.4192 H         1 <0>         0.1158
     41 H6          1.8148    0.1070    0.4406 H         1 <0>         0.1253
     42 H7          0.7351   -0.8387    3.7568 H         1 <0>         0.1302
     43 H8          0.6489   -2.1895    5.8218 H         1 <0>         0.1266
     44 H9         -0.7088   -4.2005    5.9737 H         1 <0>         0.1257
     45 H10        -2.0581   -4.9894    4.0552 H         1 <0>         0.1522
     46 H11        -1.3985   -0.2640   -4.2147 H         1 <0>         0.1366
     47 H12        -2.6051   -1.2859   -6.1119 H         1 <0>         0.1259
     48 H13        -3.9928   -3.2611   -5.8239 H         1 <0>         0.1251
     49 H14        -4.2422   -4.3455   -3.6122 H         1 <0>         0.1356
     50 H15        -4.8835   -7.0630    0.7354 H         1 <0>         0.4273
     51 H16        -5.1877   -5.1737   -1.0009 H         1 <0>         0.1006
     52 H17        -3.7798   -6.1869   -1.4321 H         1 <0>         0.1012
     53 H18         2.3752    1.5370   -4.9473 H         1 <0>         0.1105
     54 H19         1.8648    2.6011   -3.6149 H         1 <0>         0.0661
     55 H20         3.3522    1.6353   -3.4627 H         1 <0>         0.0654
     56 H21         1.8150   -2.0380   -1.9892 H         1 <0>         0.3910
@<TRIPOS>BOND
     1    1    2 1
     2    1   37 1
     3    1   38 1
     4    1   39 1
     5    2    7 1
     6    2   18 1
     7    2    3 1
     8    3    4 1
     9    3   32 1
    10    3   36 1
    11    4    5 1
    12    4   40 1
    13    4   41 1
    14    5    6 1
    15    5    7 1
    16    5    8 1
    17    8   16 1
    18    8    9 1
    19    9   14 ar
    20    9   10 ar
    21   10   11 ar
    22   10   42 1
    23   11   12 ar
    24   11   43 1
    25   12   13 ar
    26   12   44 1
    27   13   14 ar
    28   13   45 1
    29   14   15 1
    30   15   27 ar
    31   15   16 ar
    32   16   17 ar
    33   17   25 ar
    34   17   18 1
    35   18   19 1
    36   19   24 ar
    37   19   20 ar
    38   20   21 ar
    39   20   46 1
    40   21   22 ar
    41   21   47 1
    42   22   23 ar
    43   22   48 1
    44   23   24 ar
    45   23   49 1
    46   24   25 1
    47   25   26 ar
    48   26   31 1
    49   26   27 ar
    50   27   28 1
    51   28   29 2
    52   28   30 am
    53   30   31 1
    54   30   50 1
    55   31   51 1
    56   31   52 1
    57   32   33 2
    58   32   34 1
    59   34   35 1
    60   35   53 1
    61   35   54 1
    62   35   55 1
    63   36   56 1
@<TRIPOS>MOLECULE
ZINC03816409
   50    52     0     0     0
SMALL
USER_CHARGES
N-[5-[(5-tert-butyloxazol-2-yl)methylsulfanyl]thiazol-2-yl]piperidine-4-carboxamide
@<TRIPOS>ATOM
      1 C1         -0.0127    1.0858    0.0080 C.3       1 <0>        -0.1425
      2 C2         -0.7288    1.5792    1.2668 C.3       1 <0>         0.0153
      3 C3          0.0111    1.0724    2.5063 C.3       1 <0>        -0.1429
      4 C4         -0.7496    3.1091    1.2752 C.3       1 <0>        -0.1470
      5 C5         -2.1426    1.0576    1.2775 C.2       1 <0>        -0.0059
      6 C6         -2.5173   -0.2324    1.2742 C.2       1 <0>        -0.0384
      7 N1         -3.8616   -0.2670    1.2868 N.2       1 <0>        -0.4461
      8 C7         -4.3108    0.9556    1.2976 C.2       1 <0>         0.1754
      9 O1         -3.2687    1.7975    1.2981 O.3       1 <0>        -0.1872
     10 C8         -5.7633    1.3568    1.3132 C.3       1 <0>        -0.0274
     11 S1         -6.3302    1.5091    3.0296 S.3       1 <0>         0.0531
     12 C9         -8.0223    1.9770    2.8797 C.2       1 <0>        -0.2079
     13 C10        -8.9445    2.2293    3.8504 C.2       1 <0>         0.0730
     14 N2        -10.1733    2.5704    3.5096 N.2       1 <0>        -0.4781
     15 C11       -10.5307    2.6731    2.2430 C.2       1 <0>         0.3098
     16 S2         -9.0031    2.2599    1.4114 S.3       1 <0>         0.0397
     17 N3        -11.7659    3.0158    1.7000 N.am      1 <0>        -0.6146
     18 C12       -12.8034    3.3002    2.5119 C.2       1 <0>         0.5107
     19 O2        -12.6609    3.2576    3.7157 O.2       1 <0>        -0.4551
     20 C13       -14.1405    3.6713    1.9241 C.3       1 <0>        -0.1149
     21 C14       -13.9915    4.9332    1.0698 C.3       1 <0>        -0.1461
     22 C15       -15.3628    5.3397    0.5255 C.3       1 <0>         0.0009
     23 C16       -16.4761    4.3789    2.4515 C.3       1 <0>        -0.0009
     24 C17       -15.1380    3.9438    3.0534 C.3       1 <0>        -0.1323
     25 H1          0.0021   -0.0041    0.0020 H         1 <0>         0.0648
     26 H2          1.0099    1.4631    0.0003 H         1 <0>         0.0750
     27 H3         -0.5399    1.4469   -0.8751 H         1 <0>         0.0608
     28 H4          1.0337    1.4497    2.4986 H         1 <0>         0.0751
     29 H5         -0.4990    1.4239    3.4031 H         1 <0>         0.0616
     30 H6          0.0259   -0.0175    2.5003 H         1 <0>         0.0649
     31 H7         -1.2768    3.4701    0.3922 H         1 <0>         0.0605
     32 H8         -1.2598    3.4606    2.1720 H         1 <0>         0.0616
     33 H9          0.2730    3.4864    1.2675 H         1 <0>         0.0706
     34 H10        -1.8578   -1.0876    1.2633 H         1 <0>         0.1891
     35 H11        -5.8813    2.3140    0.8053 H         1 <0>         0.1204
     36 H12        -6.3553    0.5983    0.8010 H         1 <0>         0.1329
     37 H13        -8.6718    2.1504    4.8925 H         1 <0>         0.1794
     38 H14       -11.8799    3.0499    0.7373 H         1 <0>         0.4267
     39 H15       -14.5061    2.8521    1.3049 H         1 <0>         0.1234
     40 H16       -13.5885    5.7409    1.6809 H         1 <0>         0.0995
     41 H17       -13.3151    4.7324    0.2390 H         1 <0>         0.1172
     42 H18       -15.7590    4.5372   -0.0967 H         1 <0>         0.1349
     43 H19       -15.2623    6.2461   -0.0715 H         1 <0>         0.1387
     44 H20       -16.8671    3.5809    1.8204 H         1 <0>         0.1334
     45 H21       -17.1842    4.5877    3.2534 H         1 <0>         0.1392
     46 H22       -15.2808    3.0361    3.6398 H         1 <0>         0.1229
     47 H23       -14.7528    4.7354    3.6961 H         1 <0>         0.1008
     48 N4        -16.2857    5.6006    1.6466 N.4       1 <0>        -0.5187
     49 H24       -17.1928    5.9050    1.2741 H         1 <0>         0.4395
     50 H25       -15.8944    6.3401    2.2417 H         1 <0>         0.4347
@<TRIPOS>BOND
     1    1    2 1
     2    1   25 1
     3    1   26 1
     4    1   27 1
     5    2    3 1
     6    2    4 1
     7    2    5 1
     8    3   28 1
     9    3   29 1
    10    3   30 1
    11    4   31 1
    12    4   32 1
    13    4   33 1
    14    5    9 1
    15    5    6 2
    16    6    7 1
    17    6   34 1
    18    7    8 2
    19    8    9 1
    20    8   10 1
    21   10   11 1
    22   10   35 1
    23   10   36 1
    24   11   12 1
    25   12   16 1
    26   12   13 2
    27   13   14 1
    28   13   37 1
    29   14   15 2
    30   15   16 1
    31   15   17 1
    32   17   18 am
    33   17   38 1
    34   18   19 2
    35   18   20 1
    36   20   24 1
    37   20   21 1
    38   20   39 1
    39   21   22 1
    40   21   40 1
    41   21   41 1
    42   22   42 1
    43   22   43 1
    44   22   48 1
    45   23   24 1
    46   23   44 1
    47   23   45 1
    48   23   48 1
    49   24   46 1
    50   24   47 1
    51   48   49 1
    52   48   50 1
@<TRIPOS>MOLECULE
ZINC02047389
   35    37     0     0     0
SMALL
USER_CHARGES
4-(2-amino-4-methyl-thiazol-5-yl)-N-(3-nitrophenyl)-pyrimidin-2-amine
@<TRIPOS>ATOM
      1 C1         -0.3352    9.7451    0.3855 C.3       1 <0>        -0.0905
      2 C2          1.0683   10.2863    0.4765 C.2       1 <0>         0.1892
      3 C3          2.1516    9.4456    0.4437 C.2       1 <0>        -0.2443
      4 S1          3.4879   10.6229    0.5913 S.3       1 <0>         0.0803
      5 C4          2.5163   12.0599    0.6693 C.2       1 <0>         0.3677
      6 N1          1.2883   11.5754    0.5891 N.2       1 <0>        -0.5897
      7 N2          2.9227   13.3752    0.7905 N.pl3     1 <0>        -0.7863
      8 C5          2.1999    7.9776    0.3258 C.ar      1 <0>         0.3332
      9 C6          3.4297    7.3038    0.3117 C.ar      1 <0>        -0.2707
     10 C7          3.4239    5.9278    0.2000 C.ar      1 <0>         0.2012
     11 N3          2.2663    5.2881    0.1154 N.ar      1 <0>        -0.5701
     12 C8          1.1176    5.9489    0.1256 C.ar      1 <0>         0.5646
     13 N4          1.0742    7.2675    0.2311 N.ar      1 <0>        -0.5547
     14 N5         -0.0691    5.2405    0.0290 N.pl3     1 <0>        -0.6363
     15 C9         -0.0510    3.8425    0.0333 C.ar      1 <0>         0.1760
     16 C10        -0.9835    3.1319   -0.7120 C.ar      1 <0>        -0.1004
     17 C11        -0.9631    1.7513   -0.7052 C.ar      1 <0>        -0.0922
     18 C12        -0.0158    1.0757    0.0425 C.ar      1 <0>        -0.0777
     19 C13         0.9104    1.7799    0.7896 C.ar      1 <0>        -0.0222
     20 C14         0.8989    3.1611    0.7830 C.ar      1 <0>        -0.0570
     21 N6          1.9186    1.0527    1.5932 N.pl3     1 <0>         0.0280
     22 O1          1.9320   -0.1652    1.5961 O.2       1 <0>        -0.1580
     23 O2          2.7348    1.6723    2.2515 O.3       1 <0>        -0.1552
     24 H1         -0.7077    9.5307    1.3872 H         1 <0>         0.0791
     25 H2         -0.9794   10.4840   -0.0912 H         1 <0>         0.0712
     26 H3         -0.3338    8.8291   -0.2054 H         1 <0>         0.0997
     27 H4          2.2629   14.0853    0.8267 H         1 <0>         0.4203
     28 H5          3.8677   13.5883    0.8394 H         1 <0>         0.4243
     29 H6          4.3593    7.8485    0.3862 H         1 <0>         0.1461
     30 H7          4.3533    5.3778    0.1861 H         1 <0>         0.1761
     31 H8         -0.9125    5.7144   -0.0416 H         1 <0>         0.4300
     32 H9         -1.7237    3.6588   -1.2958 H         1 <0>         0.1460
     33 H10        -1.6880    1.1983   -1.2841 H         1 <0>         0.1526
     34 H11        -0.0023   -0.0042    0.0464 H         1 <0>         0.1544
     35 H12         1.6253    3.7105    1.3635 H         1 <0>         0.1650
@<TRIPOS>BOND
     1    1    2 1
     2    1   24 1
     3    1   25 1
     4    1   26 1
     5    2    6 1
     6    2    3 2
     7    3    4 1
     8    3    8 1
     9    4    5 1
    10    5    6 2
    11    5    7 1
    12    7   27 1
    13    7   28 1
    14    8   13 ar
    15    8    9 ar
    16    9   10 ar
    17    9   29 1
    18   10   11 ar
    19   10   30 1
    20   11   12 ar
    21   12   13 ar
    22   12   14 1
    23   14   15 1
    24   14   31 1
    25   15   20 ar
    26   15   16 ar
    27   16   17 ar
    28   16   32 1
    29   17   18 ar
    30   17   33 1
    31   18   19 ar
    32   18   34 1
    33   19   20 ar
    34   19   21 1
    35   20   35 1
    36   21   22 2
    37   21   23 1
@<TRIPOS>MOLECULE
ZINC18183490
   45    52     0     0     0
SMALL
USER_CHARGES

@<TRIPOS>ATOM
      1 C1         -0.0167    1.3803    0.0096 C.ar      1 <0>        -0.1530
      2 C2          1.1495    2.1255    0.0025 C.ar      1 <0>        -0.0724
      3 C3          2.4024    1.5359   -0.0204 C.ar      1 <0>        -0.1468
      4 C4          2.4503    0.1427   -0.0320 C.ar      1 <0>         0.1515
      5 C5          1.2560   -0.6177   -0.0125 C.ar      1 <0>        -0.1069
      6 C6          0.0021   -0.0041    0.0020 C.ar      1 <0>        -0.0384
      7 C7          1.6509   -2.0237    0.0086 C.ar      1 <0>        -0.0076
      8 C8          0.9722   -3.2504    0.0426 C.ar      1 <0>        -0.1079
      9 C9          1.6918   -4.4571    0.1251 C.ar      1 <0>        -0.1087
     10 C10         3.0932   -4.4422    0.1719 C.ar      1 <0>        -0.0070
     11 C11         4.1381   -5.4475    0.3487 C.ar      1 <0>        -0.1067
     12 C12         4.0766   -6.8311    0.5249 C.ar      1 <0>        -0.0381
     13 C13         5.2816   -7.4969    0.6727 C.ar      1 <0>        -0.1529
     14 C14         6.4926   -6.8273    0.6485 C.ar      1 <0>        -0.0722
     15 C15         6.5748   -5.4564    0.4717 C.ar      1 <0>        -0.1470
     16 C16         5.3763   -4.7616    0.3148 C.ar      1 <0>         0.1518
     17 N1          5.1372   -3.4269    0.1009 N.pl3     1 <0>        -0.5088
     18 C17         3.7681   -3.2179    0.0614 C.ar      1 <0>         0.1402
     19 C18         3.0531   -2.0186   -0.0123 C.ar      1 <0>         0.1411
     20 N2          3.5203   -0.7161   -0.0799 N.pl3     1 <0>        -0.5095
     21 C19         4.9330   -0.3594   -0.2487 C.3       1 <0>         0.3009
     22 H1          5.0233    0.6109   -0.7369 H         1 <0>         0.1460
     23 C20         5.6121   -0.3298    1.1353 C.3       1 <0>        -0.1631
     24 C21         6.3995   -1.6530    1.2253 C.3       1 <0>        -0.1633
     25 C22         6.1330   -2.3718   -0.1119 C.3       1 <0>         0.3009
     26 H2          7.0567   -2.7963   -0.5052 H         1 <0>         0.1469
     27 O1          5.6099   -1.3632   -1.0073 O.3       1 <0>        -0.3460
     28 C23         0.6810   -5.5298    0.1434 C.2       1 <0>         0.5845
     29 O2          0.9125   -6.7210    0.2072 O.2       1 <0>        -0.4593
     30 N3         -0.5403   -4.9703    0.0777 N.am      1 <0>        -0.6809
     31 C24        -0.4518   -3.6300    0.0158 C.2       1 <0>         0.5844
     32 O3         -1.3895   -2.8600   -0.0503 O.2       1 <0>        -0.4594
     33 H3         -0.9673    1.8927    0.0260 H         1 <0>         0.1280
     34 H4          1.0802    3.2032    0.0148 H         1 <0>         0.1287
     35 H5          3.3041    2.1302   -0.0292 H         1 <0>         0.1326
     36 H6         -0.9103   -0.5820    0.0074 H         1 <0>         0.1488
     37 H7          3.1336   -7.3571    0.5453 H         1 <0>         0.1487
     38 H8          5.2763   -8.5680    0.8109 H         1 <0>         0.1281
     39 H9          7.4042   -7.3931    0.7721 H         1 <0>         0.1288
     40 H10         7.5270   -4.9470    0.4554 H         1 <0>         0.1327
     41 H11         6.2910    0.5200    1.2056 H         1 <0>         0.1044
     42 H12         4.8615   -0.2817    1.9242 H         1 <0>         0.0950
     43 H13         7.4646   -1.4524    1.3414 H         1 <0>         0.1048
     44 H14         6.0342   -2.2548    2.0575 H         1 <0>         0.0953
     45 H15        -1.3733   -5.4672    0.0749 H         1 <0>         0.4317
@<TRIPOS>BOND
     1    1    6 ar
     2    1    2 ar
     3    1   33 1
     4    2    3 ar
     5    2   34 1
     6    3    4 ar
     7    3   35 1
     8    4   20 1
     9    4    5 ar
    10    5    6 ar
    11    5    7 1
    12    6   36 1
    13    7   19 ar
    14    7    8 ar
    15    8   31 1
    16    8    9 ar
    17    9   10 ar
    18    9   28 1
    19   10   18 ar
    20   10   11 1
    21   11   16 ar
    22   11   12 ar
    23   12   13 ar
    24   12   37 1
    25   13   14 ar
    26   13   38 1
    27   14   15 ar
    28   14   39 1
    29   15   16 ar
    30   15   40 1
    31   16   17 1
    32   17   25 1
    33   17   18 1
    34   18   19 ar
    35   19   20 1
    36   20   21 1
    37   21   22 1
    38   21   27 1
    39   21   23 1
    40   23   24 1
    41   23   41 1
    42   23   42 1
    43   24   25 1
    44   24   43 1
    45   24   44 1
    46   25   26 1
    47   25   27 1
    48   28   29 2
    49   28   30 am
    50   30   31 am
    51   30   45 1
    52   31   32 2
@<TRIPOS>MOLECULE
ZINC03924157
   42    44     0     0     0
SMALL
USER_CHARGES

@<TRIPOS>ATOM
      1 C1          0.0101    1.6421    0.3204 C.3       1 <0>        -0.1518
      2 C2          0.1186    0.1164    0.3567 C.3       1 <0>        -0.1211
      3 C3         -1.2696   -0.4983    0.1673 C.3       1 <0>        -0.1176
      4 C4         -1.1611   -2.0240    0.2036 C.3       1 <0>         0.0797
      5 O1         -2.4577   -2.5981    0.0267 O.3       1 <0>        -0.3182
      6 C5         -2.5376   -3.9490    0.0337 C.ar      1 <0>         0.3009
      7 C6         -2.4048   -4.6898   -1.1534 C.ar      1 <0>        -0.2628
      8 C7         -2.1841   -4.3376   -2.5058 C.2       1 <0>         0.1084
      9 N1         -2.1427   -5.4289   -3.2138 N.2       1 <0>        -0.2329
     10 N2         -2.3302   -6.5390   -2.3823 N.pl3     1 <0>        -0.4786
     11 H1         -2.3414   -7.4662   -2.6668 H         1 <0>         0.4513
     12 C8         -2.4941   -6.0931   -1.1008 C.ar      1 <0>         0.3506
     13 N3         -2.7018   -6.7129    0.0590 N.ar      1 <0>        -0.5083
     14 C9         -2.8306   -6.0553    1.1864 C.ar      1 <0>         0.2389
     15 C10        -2.7500   -4.6562    1.2280 C.ar      1 <0>        -0.2892
     16 C11        -2.8911   -3.9380    2.5059 C.2       1 <0>         0.4589
     17 O2         -2.8480   -2.7224    2.5285 O.2       1 <0>        -0.4082
     18 C12        -3.0849   -4.6927    3.7588 C.ar      1 <0>        -0.2304
     19 C13        -1.9802   -5.1967    4.4549 C.ar      1 <0>         0.1655
     20 C14        -2.1710   -5.9025    5.6276 C.ar      1 <0>        -0.1646
     21 C15        -3.4490   -6.1113    6.1138 C.ar      1 <0>        -0.0074
     22 C16        -4.5465   -5.6172    5.4322 C.ar      1 <0>        -0.1646
     23 C17        -4.3741   -4.9038    4.2612 C.ar      1 <0>         0.1694
     24 F1         -5.4470   -4.4168    3.6002 F         1 <0>        -0.1191
     25 C18        -3.6469   -6.8822    7.3935 C.3       1 <0>        -0.1226
     26 F2         -0.7311   -4.9942    3.9816 F         1 <0>        -0.1212
     27 H2          0.9991    2.0800    0.4554 H         1 <0>         0.0572
     28 H3         -0.3975    1.9546   -0.6409 H         1 <0>         0.0562
     29 H4         -0.6486    1.9787    1.1211 H         1 <0>         0.0567
     30 H5          0.7773   -0.2201   -0.4439 H         1 <0>         0.0641
     31 H6          0.5263   -0.1961    1.3181 H         1 <0>         0.0646
     32 H7         -1.9283   -0.1617    0.9679 H         1 <0>         0.0796
     33 H8         -1.6773   -0.1858   -0.7941 H         1 <0>         0.0746
     34 H9         -0.5024   -2.3605   -0.5970 H         1 <0>         0.0581
     35 H10        -0.7534   -2.3365    1.1650 H         1 <0>         0.0597
     36 H11        -2.0700   -3.3333   -2.8863 H         1 <0>         0.2037
     37 H12        -2.9979   -6.6030    2.1020 H         1 <0>         0.1745
     38 H13        -1.3198   -6.2925    6.1659 H         1 <0>         0.1517
     39 H14        -5.5409   -5.7852    5.8188 H         1 <0>         0.1519
     40 H15        -3.6335   -6.1936    8.2383 H         1 <0>         0.0851
     41 H16        -4.6059   -7.3994    7.3615 H         1 <0>         0.0787
     42 H17        -2.8445   -7.6113    7.5063 H         1 <0>         0.0787
@<TRIPOS>BOND
     1    1    2 1
     2    1   27 1
     3    1   28 1
     4    1   29 1
     5    2    3 1
     6    2   30 1
     7    2   31 1
     8    3    4 1
     9    3   32 1
    10    3   33 1
    11    4    5 1
    12    4   34 1
    13    4   35 1
    14    5    6 1
    15    6   15 ar
    16    6    7 ar
    17    7   12 ar
    18    7    8 1
    19    8    9 2
    20    8   36 1
    21    9   10 1
    22   10   11 1
    23   10   12 1
    24   12   13 ar
    25   13   14 ar
    26   14   15 ar
    27   14   37 1
    28   15   16 1
    29   16   17 2
    30   16   18 1
    31   18   23 ar
    32   18   19 ar
    33   19   20 ar
    34   19   26 1
    35   20   21 ar
    36   20   38 1
    37   21   22 ar
    38   21   25 1
    39   22   23 ar
    40   22   39 1
    41   23   24 1
    42   25   40 1
    43   25   41 1
    44   25   42 1
@<TRIPOS>MOLECULE
ZINC03924157
   43    45     0     0     0
SMALL
USER_CHARGES
(4-butoxy-1H-pyrazolo[4,3-e]pyridin-5-yl)-(2,6-difluoro-4-methyl-phenyl)methanone
@<TRIPOS>ATOM
      1 C1          0.1011    1.4806    2.6683 C.3       1 <0>        -0.1549
      2 C2         -0.6446    2.0412    1.4556 C.3       1 <0>        -0.1207
      3 C3         -0.1038    1.3925    0.1798 C.3       1 <0>        -0.1215
      4 C4         -0.8495    1.9532   -1.0328 C.3       1 <0>         0.0785
      5 O1         -0.3443    1.3474   -2.2245 O.3       1 <0>        -0.3140
      6 C5         -0.9012    1.7362   -3.3949 C.ar      1 <0>         0.4111
      7 C6         -2.0154    1.0643   -3.9269 C.ar      1 <0>        -0.2694
      8 C7         -2.7950   -0.0329   -3.4911 C.2       1 <0>         0.2084
      9 N1         -3.7283   -0.2502   -4.3716 N.pl3     1 <0>        -0.3496
     10 N2         -3.6067    0.6639   -5.4245 N.2       1 <0>        -0.2899
     11 H1         -4.4269   -0.9627   -4.3059 H         1 <0>         0.4840
     12 C8         -2.5540    1.4926   -5.1544 C.ar      1 <0>         0.2939
     13 C9         -0.9841    3.1805   -5.3339 C.ar      1 <0>         0.3099
     14 C10        -0.3868    2.8261   -4.1159 C.ar      1 <0>        -0.2802
     15 C11         0.7738    3.5764   -3.6073 C.2       1 <0>         0.4651
     16 O2          1.3236    3.2243   -2.5808 O.2       1 <0>        -0.3775
     17 C12         1.2700    4.7552   -4.3428 C.ar      1 <0>        -0.2569
     18 C13         2.3359    4.6272   -5.2408 C.ar      1 <0>         0.1730
     19 C14         2.7905    5.7357   -5.9298 C.ar      1 <0>        -0.1617
     20 C15         2.2026    6.9710   -5.7256 C.ar      1 <0>         0.0085
     21 C16         1.1524    7.1078   -4.8358 C.ar      1 <0>        -0.1620
     22 C17         0.6813    6.0090   -4.1425 C.ar      1 <0>         0.1663
     23 F1         -0.3449    6.1448   -3.2742 F         1 <0>        -0.1203
     24 C18         2.7091    8.1750   -6.4772 C.3       1 <0>        -0.1304
     25 F2          2.9152    3.4226   -5.4376 F         1 <0>        -0.1166
     26 H2          1.1649    1.6980    2.5730 H         1 <0>         0.0595
     27 H3         -0.2842    1.9427    3.5772 H         1 <0>         0.0624
     28 H4         -0.0462    0.4018    2.7186 H         1 <0>         0.0581
     29 H5         -0.4973    3.1201    1.4053 H         1 <0>         0.0679
     30 H6         -1.7085    1.8239    1.5509 H         1 <0>         0.0661
     31 H7         -0.2512    0.3138    0.2301 H         1 <0>         0.0805
     32 H8          0.9600    1.6100    0.0846 H         1 <0>         0.0867
     33 H9         -1.9133    1.7359   -0.9376 H         1 <0>         0.0715
     34 H10        -0.7021    3.0319   -1.0832 H         1 <0>         0.0743
     35 H11        -2.6394   -0.5972   -2.5835 H         1 <0>         0.2276
     36 H12        -0.5844    4.0107   -5.8971 H         1 <0>         0.2104
     37 H13         3.6099    5.6379   -6.6264 H         1 <0>         0.1579
     38 H14         0.6991    8.0760   -4.6827 H         1 <0>         0.1575
     39 H15         3.4982    8.6577   -5.9008 H         1 <0>         0.0921
     40 H16         3.1051    7.8603   -7.4428 H         1 <0>         0.0832
     41 H17         1.8903    8.8776   -6.6319 H         1 <0>         0.0830
     42 N3         -2.0528    2.5499   -5.8728 N.ar      1 <0>        -0.4936
     43 H18        -2.4634    2.8433   -6.7670 H         1 <0>         0.4819
@<TRIPOS>BOND
     1    1    2 1
     2    1   26 1
     3    1   27 1
     4    1   28 1
     5    2    3 1
     6    2   29 1
     7    2   30 1
     8    3    4 1
     9    3   31 1
    10    3   32 1
    11    4    5 1
    12    4   33 1
    13    4   34 1
    14    5    6 1
    15    6   14 ar
    16    6    7 ar
    17    7   12 ar
    18    7    8 2
    19    8   35 1
    20    8    9 1
    21    9   11 1
    22    9   10 1
    23   10   12 2
    24   12   42 ar
    25   13   14 ar
    26   13   36 1
    27   13   42 ar
    28   14   15 1
    29   15   16 2
    30   15   17 1
    31   17   22 ar
    32   17   18 ar
    33   18   19 ar
    34   18   25 1
    35   19   20 ar
    36   19   37 1
    37   20   21 ar
    38   20   24 1
    39   21   22 ar
    40   21   38 1
    41   22   23 1
    42   24   39 1
    43   24   40 1
    44   24   41 1
    45   42   43 1
@<TRIPOS>MOLECULE
ZINC03924157
   43    45     0     0     0
SMALL
USER_CHARGES
(4-butoxy-1H-pyrazolo[4,3-e]pyridin-5-yl)-(2,6-difluoro-4-methyl-phenyl)methanone
@<TRIPOS>ATOM
      1 C1          0.1188    1.4601    2.6622 C.3       1 <0>        -0.1549
      2 C2         -0.6300    2.0236    1.4528 C.3       1 <0>        -0.1207
      3 C3         -0.0916    1.3790    0.1739 C.3       1 <0>        -0.1217
      4 C4         -0.8405    1.9426   -1.0354 C.3       1 <0>         0.0770
      5 O1         -0.3376    1.3406   -2.2299 O.3       1 <0>        -0.3084
      6 C5         -0.8974    1.7324   -3.3980 C.ar      1 <0>         0.3925
      7 C6         -2.0123    1.0612   -3.9294 C.ar      1 <0>        -0.2235
      8 C7         -2.7901   -0.0379   -3.4950 C.2       1 <0>         0.1449
      9 N1         -3.7283   -0.2502   -4.3716 N.2       1 <0>        -0.1963
     10 N2         -3.6253    0.6831   -5.4094 N.pl3     1 <0>        -0.4569
     11 H1         -4.2245    0.7391   -6.2081 H         1 <0>         0.4740
     12 C8         -2.5659    1.5049   -5.1447 C.ar      1 <0>         0.3467
     13 C9         -0.9921    3.1888   -5.3271 C.ar      1 <0>         0.2797
     14 C10        -0.3797    2.8189   -4.1213 C.ar      1 <0>        -0.2521
     15 C11         0.7906    3.5593   -3.6205 C.2       1 <0>         0.4618
     16 O2          1.3529    3.1940   -2.6055 O.2       1 <0>        -0.3686
     17 C12         1.2813    4.7443   -4.3498 C.ar      1 <0>        -0.2584
     18 C13         2.3344    4.6222   -5.2636 C.ar      1 <0>         0.1737
     19 C14         2.7838    5.7365   -5.9466 C.ar      1 <0>        -0.1616
     20 C15         2.2035    6.9716   -5.7209 C.ar      1 <0>         0.0097
     21 C16         1.1660    7.1025   -4.8154 C.ar      1 <0>        -0.1620
     22 C17         0.7001    5.9980   -4.1278 C.ar      1 <0>         0.1666
     23 F1         -0.3136    6.1280   -3.2442 F         1 <0>        -0.1201
     24 C18         2.7043    8.1819   -6.4662 C.3       1 <0>        -0.1309
     25 F2          2.9063    3.4177   -5.4814 F         1 <0>        -0.1162
     26 H2          1.1823    1.6785    2.5651 H         1 <0>         0.0590
     27 H3         -0.2647    1.9193    3.5733 H         1 <0>         0.0623
     28 H4         -0.0276    0.3810    2.7097 H         1 <0>         0.0588
     29 H5         -0.4836    3.1027    1.4053 H         1 <0>         0.0672
     30 H6         -1.6935    1.8052    1.5499 H         1 <0>         0.0670
     31 H7         -0.2381    0.3000    0.2215 H         1 <0>         0.0824
     32 H8          0.9718    1.5975    0.0769 H         1 <0>         0.0861
     33 H9         -1.9039    1.7242   -0.9384 H         1 <0>         0.0746
     34 H10        -0.6940    3.0216   -1.0830 H         1 <0>         0.0730
     35 H11        -2.6297   -0.6071   -2.5913 H         1 <0>         0.2311
     36 H12        -0.5969    4.0237   -5.8867 H         1 <0>         0.2138
     37 H13         3.5933    5.6433   -6.6553 H         1 <0>         0.1585
     38 H14         0.7185    8.0707   -4.6456 H         1 <0>         0.1579
     39 H15         3.5030    8.6554   -5.8954 H         1 <0>         0.0928
     40 H16         3.0859    7.8764   -7.4405 H         1 <0>         0.0835
     41 H17         1.8862    8.8892   -6.6020 H         1 <0>         0.0832
     42 N3         -2.0681    2.5657   -5.8603 N.ar      1 <0>        -0.5061
     43 H18        -2.4875    2.8681   -6.7473 H         1 <0>         0.4806
@<TRIPOS>BOND
     1    1    2 1
     2    1   26 1
     3    1   27 1
     4    1   28 1
     5    2    3 1
     6    2   29 1
     7    2   30 1
     8    3    4 1
     9    3   31 1
    10    3   32 1
    11    4    5 1
    12    4   33 1
    13    4   34 1
    14    5    6 1
    15    6   14 ar
    16    6    7 ar
    17    7   12 ar
    18    7    8 1
    19    8    9 2
    20    8   35 1
    21    9   10 1
    22   10   11 1
    23   10   12 1
    24   12   42 ar
    25   13   14 ar
    26   13   36 1
    27   13   42 ar
    28   14   15 1
    29   15   16 2
    30   15   17 1
    31   17   22 ar
    32   17   18 ar
    33   18   19 ar
    34   18   25 1
    35   19   20 ar
    36   19   37 1
    37   20   21 ar
    38   20   24 1
    39   21   22 ar
    40   21   38 1
    41   22   23 1
    42   24   39 1
    43   24   40 1
    44   24   41 1
    45   42   43 1
@<TRIPOS>MOLECULE
ZINC13554113
   41    45     0     0     0
SMALL
USER_CHARGES
3-(6-bromo-1H-indol-3-yl)-4-(1-methylindol-3-yl)pyrrole-2,5-dione
@<TRIPOS>ATOM
      1 C1          2.9798    0.0203   -0.0254 C.3       1 <0>         0.0751
      2 N1          2.5076    1.4071   -0.0139 N.pl3     1 <0>        -0.4775
      3 C2          3.3143    2.5034   -0.0154 C.2       1 <0>         0.1037
      4 C3          2.5522    3.6343   -0.0023 C.2       1 <0>        -0.1423
      5 C4          1.1465    3.1926    0.0083 C.ar      1 <0>        -0.0755
      6 C5          1.1819    1.7882    0.0004 C.ar      1 <0>         0.0946
      7 C6         -0.0126    1.0758    0.0080 C.ar      1 <0>        -0.1241
      8 C7         -1.2150    1.7493    0.0173 C.ar      1 <0>        -0.0991
      9 C8         -1.2484    3.1360    0.0309 C.ar      1 <0>        -0.1381
     10 C9         -0.0760    3.8600    0.0236 C.ar      1 <0>        -0.0743
     11 C10         3.0388    5.0242    0.0007 C.2       1 <0>        -0.0208
     12 C11         3.5819    5.7218   -1.0719 C.2       1 <0>        -0.0352
     13 C12         3.9098    7.0687   -0.5605 C.2       1 <0>         0.5568
     14 O1          4.4030    7.9715   -1.2068 O.2       1 <0>        -0.4468
     15 N2          3.5760    7.1272    0.7398 N.am      1 <0>        -0.6907
     16 C13         3.0543    5.9574    1.1462 C.2       1 <0>         0.5553
     17 O2          2.6614    5.7084    2.2685 O.2       1 <0>        -0.4451
     18 C14         3.7868    5.2207   -2.4413 C.2       1 <0>        -0.1365
     19 C15         2.8282    5.0316   -3.3926 C.2       1 <0>         0.1125
     20 N3          3.4010    4.5564   -4.5324 N.pl3     1 <0>        -0.5807
     21 H1          2.9202    4.3453   -5.3480 H         1 <0>         0.4235
     22 C16         4.7630    4.4182   -4.3621 C.ar      1 <0>         0.0972
     23 C17         5.0689    4.8312   -3.0546 C.ar      1 <0>        -0.0631
     24 C18         6.3848    4.7905   -2.5993 C.ar      1 <0>        -0.0659
     25 C19         7.3851    4.3564   -3.4414 C.ar      1 <0>        -0.1121
     26 C20         7.0856    3.9540   -4.7356 C.ar      1 <0>        -0.0712
     27 C21         5.7863    3.9829   -5.1971 C.ar      1 <0>        -0.0921
     28 Br1         8.4719    3.3602   -5.8765 Br        1 <0>        -0.0448
     29 H2          3.0873   -0.3184   -1.0558 H         1 <0>         0.0731
     30 H3          3.9442   -0.0393    0.4792 H         1 <0>         0.0867
     31 H4          2.2593   -0.6131    0.4920 H         1 <0>         0.0843
     32 H5          4.3940    2.4811   -0.0259 H         1 <0>         0.1740
     33 H6          0.0021   -0.0041    0.0020 H         1 <0>         0.1201
     34 H7         -2.1401    1.1920    0.0186 H         1 <0>         0.1268
     35 H8         -2.1978    3.6507    0.0431 H         1 <0>         0.1248
     36 H9         -0.1049    4.9396    0.0301 H         1 <0>         0.1195
     37 H10         3.6947    7.9056    1.3062 H         1 <0>         0.4292
     38 H11         1.7745    5.2293   -3.2618 H         1 <0>         0.1806
     39 H12         6.6205    5.1030   -1.5927 H         1 <0>         0.1299
     40 H13         8.4070    4.3288   -3.0929 H         1 <0>         0.1356
     41 H14         5.5637    3.6673   -6.2057 H         1 <0>         0.1328
@<TRIPOS>BOND
     1    1    2 1
     2    1   29 1
     3    1   30 1
     4    1   31 1
     5    2    6 1
     6    2    3 1
     7    3    4 2
     8    3   32 1
     9    4    5 1
    10    4   11 1
    11    5   10 ar
    12    5    6 ar
    13    6    7 ar
    14    7    8 ar
    15    7   33 1
    16    8    9 ar
    17    8   34 1
    18    9   10 ar
    19    9   35 1
    20   10   36 1
    21   11   16 1
    22   11   12 2
    23   12   13 1
    24   12   18 1
    25   13   14 2
    26   13   15 am
    27   15   16 am
    28   15   37 1
    29   16   17 2
    30   18   23 1
    31   18   19 2
    32   19   20 1
    33   19   38 1
    34   20   21 1
    35   20   22 1
    36   22   27 ar
    37   22   23 ar
    38   23   24 ar
    39   24   25 ar
    40   24   39 1
    41   25   26 ar
    42   25   40 1
    43   26   27 ar
    44   26   28 1
    45   27   41 1
@<TRIPOS>MOLECULE
ZINC21288966
   49    52     0     0     0
SMALL
USER_CHARGES
2-(2-chlorophenyl)-5,7-dihydroxy-8-[(3S,4R)-3-hydroxy-1-methyl-4-piperidyl]chromen-4-one
@<TRIPOS>ATOM
      1 C1          6.0895   -0.0238    5.9621 C.3       1 <0>        -0.0460
      2 N1          6.1756    1.0472    4.9603 N.4       1 <0>        -0.3934
      3 C2          5.9739    0.5180    3.6055 C.3       1 <0>        -0.0028
      4 C3          6.2126    1.6289    2.5802 C.3       1 <0>        -0.1464
      5 C4          5.2418    2.7821    2.8491 C.3       1 <0>        -0.0180
      6 H1          4.2050    2.4431    2.7074 H         1 <0>         0.1039
      7 C5          5.4391    3.2830    4.2825 C.3       1 <0>         0.1015
      8 H2          4.7709    4.1271    4.5084 H         1 <0>         0.0941
      9 C6          5.2218    2.1236    5.2574 C.3       1 <0>        -0.0361
     10 O1          6.7669    3.7898    4.4323 O.3       1 <0>        -0.5639
     11 C7          5.5132    3.9050    1.8814 C.ar      1 <0>        -0.2158
     12 C8          6.8017    4.3949    1.7322 C.ar      1 <0>         0.2946
     13 C9          7.0678    5.4304    0.8434 C.ar      1 <0>        -0.3049
     14 C10         6.0448    5.9841    0.0956 C.ar      1 <0>         0.3111
     15 C11         4.7411    5.4942    0.2412 C.ar      1 <0>        -0.3649
     16 C12         4.4748    4.4470    1.1407 C.ar      1 <0>         0.2362
     17 O2          3.2147    3.9814    1.2730 O.3       1 <0>        -0.2171
     18 C13         2.1871    4.4838    0.5705 C.2       1 <0>         0.1982
     19 C14         2.3394    5.4926   -0.3277 C.2       1 <0>        -0.2780
     20 C15         3.6225    6.0546   -0.5353 C.2       1 <0>         0.4382
     21 O3          3.7953    6.9641   -1.3304 O.2       1 <0>        -0.4786
     22 C16         0.8407    3.9147    0.7769 C.ar      1 <0>        -0.0680
     23 C17         0.6478    2.5322    0.7263 C.ar      1 <0>        -0.0708
     24 C18        -0.6124    2.0073    0.9205 C.ar      1 <0>        -0.1159
     25 C19        -1.6867    2.8467    1.1599 C.ar      1 <0>        -0.0780
     26 C20        -1.5036    4.2164    1.2169 C.ar      1 <0>        -0.1066
     27 C21        -0.2472    4.7566    1.0243 C.ar      1 <0>        -0.0057
     28 Cl1        -0.0199    6.4765    1.0889 Cl        1 <0>        -0.0424
     29 O4          6.3024    6.9947   -0.7728 O.3       1 <0>        -0.4999
     30 O5          7.8133    3.8585    2.4614 O.3       1 <0>        -0.4665
     31 H3          6.8128   -0.8151    5.7159 H         1 <0>         0.1242
     32 H4          5.0728   -0.4438    5.9634 H         1 <0>         0.1169
     33 H5          6.3184    0.3856    6.9571 H         1 <0>         0.1225
     34 H6          6.6809   -0.3050    3.4243 H         1 <0>         0.1308
     35 H7          4.9438    0.1448    3.5072 H         1 <0>         0.1211
     36 H8          7.2477    1.9910    2.6662 H         1 <0>         0.1216
     37 H9          6.0450    1.2349    1.5669 H         1 <0>         0.1057
     38 H10         4.1951    1.7434    5.1512 H         1 <0>         0.1298
     39 H11         5.3771    2.4772    6.2874 H         1 <0>         0.1312
     40 H12         7.0946    4.1958    5.4007 H         1 <0>         0.4106
     41 H13         8.0758    5.8030    0.7365 H         1 <0>         0.1471
     42 H14         1.4871    5.8659   -0.8759 H         1 <0>         0.1670
     43 H15         1.4839    1.8757    0.5352 H         1 <0>         0.1384
     44 H16        -0.7625    0.9385    0.8812 H         1 <0>         0.1407
     45 H17        -2.6721    2.4298    1.3071 H         1 <0>         0.1438
     46 H18        -2.3456    4.8651    1.4082 H         1 <0>         0.1476
     47 H19         5.4855    7.4321   -1.3656 H         1 <0>         0.4556
     48 H20         8.8375    4.2431    2.3473 H         1 <0>         0.4397
     49 H21         7.1882    1.4744    5.0059 H         1 <0>         0.4481
@<TRIPOS>BOND
     1    1    2 1
     2    1   31 1
     3    1   32 1
     4    1   33 1
     5    2    9 1
     6    2    3 1
     7    2   49 1
     8    3    4 1
     9    3   34 1
    10    3   35 1
    11    4    5 1
    12    4   36 1
    13    4   37 1
    14    5    6 1
    15    5    7 1
    16    5   11 1
    17    7    8 1
    18    7    9 1
    19    7   10 1
    20    9   38 1
    21    9   39 1
    22   10   40 1
    23   11   16 ar
    24   11   12 ar
    25   12   13 ar
    26   12   30 1
    27   13   14 ar
    28   13   41 1
    29   14   15 ar
    30   14   29 1
    31   15   20 1
    32   15   16 ar
    33   16   17 1
    34   17   18 1
    35   18   19 2
    36   18   22 1
    37   19   20 1
    38   19   42 1
    39   20   21 2
    40   22   27 ar
    41   22   23 ar
    42   23   24 ar
    43   23   43 1
    44   24   25 ar
    45   24   44 1
    46   25   26 ar
    47   25   45 1
    48   26   27 ar
    49   26   46 1
    50   27   28 1
    51   29   47 1
    52   30   48 1
@<TRIPOS>MOLECULE
ZINC43203317
   59    64     0     0     0
SMALL
USER_CHARGES

@<TRIPOS>ATOM
      1 C1          1.7535   -2.6140    1.5911 C.3       1 <0>        -0.1576
      2 C2          1.9372   -1.1974    1.0429 C.3       1 <0>         0.1323
      3 C3          2.2996   -1.2576   -0.4560 C.3       1 <0>        -0.1134
      4 C4          1.5200   -0.0551   -1.0506 C.3       1 <0>        -0.1390
      5 C5          0.2292   -0.0672   -0.1942 C.3       1 <0>         0.1045
      6 N1          0.6767   -0.4495    1.1575 N.pl3     1 <0>        -0.5678
      7 C6          0.0168   -0.1528    2.3424 C.cat     1 <0>         0.7218
      8 N2         -1.1775    0.4452    2.2857 N.2       1 <0>        -0.5913
      9 C7         -1.8506    0.7504    3.3820 C.2       1 <0>         0.5986
     10 C8         -1.2954    0.4378    4.6446 C.2       1 <0>        -0.1075
     11 C9         -1.7243    0.6153    5.9471 C.2       1 <0>        -0.0396
     12 C10        -0.7288    0.0950    6.7743 C.2       1 <0>        -0.1604
     13 C11         0.2678   -0.3803    5.9800 C.2       1 <0>         0.0915
     14 N3         -0.0622   -0.1793    4.6913 N.pl3     1 <0>        -0.2309
     15 N4          0.5826   -0.4728    3.4813 N.pl3     1 <0>        -0.4793
     16 N5         -3.0823    1.3684    3.2951 N.pl3     1 <0>        -0.5428
     17 C12        -3.6742    1.5771    2.0432 C.2       1 <0>         0.2706
     18 C13        -3.0895    1.2980    0.7973 C.2       1 <0>        -0.2564
     19 C14        -3.9781    1.6382   -0.1637 C.2       1 <0>         0.1447
     20 N6         -5.0843    2.1149    0.4453 N.pl3     1 <0>        -0.4469
     21 H1         -5.8860    2.4338    0.0021 H         1 <0>         0.4486
     22 N7         -4.8747    2.0624    1.8293 N.2       1 <0>        -0.2849
     23 C15        -3.7699    1.5087   -1.6506 C.3       1 <0>        -0.1084
     24 C16        -4.4171    2.5645   -2.5491 C.3       1 <0>        -0.1663
     25 C17        -4.9858    1.1448   -2.5051 C.3       1 <0>        -0.1664
     26 C18         3.0250   -0.4890    1.8083 C.2       1 <0>         0.4854
     27 O1          3.8838   -1.1306    2.3757 O.2       1 <0>        -0.4818
     28 N8          3.0435    0.8576    1.8624 N.am      1 <0>        -0.6582
     29 C19         4.1149    1.5191    2.4758 C.ar      1 <0>         0.0600
     30 C20         5.4063    1.0037    2.3886 C.ar      1 <0>        -0.0399
     31 C21         6.4332    1.6923    3.0108 C.ar      1 <0>        -0.1677
     32 C22         6.1456    2.8626    3.6948 C.ar      1 <0>         0.3115
     33 N9          4.9102    3.3236    3.7580 N.ar      1 <0>        -0.4898
     34 C23         3.9057    2.6998    3.1737 C.ar      1 <0>         0.1268
     35 F1          7.1422    3.5404    4.3052 F         1 <0>        -0.1003
     36 H2          0.9186   -3.0952    1.0817 H         1 <0>         0.0948
     37 H3          2.6632   -3.1900    1.4216 H         1 <0>         0.1103
     38 H4          1.5478   -2.5659    2.6604 H         1 <0>         0.0538
     39 H5          3.3726   -1.1301   -0.5988 H         1 <0>         0.1067
     40 H6          1.9593   -2.1942   -0.8977 H         1 <0>         0.1138
     41 H7          2.0716    0.8748   -0.9127 H         1 <0>         0.0884
     42 H8          1.2917   -0.2196   -2.1036 H         1 <0>         0.1180
     43 H9         -0.2243    0.9238   -0.1775 H         1 <0>         0.1095
     44 H10        -0.4765   -0.8018   -0.5820 H         1 <0>         0.1052
     45 H11        -2.6516    1.0698    6.2632 H         1 <0>         0.1822
     46 H12        -0.7461    0.0739    7.8539 H         1 <0>         0.1890
     47 H13         1.1787   -0.8443    6.3282 H         1 <0>         0.2011
     48 H14        -3.5375    1.6579    4.1012 H         1 <0>         0.4456
     49 H15        -2.1046    0.8854    0.6353 H         1 <0>         0.1821
     50 H16        -2.8023    1.1113   -1.9570 H         1 <0>         0.1357
     51 H17        -4.9935    3.3528   -2.0648 H         1 <0>         0.0972
     52 H18        -3.8753    2.8620   -3.4469 H         1 <0>         0.1127
     53 H19        -4.8180    0.5082   -3.3738 H         1 <0>         0.1125
     54 H20        -5.9362    0.9990   -1.9917 H         1 <0>         0.0972
     55 H21         2.3148    1.3685    1.4766 H         1 <0>         0.4141
     56 H22         5.6014    0.0888    1.8488 H         1 <0>         0.1571
     57 H23         7.4466    1.3217    2.9641 H         1 <0>         0.1613
     58 H24         2.9090    3.1098    3.2433 H         1 <0>         0.1645
     59 H25         1.4487   -0.9095    3.4868 H         1 <0>         0.4476
@<TRIPOS>BOND
     1    1    2 1
     2    1   36 1
     3    1   37 1
     4    1   38 1
     5    2    6 1
     6    2    3 1
     7    2   26 1
     8    3    4 1
     9    3   39 1
    10    3   40 1
    11    4    5 1
    12    4   41 1
    13    4   42 1
    14    5    6 1
    15    5   43 1
    16    5   44 1
    17    6    7 1
    18    7   15 2
    19    7    8 1
    20    8    9 2
    21    9   10 1
    22    9   16 1
    23   10   14 1
    24   10   11 2
    25   11   12 1
    26   11   45 1
    27   12   13 2
    28   12   46 1
    29   13   14 1
    30   13   47 1
    31   14   15 1
    32   15   59 1
    33   16   17 1
    34   16   48 1
    35   17   22 2
    36   17   18 1
    37   18   19 2
    38   18   49 1
    39   19   20 1
    40   19   23 1
    41   20   21 1
    42   20   22 1
    43   23   25 1
    44   23   24 1
    45   23   50 1
    46   24   25 1
    47   24   51 1
    48   24   52 1
    49   25   53 1
    50   25   54 1
    51   26   27 2
    52   26   28 am
    53   28   29 1
    54   28   55 1
    55   29   34 ar
    56   29   30 ar
    57   30   31 ar
    58   30   56 1
    59   31   32 ar
    60   31   57 1
    61   32   33 ar
    62   32   35 1
    63   33   34 ar
    64   34   58 1
@<TRIPOS>MOLECULE
ZINC43203317
   59    64     0     0     0
SMALL
USER_CHARGES

@<TRIPOS>ATOM
      1 C1         -0.2400   -0.0323   -0.4481 C.3       1 <0>        -0.1608
      2 C2         -0.9173   -1.3602   -0.1032 C.3       1 <0>         0.1638
      3 C3         -0.9523   -2.2705   -1.3489 C.3       1 <0>        -0.1176
      4 C4         -0.6761   -3.6784   -0.7582 C.3       1 <0>        -0.1322
      5 C5          0.3239   -3.3483    0.3779 C.3       1 <0>         0.0799
      6 N1         -0.1425   -2.0633    0.9296 N.pl3     1 <0>        -0.5749
      7 C6          0.1088   -1.5945    2.2120 C.cat     1 <0>         0.7200
      8 N2         -0.6553   -0.6140    2.7038 N.2       1 <0>        -0.5959
      9 C7         -0.4614   -0.1295    3.9186 C.2       1 <0>         0.5946
     10 C8          0.5781   -0.6599    4.7174 C.2       1 <0>        -0.1068
     11 C9          1.0359   -0.3876    5.9934 C.2       1 <0>        -0.0422
     12 C10         2.1046   -1.2520    6.2318 C.2       1 <0>        -0.1613
     13 C11         2.2764   -2.0194    5.1220 C.2       1 <0>         0.0935
     14 N3          1.3606   -1.6716    4.1999 N.pl3     1 <0>        -0.2317
     15 N4          1.0846   -2.1313    2.9043 N.pl3     1 <0>        -0.4707
     16 N5         -1.2652    0.8841    4.4022 N.pl3     1 <0>        -0.5597
     17 C12        -2.2770    1.4121    3.6031 C.2       1 <0>         0.2587
     18 C13        -2.2998    1.4336    2.2418 C.2       1 <0>        -0.2133
     19 C14        -3.4890    2.0493    1.8429 C.2       1 <0>         0.1357
     20 N6         -4.1598    2.3873    2.9141 N.2       1 <0>        -0.2440
     21 H1         -3.6859    2.1176    4.9651 H         1 <0>         0.4424
     22 N7         -3.4239    1.9942    4.0393 N.pl3     1 <0>        -0.4751
     23 C15        -3.9249    2.2847    0.4196 C.3       1 <0>        -0.0827
     24 C16        -2.9477    1.8967   -0.6919 C.3       1 <0>        -0.1184
     25 C17        -3.1956    3.3721   -0.3719 C.3       1 <0>        -0.1818
     26 C18        -2.3186   -1.1075    0.3904 C.2       1 <0>         0.5120
     27 O1         -3.0087   -0.2675   -0.1473 O.2       1 <0>        -0.4663
     28 N8         -2.8049   -1.8150    1.4293 N.am      1 <0>        -0.6484
     29 C19        -4.1419   -1.6608    1.8170 C.ar      1 <0>         0.0931
     30 C20        -5.1185   -1.3455    0.8748 C.ar      1 <0>        -0.0458
     31 C21        -6.4264   -1.2030    1.3049 C.ar      1 <0>        -0.1648
     32 C22        -6.7194   -1.3772    2.6481 C.ar      1 <0>         0.2983
     33 N9         -5.7696   -1.6756    3.5150 N.ar      1 <0>        -0.4903
     34 C23        -4.5129   -1.8255    3.1437 C.ar      1 <0>         0.1109
     35 F1         -7.9934   -1.2394    3.0760 F         1 <0>        -0.1066
     36 H2          0.8421   -0.1627   -0.4371 H         1 <0>         0.0770
     37 H3         -0.5571    0.2906   -1.4397 H         1 <0>         0.1035
     38 H4         -0.5225    0.7213    0.2870 H         1 <0>         0.0781
     39 H5         -1.9329   -2.2370   -1.8236 H         1 <0>         0.1107
     40 H6         -0.1711   -1.9884   -2.0548 H         1 <0>         0.1083
     41 H7         -1.5889   -4.1206   -0.3590 H         1 <0>         0.0906
     42 H8         -0.2204   -4.3317   -1.5023 H         1 <0>         0.1146
     43 H9          0.2962   -4.1227    1.1444 H         1 <0>         0.0963
     44 H10         1.3325   -3.2456   -0.0225 H         1 <0>         0.1041
     45 H11         0.6419    0.3520    6.6746 H         1 <0>         0.1796
     46 H12         2.6919   -1.3025    7.1367 H         1 <0>         0.1885
     47 H13         3.0281   -2.7852    5.0004 H         1 <0>         0.2040
     48 H14        -1.1253    1.2284    5.2981 H         1 <0>         0.4411
     49 H15        -1.5346    1.0440    1.5868 H         1 <0>         0.1629
     50 H16        -4.9888    2.1485    0.2251 H         1 <0>         0.1168
     51 H17        -1.9896    1.4711   -0.3937 H         1 <0>         0.0996
     52 H18        -3.3686    1.5049   -1.6179 H         1 <0>         0.1017
     53 H19        -3.7796    3.9511   -1.0874 H         1 <0>         0.1014
     54 H20        -2.4006    3.9173    0.1368 H         1 <0>         0.0905
     55 H21        -2.2289   -2.4311    1.9086 H         1 <0>         0.3988
     56 H22        -4.8613   -1.2151   -0.1660 H         1 <0>         0.1610
     57 H23        -7.2092   -0.9586    0.6021 H         1 <0>         0.1557
     58 H24        -3.7640   -2.0743    3.8810 H         1 <0>         0.1500
     59 H25         1.6178   -2.8440    2.5187 H         1 <0>         0.4537
@<TRIPOS>BOND
     1    1    2 1
     2    1   36 1
     3    1   37 1
     4    1   38 1
     5    2    6 1
     6    2    3 1
     7    2   26 1
     8    3    4 1
     9    3   39 1
    10    3   40 1
    11    4    5 1
    12    4   41 1
    13    4   42 1
    14    5    6 1
    15    5   43 1
    16    5   44 1
    17    6    7 1
    18    7   15 2
    19    7    8 1
    20    8    9 2
    21    9   10 1
    22    9   16 1
    23   10   14 1
    24   10   11 2
    25   11   12 1
    26   11   45 1
    27   12   13 2
    28   12   46 1
    29   13   14 1
    30   13   47 1
    31   14   15 1
    32   15   59 1
    33   16   17 1
    34   16   48 1
    35   17   18 2
    36   17   22 1
    37   18   49 1
    38   18   19 1
    39   19   23 1
    40   19   20 2
    41   20   22 1
    42   21   22 1
    43   23   25 1
    44   23   24 1
    45   23   50 1
    46   24   25 1
    47   24   51 1
    48   24   52 1
    49   25   53 1
    50   25   54 1
    51   26   27 2
    52   26   28 am
    53   28   29 1
    54   28   55 1
    55   29   34 ar
    56   29   30 ar
    57   30   31 ar
    58   30   56 1
    59   31   32 ar
    60   31   57 1
    61   32   33 ar
    62   32   35 1
    63   33   34 ar
    64   34   58 1
@<TRIPOS>MOLECULE
ZINC03991710
   36    41     0     0     0
SMALL
USER_CHARGES

@<TRIPOS>ATOM
      1 C1          1.1698    2.0901    0.0021 C.ar      1 <0>        -0.1470
      2 C2          2.3802    1.4132   -0.0139 C.ar      1 <0>        -0.0714
      3 C3          2.4136    0.0354   -0.0214 C.ar      1 <0>        -0.1437
      4 C4          1.2263   -0.6905   -0.0133 C.ar      1 <0>         0.1445
      5 C5          0.0021   -0.0041    0.0020 C.ar      1 <0>        -0.1076
      6 C6         -0.0168    1.3900    0.0097 C.ar      1 <0>        -0.0468
      7 C7         -1.0533   -1.0311    0.0066 C.ar      1 <0>        -0.0092
      8 C8         -2.4524   -0.9704    0.0209 C.ar      1 <0>        -0.1059
      9 C9         -3.2046   -2.1581    0.0224 C.ar      1 <0>        -0.1073
     10 C10        -2.5513   -3.3971    0.0095 C.ar      1 <0>        -0.0140
     11 C11        -3.0283   -4.7902    0.0080 C.ar      1 <0>        -0.0924
     12 C12        -4.2968   -5.3691    0.0176 C.ar      1 <0>        -0.0389
     13 C13        -4.4227   -6.7408    0.0127 C.ar      1 <0>        -0.1213
     14 C14        -3.2927   -7.5464   -0.0024 C.ar      1 <0>        -0.0474
     15 C15        -2.0322   -6.9869   -0.0121 C.ar      1 <0>        -0.1137
     16 C16        -1.8842   -5.6033   -0.0073 C.ar      1 <0>         0.1498
     17 N1         -0.7696   -4.7856   -0.0148 N.pl3     1 <0>        -0.6026
     18 H1          0.1480   -5.0999   -0.0251 H         1 <0>         0.4226
     19 C17        -1.1485   -3.4570   -0.0049 C.ar      1 <0>         0.1511
     20 C18        -0.3991   -2.2735   -0.0064 C.ar      1 <0>         0.1482
     21 N2          0.9639   -2.0477   -0.0181 N.pl3     1 <0>        -0.6053
     22 H2          1.6405   -2.7427   -0.0288 H         1 <0>         0.4208
     23 Br1        -3.4830   -9.4278   -0.0103 Br        1 <0>        -0.0356
     24 C19        -4.6182   -1.7422    0.0387 C.2       1 <0>         0.5843
     25 O1         -5.5770   -2.4887    0.0449 O.2       1 <0>        -0.4579
     26 N3         -4.6696   -0.3981    0.0461 N.am      1 <0>        -0.6804
     27 C20        -3.4326    0.1301    0.0364 C.2       1 <0>         0.5838
     28 O2         -3.1677    1.3160    0.0392 O.2       1 <0>        -0.4567
     29 H3          1.1573    3.1701    0.0076 H         1 <0>         0.1321
     30 H4          3.3050    1.9709   -0.0199 H         1 <0>         0.1333
     31 H5          3.3619   -0.4813   -0.0332 H         1 <0>         0.1275
     32 H6         -0.9583    1.9192    0.0170 H         1 <0>         0.1424
     33 H7         -5.1776   -4.7442    0.0294 H         1 <0>         0.1518
     34 H8         -5.4044   -7.1910    0.0201 H         1 <0>         0.1423
     35 H9         -1.1594   -7.6229   -0.0238 H         1 <0>         0.1380
     36 H10        -5.4891    0.1208    0.0573 H         1 <0>         0.4326
@<TRIPOS>BOND
     1    1    6 ar
     2    1    2 ar
     3    1   29 1
     4    2    3 ar
     5    2   30 1
     6    3    4 ar
     7    3   31 1
     8    4   21 1
     9    4    5 ar
    10    5    6 ar
    11    5    7 1
    12    6   32 1
    13    7   20 ar
    14    7    8 ar
    15    8   27 1
    16    8    9 ar
    17    9   10 ar
    18    9   24 1
    19   10   19 ar
    20   10   11 1
    21   11   16 ar
    22   11   12 ar
    23   12   13 ar
    24   12   33 1
    25   13   14 ar
    26   13   34 1
    27   14   15 ar
    28   14   23 1
    29   15   16 ar
    30   15   35 1
    31   16   17 1
    32   17   18 1
    33   17   19 1
    34   19   20 ar
    35   20   21 1
    36   21   22 1
    37   24   25 2
    38   24   26 am
    39   26   27 am
    40   26   36 1
    41   27   28 2
@<TRIPOS>MOLECULE
ZINC02540737
   37    39     0     0     0
SMALL
USER_CHARGES

@<TRIPOS>ATOM
      1 C1          1.8081   -4.6616   -0.1863 C.3       1 <0>        -0.1532
      2 C2          0.9947   -3.3694   -0.0888 C.3       1 <0>        -0.1238
      3 C3         -0.4979   -3.7054   -0.0851 C.3       1 <0>        -0.1108
      4 C4         -1.3114   -2.4133    0.0123 C.3       1 <0>        -0.0498
      5 C5         -2.7792   -2.7336   -0.1052 C.2       1 <0>        -0.1230
      6 C6         -3.6798   -2.9315    0.9703 C.ar      1 <0>         0.0614
      7 C7         -4.9420   -3.2065    0.4005 C.ar      1 <0>         0.2369
      8 N1         -4.7889   -3.1715   -0.9660 N.pl3     1 <0>        -0.5623
      9 H1         -5.4920   -3.3243   -1.6165 H         1 <0>         0.4248
     10 C8         -3.4763   -2.8785   -1.2598 C.2       1 <0>         0.1482
     11 C9         -2.9137   -2.7464   -2.6203 C.ar      1 <0>        -0.0487
     12 C10        -2.1113   -1.6503   -2.9425 C.ar      1 <0>        -0.0701
     13 C11        -1.5883   -1.5309   -4.2122 C.ar      1 <0>        -0.1417
     14 C12        -1.8588   -2.4990   -5.1705 C.ar      1 <0>         0.1212
     15 C13        -2.6570   -3.5907   -4.8541 C.ar      1 <0>        -0.1426
     16 C14        -3.1787   -3.7204   -3.5849 C.ar      1 <0>        -0.0837
     17 O1         -1.3418   -2.3776   -6.4209 O.3       1 <0>        -0.4984
     18 N2         -5.9810   -3.4342    1.1913 N.ar      1 <0>        -0.4505
     19 C15        -5.8299   -3.4027    2.5029 C.ar      1 <0>         0.0851
     20 C16        -4.5912   -3.1329    3.0645 C.ar      1 <0>         0.0409
     21 N3         -3.5445   -2.9034    2.2954 N.ar      1 <0>        -0.4011
     22 H2          2.8715   -4.4222   -0.1889 H         1 <0>         0.0536
     23 H3          1.5814   -5.2990    0.6683 H         1 <0>         0.0533
     24 H4          1.5511   -5.1841   -1.1077 H         1 <0>         0.0520
     25 H5          1.2518   -2.8468    0.8325 H         1 <0>         0.0628
     26 H6          1.2215   -2.7320   -0.9435 H         1 <0>         0.0607
     27 H7         -0.7550   -4.2280   -1.0065 H         1 <0>         0.0595
     28 H8         -0.7247   -4.3429    0.7695 H         1 <0>         0.0621
     29 H9         -1.1197   -1.9348    0.9728 H         1 <0>         0.0793
     30 H10        -1.0209   -1.7394   -0.7936 H         1 <0>         0.0738
     31 H11        -1.9010   -0.8967   -2.1981 H         1 <0>         0.1370
     32 H12        -0.9674   -0.6833   -4.4622 H         1 <0>         0.1370
     33 H13        -2.8654   -4.3412   -5.6021 H         1 <0>         0.1349
     34 H14        -3.7953   -4.5721   -3.3382 H         1 <0>         0.1284
     35 H15        -0.4754   -2.7929   -6.5303 H         1 <0>         0.3956
     36 H16        -6.6791   -3.5885    3.1439 H         1 <0>         0.1767
     37 H17        -4.4828   -3.1100    4.1388 H         1 <0>         0.1746
@<TRIPOS>BOND
     1    1    2 1
     2    1   22 1
     3    1   23 1
     4    1   24 1
     5    2    3 1
     6    2   25 1
     7    2   26 1
     8    3    4 1
     9    3   27 1
    10    3   28 1
    11    4    5 1
    12    4   29 1
    13    4   30 1
    14    5   10 2
    15    5    6 1
    16    6   21 ar
    17    6    7 ar
    18    7    8 1
    19    7   18 ar
    20    8    9 1
    21    8   10 1
    22   10   11 1
    23   11   16 ar
    24   11   12 ar
    25   12   13 ar
    26   12   31 1
    27   13   14 ar
    28   13   32 1
    29   14   15 ar
    30   14   17 1
    31   15   16 ar
    32   15   33 1
    33   16   34 1
    34   17   35 1
    35   18   19 ar
    36   19   20 ar
    37   19   36 1
    38   20   21 ar
    39   20   37 1
@<TRIPOS>MOLECULE
ZINC01487345
   57    59     0     0     0
SMALL
USER_CHARGES
2-[2-hydroxyethyl-[9-isopropyl-6-[(4-methoxyphenyl)methylamino]purin-2-yl]-amino]ethanol
@<TRIPOS>ATOM
      1 C1         -1.1993    3.0950    1.2740 C.3       1 <0>        -0.1632
      2 C2         -1.2091    2.2185    0.0201 C.3       1 <0>         0.1347
      3 C3         -1.2116    3.1086   -1.2244 C.3       1 <0>        -0.1628
      4 N1         -0.0165    1.3677    0.0096 N.pl3     1 <0>        -0.4722
      5 C4          1.2795    1.7943   -0.0005 C.2       1 <0>         0.2402
      6 N2          2.0834    0.7716   -0.0137 N.2       1 <0>        -0.4467
      7 C5          1.3573   -0.3733   -0.0129 C.ar      1 <0>        -0.1206
      8 C6          0.0021   -0.0041    0.0020 C.ar      1 <0>         0.3393
      9 N3         -0.9280   -0.9537    0.0062 N.ar      1 <0>        -0.5973
     10 C7         -0.5853   -2.2317   -0.0036 C.ar      1 <0>         0.6126
     11 N4          0.6819   -2.6250   -0.0178 N.ar      1 <0>        -0.6079
     12 C8          1.6747   -1.7425   -0.0229 C.ar      1 <0>         0.4793
     13 N5          2.9931   -2.1622   -0.0382 N.pl3     1 <0>        -0.5944
     14 C9          3.3062   -3.5933   -0.0490 C.3       1 <0>         0.1142
     15 C10         4.8015   -3.7803   -0.0648 C.ar      1 <0>        -0.1303
     16 C11         5.4737   -3.8651   -1.2700 C.ar      1 <0>        -0.0680
     17 C12         6.8451   -4.0309   -1.2872 C.ar      1 <0>        -0.2088
     18 C13         7.5464   -4.1235   -0.0938 C.ar      1 <0>         0.1334
     19 C14         6.8688   -4.0437    1.1142 C.ar      1 <0>        -0.1528
     20 C15         5.4981   -3.8723    1.1260 C.ar      1 <0>        -0.0511
     21 O1          8.8948   -4.2917   -0.1080 O.3       1 <0>        -0.3173
     22 C16         9.5259   -4.3654   -1.3880 C.3       1 <0>         0.0264
     23 N6         -1.5836   -3.1919    0.0007 N.pl3     1 <0>        -0.5636
     24 C17        -1.2321   -4.6141   -0.0099 C.3       1 <0>         0.1396
     25 C18        -1.0964   -5.1166    1.4288 C.3       1 <0>         0.0591
     26 O2         -2.3665   -5.0460    2.0799 O.3       1 <0>        -0.5710
     27 C19        -2.9910   -2.7853    0.0158 C.3       1 <0>         0.1392
     28 C20        -3.4943   -2.6363   -1.4213 C.3       1 <0>         0.0601
     29 O3         -3.4760   -3.9110   -2.0670 O.3       1 <0>        -0.5706
     30 H1         -2.0866    3.7280    1.2819 H         1 <0>         0.0797
     31 H2         -1.1975    2.4609    2.1606 H         1 <0>         0.0633
     32 H3         -0.3067    3.7206    1.2730 H         1 <0>         0.0662
     33 H4         -2.1017    1.5929    0.0211 H         1 <0>         0.1053
     34 H5         -1.2186    2.4841   -2.1177 H         1 <0>         0.0625
     35 H6         -2.0989    3.7416   -1.2166 H         1 <0>         0.0798
     36 H7         -0.3190    3.7342   -1.2254 H         1 <0>         0.0663
     37 H8          1.5918    2.8281    0.0015 H         1 <0>         0.2159
     38 H9          3.4456   -1.8097   -0.8573 H         1 <0>         0.3682
     39 H10         2.8907   -4.0628    0.8427 H         1 <0>         0.0895
     40 H11         2.8731   -4.0533   -0.9372 H         1 <0>         0.0606
     41 H12         4.9267   -3.7974   -2.1988 H         1 <0>         0.1238
     42 H13         7.3702   -4.0927   -2.2289 H         1 <0>         0.1290
     43 H14         7.4125   -4.1159    2.0446 H         1 <0>         0.1322
     44 H15         4.9703   -3.8098    2.0662 H         1 <0>         0.1308
     45 H16         9.1196   -5.2094   -1.9453 H         1 <0>         0.0561
     46 H17         9.3400   -3.4431   -1.9384 H         1 <0>         0.0565
     47 H18        10.5996   -4.4998   -1.2565 H         1 <0>         0.1012
     48 H19        -2.0136   -5.1777   -0.5194 H         1 <0>         0.0939
     49 H20        -0.2858   -4.7506   -0.5332 H         1 <0>         0.0965
     50 H21        -0.7488   -6.1497    1.4216 H         1 <0>         0.0541
     51 H22        -0.3785   -4.4955    1.9644 H         1 <0>         0.0467
     52 H23        -2.3553   -5.3497    2.9979 H         1 <0>         0.3772
     53 H24        -3.5823   -3.5421    0.5313 H         1 <0>         0.0938
     54 H25        -3.0882   -1.8321    0.5355 H         1 <0>         0.0960
     55 H26        -4.5130   -2.2488   -1.4112 H         1 <0>         0.0531
     56 H27        -2.8481   -1.9454   -1.9628 H         1 <0>         0.0456
     57 H28        -3.7832   -3.8920   -2.9837 H         1 <0>         0.3768
@<TRIPOS>BOND
     1    1    2 1
     2    1   30 1
     3    1   31 1
     4    1   32 1
     5    2    3 1
     6    2    4 1
     7    2   33 1
     8    3   34 1
     9    3   35 1
    10    3   36 1
    11    4    8 1
    12    4    5 1
    13    5    6 2
    14    5   37 1
    15    6    7 1
    16    7   12 ar
    17    7    8 ar
    18    8    9 ar
    19    9   10 ar
    20   10   11 ar
    21   10   23 1
    22   11   12 ar
    23   12   13 1
    24   13   14 1
    25   13   38 1
    26   14   15 1
    27   14   39 1
    28   14   40 1
    29   15   20 ar
    30   15   16 ar
    31   16   17 ar
    32   16   41 1
    33   17   18 ar
    34   17   42 1
    35   18   19 ar
    36   18   21 1
    37   19   20 ar
    38   19   43 1
    39   20   44 1
    40   21   22 1
    41   22   45 1
    42   22   46 1
    43   22   47 1
    44   23   24 1
    45   23   27 1
    46   24   25 1
    47   24   48 1
    48   24   49 1
    49   25   26 1
    50   25   50 1
    51   25   51 1
    52   26   52 1
    53   27   28 1
    54   27   53 1
    55   27   54 1
    56   28   29 1
    57   28   55 1
    58   28   56 1
    59   29   57 1
