@<TRIPOS>MOLECULE
ZINC13588853
   31    33     0     0     0
SMALL
USER_CHARGES
1-[(3-chlorophenyl)methyl]indole-2-carboxylic acid
@<TRIPOS>ATOM
      1 C1          2.1527    7.2349   -4.0828 C.ar      1 <0>        -0.1577
      2 C2          1.5624    7.3782   -2.8332 C.ar      1 <0>        -0.1132
      3 C3          1.7361    6.4194   -1.8607 C.ar      1 <0>        -0.1244
      4 C4          2.5105    5.2938   -2.1289 C.ar      1 <0>         0.0880
      5 C5          3.1080    5.1508   -3.3966 C.ar      1 <0>        -0.1067
      6 C6          2.9162    6.1411   -4.3692 C.ar      1 <0>        -0.0729
      7 C7          3.8232    3.9294   -3.3809 C.2       1 <0>        -0.1822
      8 C8          3.6620    3.3712   -2.1517 C.2       1 <0>         0.0642
      9 N1          2.8593    4.1928   -1.3834 N.pl3     1 <0>        -0.4474
     10 C9          2.4523    3.9358    0.0003 C.3       1 <0>         0.1479
     11 C10         1.1570    3.1655    0.0080 C.ar      1 <0>        -0.0902
     12 C11         1.1750    1.7830    0.0004 C.ar      1 <0>        -0.0822
     13 C12        -0.0126    1.0758    0.0080 C.ar      1 <0>        -0.1193
     14 C13        -1.2191    1.7505    0.0173 C.ar      1 <0>        -0.1099
     15 C14        -1.2376    3.1336    0.0302 C.ar      1 <0>        -0.0472
     16 C15        -0.0484    3.8411    0.0231 C.ar      1 <0>        -0.0974
     17 Cl1        -2.7523    3.9816    0.0493 Cl        1 <0>        -0.0854
     18 C16         4.2453    2.0969   -1.7118 C.2       1 <0>         0.5154
     19 O1          4.9397    1.4513   -2.4727 O.co2     1 <0>        -0.6081
     20 H1          2.0062    7.9966   -4.8343 H         1 <0>         0.1136
     21 H2          0.9616    8.2506   -2.6226 H         1 <0>         0.1165
     22 H3          1.2734    6.5402   -0.8923 H         1 <0>         0.1109
     23 H4          3.3711    6.0384   -5.3434 H         1 <0>         0.1160
     24 H5          4.3975    3.5171   -4.1973 H         1 <0>         0.1439
     25 H6          2.3144    4.8836    0.5205 H         1 <0>         0.0788
     26 H7          3.2241    3.3538    0.5039 H         1 <0>         0.1344
     27 H8          2.1173    1.2555   -0.0111 H         1 <0>         0.1750
     28 H9          0.0021   -0.0041    0.0020 H         1 <0>         0.1300
     29 H10        -2.1470    1.1979    0.0191 H         1 <0>         0.1270
     30 H11        -0.0623    4.9210    0.0291 H         1 <0>         0.1255
     31 O2          4.0104    1.6430   -0.4639 O.co2     1 <0>        -0.7430
@<TRIPOS>BOND
     1    1    6 ar
     2    1    2 ar
     3    1   20 1
     4    2    3 ar
     5    2   21 1
     6    3    4 ar
     7    3   22 1
     8    4    9 1
     9    4    5 ar
    10    5    6 ar
    11    5    7 1
    12    6   23 1
    13    7    8 2
    14    7   24 1
    15    8    9 1
    16    8   18 1
    17    9   10 1
    18   10   11 1
    19   10   25 1
    20   10   26 1
    21   11   16 ar
    22   11   12 ar
    23   12   13 ar
    24   12   27 1
    25   13   14 ar
    26   13   28 1
    27   14   15 ar
    28   14   29 1
    29   15   16 ar
    30   15   17 1
    31   16   30 1
    32   18   19 2
    33   18   31 1
@<TRIPOS>MOLECULE
ZINC13588854
   31    33     0     0     0
SMALL
USER_CHARGES
1-[(3,4-dichlorophenyl)methyl]indole-2-carboxylic acid
@<TRIPOS>ATOM
      1 C1         -5.2963    2.0178   -4.0415 C.ar      1 <0>        -0.1577
      2 C2         -5.1128    1.4157   -2.8028 C.ar      1 <0>        -0.1131
      3 C3         -4.3613    2.0316   -1.8275 C.ar      1 <0>        -0.1257
      4 C4         -3.7782    3.2700   -2.0818 C.ar      1 <0>         0.0877
      5 C5         -3.9657    3.8784   -3.3384 C.ar      1 <0>        -0.1060
      6 C6         -4.7354    3.2312   -4.3142 C.ar      1 <0>        -0.0721
      7 C7         -3.2674    5.1093   -3.3099 C.2       1 <0>        -0.1810
      8 C8         -2.6923    5.2305   -2.0840 C.2       1 <0>         0.0642
      9 N1         -2.9935    4.1122   -1.3302 N.pl3     1 <0>        -0.4487
     10 C9         -2.5542    3.8673    0.0457 C.3       1 <0>         0.1472
     11 C10        -1.2383    3.1330    0.0297 C.ar      1 <0>        -0.0861
     12 C11        -1.2187    1.7505    0.0173 C.ar      1 <0>        -0.0916
     13 C12        -0.0126    1.0758    0.0080 C.ar      1 <0>        -0.1138
     14 C13         1.1760    1.7838    0.0004 C.ar      1 <0>        -0.0284
     15 C14         1.1563    3.1681    0.0076 C.ar      1 <0>        -0.0380
     16 C15        -0.0519    3.8418    0.0222 C.ar      1 <0>        -0.0677
     17 Cl1         2.6468    4.0579   -0.0025 Cl        1 <0>        -0.0535
     18 Cl2         2.6913    0.9369   -0.0186 Cl        1 <0>        -0.0628
     19 C16        -1.8780    6.3672   -1.6338 C.2       1 <0>         0.5148
     20 O1         -1.6747    7.3035   -2.3821 O.co2     1 <0>        -0.6060
     21 H1         -5.8889    1.5208   -4.7954 H         1 <0>         0.1138
     22 H2         -5.5644    0.4552   -2.6030 H         1 <0>         0.1167
     23 H3         -4.2248    1.5555   -0.8677 H         1 <0>         0.1115
     24 H4         -4.8837    3.6914   -5.2799 H         1 <0>         0.1163
     25 H5         -3.2062    5.8257   -4.1158 H         1 <0>         0.1443
     26 H6         -3.3004    3.2646    0.5635 H         1 <0>         0.0832
     27 H7         -2.4330    4.8189    0.5632 H         1 <0>         0.1355
     28 H8         -2.1464    1.1975    0.0187 H         1 <0>         0.1320
     29 H9          0.0021   -0.0041    0.0020 H         1 <0>         0.1381
     30 H10        -0.0680    4.9217    0.0282 H         1 <0>         0.1890
     31 O2         -1.3560    6.3721   -0.3905 O.co2     1 <0>        -0.7424
@<TRIPOS>BOND
     1    1    6 ar
     2    1    2 ar
     3    1   21 1
     4    2    3 ar
     5    2   22 1
     6    3    4 ar
     7    3   23 1
     8    4    9 1
     9    4    5 ar
    10    5    6 ar
    11    5    7 1
    12    6   24 1
    13    7    8 2
    14    7   25 1
    15    8    9 1
    16    8   19 1
    17    9   10 1
    18   10   11 1
    19   10   26 1
    20   10   27 1
    21   11   16 ar
    22   11   12 ar
    23   12   13 ar
    24   12   28 1
    25   13   14 ar
    26   13   29 1
    27   14   15 ar
    28   14   18 1
    29   15   16 ar
    30   15   17 1
    31   16   30 1
    32   19   20 2
    33   19   31 1
@<TRIPOS>MOLECULE
ZINC09239708
   31    33     0     0     0
SMALL
USER_CHARGES
1-[(4-chlorophenyl)methyl]indole-2-carboxylic acid
@<TRIPOS>ATOM
      1 C1          1.1637    3.1717    0.0080 C.ar      1 <0>        -0.1581
      2 C2          1.1690    1.7823    0.0005 C.ar      1 <0>        -0.1139
      3 C3         -0.0126    1.0758    0.0080 C.ar      1 <0>        -0.1248
      4 C4         -1.2266    1.7575    0.0174 C.ar      1 <0>         0.0879
      5 C5         -1.2292    3.1661    0.0304 C.ar      1 <0>        -0.1069
      6 C6         -0.0130    3.8620    0.0226 C.ar      1 <0>        -0.0725
      7 C7         -2.5837    3.5767    0.0448 C.2       1 <0>        -0.1823
      8 C8         -3.3555    2.4575    0.0313 C.2       1 <0>         0.0642
      9 N1         -2.5375    1.3438    0.0213 N.pl3     1 <0>        -0.4469
     10 C9         -2.9925   -0.0487    0.0163 C.3       1 <0>         0.1468
     11 C10        -3.1420   -0.5335    1.4353 C.ar      1 <0>        -0.0973
     12 C11        -2.0741   -1.1327    2.0769 C.ar      1 <0>        -0.0955
     13 C12        -2.2089   -1.5724    3.3803 C.ar      1 <0>        -0.1263
     14 C13        -3.4163   -1.4229    4.0391 C.ar      1 <0>        -0.0309
     15 C14        -4.4864   -0.8283    3.3946 C.ar      1 <0>        -0.1211
     16 C15        -4.3487   -0.3839    2.0931 C.ar      1 <0>        -0.0754
     17 Cl1        -3.5883   -1.9808    5.6740 Cl        1 <0>        -0.0857
     18 C16        -4.8243    2.4356    0.0376 C.2       1 <0>         0.5153
     19 O1         -5.4478    3.4792    0.0463 O.co2     1 <0>        -0.6077
     20 H1          2.0999    3.7102    0.0020 H         1 <0>         0.1136
     21 H2          2.1094    1.2512   -0.0118 H         1 <0>         0.1164
     22 H3          0.0021   -0.0041    0.0020 H         1 <0>         0.1112
     23 H4         -0.0071    4.9419    0.0276 H         1 <0>         0.1160
     24 H5         -2.9402    4.5962    0.0537 H         1 <0>         0.1439
     25 H6         -3.9537   -0.1150   -0.4935 H         1 <0>         0.1328
     26 H7         -2.2618   -0.6678   -0.5041 H         1 <0>         0.0789
     27 H8         -1.1330   -1.2533    1.5610 H         1 <0>         0.1245
     28 H9         -1.3732   -2.0365    3.8829 H         1 <0>         0.1276
     29 H10        -5.4290   -0.7110    3.9084 H         1 <0>         0.1305
     30 H11        -5.1839    0.0807    1.5900 H         1 <0>         0.1785
     31 O2         -5.4810    1.2578    0.0338 O.co2     1 <0>        -0.7427
@<TRIPOS>BOND
     1    1    6 ar
     2    1    2 ar
     3    1   20 1
     4    2    3 ar
     5    2   21 1
     6    3    4 ar
     7    3   22 1
     8    4    9 1
     9    4    5 ar
    10    5    6 ar
    11    5    7 1
    12    6   23 1
    13    7    8 2
    14    7   24 1
    15    8    9 1
    16    8   18 1
    17    9   10 1
    18   10   11 1
    19   10   25 1
    20   10   26 1
    21   11   16 ar
    22   11   12 ar
    23   12   13 ar
    24   12   27 1
    25   13   14 ar
    26   13   28 1
    27   14   15 ar
    28   14   17 1
    29   15   16 ar
    30   15   29 1
    31   16   30 1
    32   18   19 2
    33   18   31 1
@<TRIPOS>MOLECULE
ZINC22443609
   93    95     0     0     0
SMALL
USER_CHARGES

@<TRIPOS>ATOM
      1 C1         -0.0167    1.3781    0.0096 C.ar      1 <0>        -0.0955
      2 C2          1.1709    2.0855    0.0021 C.ar      1 <0>        -0.0934
      3 C3          2.3773    1.4107   -0.0130 C.ar      1 <0>        -0.1579
      4 C4          2.3960    0.0285   -0.0201 C.ar      1 <0>        -0.0881
      5 C5          1.2085   -0.6789   -0.0117 C.ar      1 <0>        -0.1026
      6 C6          0.0021   -0.0041    0.0020 C.ar      1 <0>        -0.0409
      7 C7         -1.2926   -0.7753    0.0107 C.3       1 <0>         0.0794
      8 N1         -1.7270   -1.0184   -1.3714 N.3       1 <0>        -0.5332
      9 C8         -3.0940   -1.5550   -1.4069 C.3       1 <0>         0.0419
     10 C9         -4.0830   -0.4150   -1.6584 C.3       1 <0>        -0.1436
     11 C10        -5.0537   -0.8180   -2.7703 C.3       1 <0>        -0.0140
     12 N2         -5.1326    0.2595   -3.7657 N.4       1 <0>        -0.5101
     13 C11        -5.0625   -0.3152   -5.1158 C.3       1 <0>        -0.0297
     14 C12        -4.1553    0.5507   -5.9922 C.3       1 <0>         0.0341
     15 N3         -3.2191   -0.3097   -6.7280 N.3       1 <0>        -0.6789
     16 C13        -1.8495    0.2160   -6.6512 C.3       1 <0>         0.0531
     17 C14        -0.8820   -0.9260   -6.3339 C.3       1 <0>        -0.1537
     18 C15         0.0784   -0.4878   -5.2264 C.3       1 <0>         0.0588
     19 N4          0.2449   -1.5826   -4.2612 N.3       1 <0>        -0.6897
     20 C16         0.1998   -1.0797   -2.8817 C.3       1 <0>         0.0645
     21 C17        -0.7922   -1.9127   -2.0674 C.3       1 <0>         0.0274
     22 C18         3.6720    2.1819   -0.0222 C.3       1 <0>         0.0393
     23 N5          4.1064    2.4260    1.3597 N.4       1 <0>        -0.3837
     24 C19         5.3024    3.2789    1.3536 C.3       1 <0>        -0.0180
     25 C20         4.9021    4.7209    1.6718 C.3       1 <0>        -0.1456
     26 C21         5.8648    5.3001    2.7104 C.3       1 <0>         0.0482
     27 N6          5.0965    5.8947    3.8123 N.3       1 <0>        -0.6955
     28 C22         5.6432    5.4892    5.1141 C.3       1 <0>         0.0265
     29 C23         4.4949    5.1429    6.0640 C.3       1 <0>        -0.0150
     30 N7          4.7901    3.8769    6.7481 N.4       1 <0>        -0.5116
     31 C24         3.5977    3.0191    6.7267 C.3       1 <0>        -0.0134
     32 C25         3.9997    1.5968    6.3313 C.3       1 <0>        -0.1659
     33 C26         3.0177    1.0608    5.2876 C.3       1 <0>         0.0514
     34 N8          3.7600    0.3607    4.2308 N.3       1 <0>        -0.6768
     35 C27         3.2528    0.7253    2.9012 C.3       1 <0>         0.0395
     36 C28         4.4213    1.1457    2.0074 C.3       1 <0>        -0.0361
     37 H1         -0.9591    1.9053    0.0259 H         1 <0>         0.1319
     38 H2          1.1563    3.1654    0.0076 H         1 <0>         0.1299
     39 H3          3.3385   -0.4987   -0.0326 H         1 <0>         0.1322
     40 H4          1.2231   -1.7588   -0.0179 H         1 <0>         0.1341
     41 H5         -1.1443   -1.7285    0.5180 H         1 <0>         0.0599
     42 H6         -2.0551   -0.1993    0.5352 H         1 <0>         0.0917
     43 H7         -3.1753   -2.2898   -2.2079 H         1 <0>         0.0812
     44 H8         -3.3226   -2.0305   -0.4531 H         1 <0>         0.0694
     45 H9         -4.6415   -0.2103   -0.7450 H         1 <0>         0.1006
     46 H10        -3.5375    0.4796   -1.9589 H         1 <0>         0.0957
     47 H11        -4.6987   -1.7302   -3.2496 H         1 <0>         0.1306
     48 H12        -6.0419   -0.9922   -2.3444 H         1 <0>         0.1392
     49 H13        -6.0044    0.7555   -3.6561 H         1 <0>         0.4356
     50 H14        -4.6572   -1.3255   -5.0601 H         1 <0>         0.1309
     51 H15        -6.0622   -0.3481   -5.5490 H         1 <0>         0.1464
     52 H16        -4.7636    1.1141   -6.6997 H         1 <0>         0.1116
     53 H17        -3.5951    1.2425   -5.3631 H         1 <0>         0.0652
     54 H18        -3.2610   -1.2601   -6.3918 H         1 <0>         0.3463
     55 H19        -1.5792    0.6664   -7.6063 H         1 <0>         0.0891
     56 H20        -1.7930    0.9691   -5.8653 H         1 <0>         0.0515
     57 H21        -1.4455   -1.7981   -6.0022 H         1 <0>         0.0687
     58 H22        -0.3133   -1.1796   -7.2286 H         1 <0>         0.0879
     59 H23         1.0456   -0.2374   -5.6622 H         1 <0>         0.0781
     60 H24        -0.3282    0.3863   -4.7177 H         1 <0>         0.0452
     61 H25        -0.4479   -2.3016   -4.4068 H         1 <0>         0.3406
     62 H26         1.1909   -1.1557   -2.4347 H         1 <0>         0.0703
     63 H27        -0.1182   -0.0371   -2.8853 H         1 <0>         0.0622
     64 H28        -0.2494   -2.5114   -1.3360 H         1 <0>         0.0599
     65 H29        -1.3481   -2.5708   -2.7352 H         1 <0>         0.0755
     66 H30         4.4344    1.6056   -0.5463 H         1 <0>         0.1407
     67 H31         3.5237    3.1349   -0.5302 H         1 <0>         0.1396
     68 H32         6.0064    2.9229    2.1057 H         1 <0>         0.1280
     69 H33         5.7710    3.2405    0.3702 H         1 <0>         0.1401
     70 H34         4.9462    5.3195    0.7619 H         1 <0>         0.1052
     71 H35         3.8870    4.7371    2.0685 H         1 <0>         0.0959
     72 H36         6.5014    4.5051    3.0988 H         1 <0>         0.0754
     73 H37         6.4841    6.0665    2.2443 H         1 <0>         0.0782
     74 H38         5.0655    6.8999    3.7304 H         1 <0>         0.3734
     75 H39         6.2826    4.6161    4.9836 H         1 <0>         0.0836
     76 H40         6.2275    6.3081    5.5338 H         1 <0>         0.0910
     77 H41         4.3819    5.9370    6.8021 H         1 <0>         0.1404
     78 H42         3.5707    5.0415    5.4950 H         1 <0>         0.1408
     79 H43         5.5496    3.4090    6.2766 H         1 <0>         0.4191
     80 H44         3.1419    3.0059    7.7167 H         1 <0>         0.1435
     81 H45         2.8825    3.4092    6.0026 H         1 <0>         0.1318
     82 H46         5.0058    1.6069    5.9120 H         1 <0>         0.0851
     83 H47         3.9796    0.9553    7.2123 H         1 <0>         0.1162
     84 H48         2.3235    0.3684    5.7638 H         1 <0>         0.1015
     85 H49         2.4615    1.8909    4.8520 H         1 <0>         0.0580
     86 H50         4.7498    0.5429    4.3028 H         1 <0>         0.3465
     87 H51         2.7463   -0.1320    2.4579 H         1 <0>         0.1138
     88 H52         2.5507    1.5538    2.9948 H         1 <0>         0.0700
     89 H53         4.5880    0.3843    1.2454 H         1 <0>         0.1424
     90 H54         5.3206    1.2565    2.6132 H         1 <0>         0.1293
     91 H55         3.3670    2.8873    1.8682 H         1 <0>         0.4166
     92 H56        -4.3631    0.8982   -3.6317 H         1 <0>         0.4218
     93 H57         5.0524    4.0644    7.7042 H         1 <0>         0.4398
@<TRIPOS>BOND
     1    1    6 ar
     2    1    2 ar
     3    1   37 1
     4    2    3 ar
     5    2   38 1
     6    3    4 ar
     7    3   22 1
     8    4    5 ar
     9    4   39 1
    10    5    6 ar
    11    5   40 1
    12    6    7 1
    13    7    8 1
    14    7   41 1
    15    7   42 1
    16    8   21 1
    17    8    9 1
    18    9   10 1
    19    9   43 1
    20    9   44 1
    21   10   11 1
    22   10   45 1
    23   10   46 1
    24   11   12 1
    25   11   47 1
    26   11   48 1
    27   12   13 1
    28   12   49 1
    29   12   92 1
    30   13   14 1
    31   13   50 1
    32   13   51 1
    33   14   15 1
    34   14   52 1
    35   14   53 1
    36   15   16 1
    37   15   54 1
    38   16   17 1
    39   16   55 1
    40   16   56 1
    41   17   18 1
    42   17   57 1
    43   17   58 1
    44   18   19 1
    45   18   59 1
    46   18   60 1
    47   19   20 1
    48   19   61 1
    49   20   21 1
    50   20   62 1
    51   20   63 1
    52   21   64 1
    53   21   65 1
    54   22   23 1
    55   22   66 1
    56   22   67 1
    57   23   36 1
    58   23   24 1
    59   23   91 1
    60   24   25 1
    61   24   68 1
    62   24   69 1
    63   25   26 1
    64   25   70 1
    65   25   71 1
    66   26   27 1
    67   26   72 1
    68   26   73 1
    69   27   28 1
    70   27   74 1
    71   28   29 1
    72   28   75 1
    73   28   76 1
    74   29   30 1
    75   29   77 1
    76   29   78 1
    77   30   31 1
    78   30   79 1
    79   30   93 1
    80   31   32 1
    81   31   80 1
    82   31   81 1
    83   32   33 1
    84   32   82 1
    85   32   83 1
    86   33   34 1
    87   33   84 1
    88   33   85 1
    89   34   35 1
    90   34   86 1
    91   35   36 1
    92   35   87 1
    93   35   88 1
    94   36   89 1
    95   36   90 1
@<TRIPOS>MOLECULE
ZINC13613346
   70    73     0     0     0
SMALL
USER_CHARGES
1-(5-acetyl-4-methyl-thiazol-2-yl)-3-[(1R,2S)-2-[[(3S)-3-[(4-fluorophenyl)methyl]-1-piperidyl]methyl]cyclohexyl]urea
@<TRIPOS>ATOM
      1 C1         -5.6728    3.5355   10.4423 C.3       1 <0>        -0.0985
      2 C2         -4.6582    2.4944   10.0451 C.2       1 <0>         0.1933
      3 C3         -3.7716    1.9589   10.9773 C.2       1 <0>        -0.3113
      4 S1         -2.8609    0.8186    9.9455 S.3       1 <0>         0.1442
      5 C4         -3.6901    1.1481    8.4559 C.2       1 <0>         0.3169
      6 N1         -4.5788    2.0630    8.8160 N.2       1 <0>        -0.5137
      7 N2         -3.4800    0.5913    7.2086 N.am      1 <0>        -0.6248
      8 C5         -4.2380    0.9759    6.1626 C.2       1 <0>         0.6890
      9 O1         -5.1064    1.8126    6.3164 O.2       1 <0>        -0.4745
     10 N3         -4.0331    0.4330    4.9462 N.am      1 <0>        -0.7457
     11 C6         -4.8570    0.8510    3.8092 C.3       1 <0>         0.1464
     12 H1         -5.0943    1.9108    3.9027 H         1 <0>         0.1167
     13 C7         -6.1528    0.0378    3.7921 C.3       1 <0>        -0.1315
     14 C8         -7.0133    0.4744    2.6047 C.3       1 <0>        -0.1229
     15 C9         -6.2447    0.2367    1.3032 C.3       1 <0>        -0.1247
     16 C10        -4.9489    1.0500    1.3204 C.3       1 <0>        -0.1077
     17 C11        -4.0884    0.6134    2.5078 C.3       1 <0>        -0.1184
     18 H2         -3.8511   -0.4464    2.4143 H         1 <0>         0.1014
     19 C12        -2.7926    1.4266    2.5249 C.3       1 <0>        -0.0042
     20 C13        -1.3448   -0.3944    3.1945 C.3       1 <0>        -0.0167
     21 C14        -0.5437   -0.9679    4.3656 C.3       1 <0>        -0.1472
     22 C15         0.5823    0.0038    4.7329 C.3       1 <0>        -0.1376
     23 C16        -0.0241    1.3672    5.0765 C.3       1 <0>        -0.1063
     24 H3         -0.6734    1.2679    5.9463 H         1 <0>         0.0863
     25 C17        -0.8401    1.8730    3.8848 C.3       1 <0>        -0.0032
     26 C18         1.0969    2.3613    5.3868 C.3       1 <0>        -0.0692
     27 C19         1.8243    1.9254    6.6325 C.ar      1 <0>        -0.1091
     28 C20         1.4045    2.3751    7.8705 C.ar      1 <0>        -0.0849
     29 C21         2.0679    1.9722    9.0140 C.ar      1 <0>        -0.1488
     30 C22         3.1598    1.1261    8.9185 C.ar      1 <0>         0.1092
     31 C23         3.5825    0.6806    7.6776 C.ar      1 <0>        -0.1504
     32 C24         2.9144    1.0806    6.5359 C.ar      1 <0>        -0.0842
     33 F1          3.8119    0.7354   10.0353 F         1 <0>        -0.1325
     34 C25        -3.6351    2.2352   12.3519 C.2       1 <0>         0.4350
     35 O2         -4.3618    3.0514   12.8826 O.2       1 <0>        -0.4405
     36 C26        -2.5875    1.5183   13.1641 C.3       1 <0>        -0.1890
     37 H4         -6.5941    3.0442   10.7553 H         1 <0>         0.0902
     38 H5         -5.2797    4.1299   11.2671 H         1 <0>         0.1003
     39 H6         -5.8785    4.1855    9.5918 H         1 <0>         0.0817
     40 H7         -2.7871   -0.0763    7.0859 H         1 <0>         0.4219
     41 H8         -3.3401   -0.2346    4.8235 H         1 <0>         0.3858
     42 H9         -6.7004    0.2071    4.7192 H         1 <0>         0.0818
     43 H10        -5.9155   -1.0220    3.6986 H         1 <0>         0.0717
     44 H11        -7.2506    1.5341    2.6981 H         1 <0>         0.0725
     45 H12        -7.9365   -0.1050    2.5924 H         1 <0>         0.0786
     46 H13        -6.8577    0.5478    0.4573 H         1 <0>         0.0807
     47 H14        -6.0074   -0.8230    1.2097 H         1 <0>         0.0694
     48 H15        -5.1862    2.1097    1.4138 H         1 <0>         0.0813
     49 H16        -4.4013    0.8806    0.3932 H         1 <0>         0.0849
     50 H17        -3.0228    2.4727    2.7269 H         1 <0>         0.1320
     51 H18        -2.2987    1.3436    1.5568 H         1 <0>         0.1388
     52 H19        -2.1556   -1.0770    2.9402 H         1 <0>         0.1264
     53 H20        -0.6897   -0.2715    2.3320 H         1 <0>         0.1378
     54 H21        -1.2013   -1.1039    5.2242 H         1 <0>         0.0746
     55 H22        -0.1160   -1.9284    4.0782 H         1 <0>         0.1198
     56 H23         1.2618    0.1101    3.8873 H         1 <0>         0.0892
     57 H24         1.1288   -0.3794    5.5946 H         1 <0>         0.1011
     58 H25        -1.2845    2.8372    4.1319 H         1 <0>         0.1269
     59 H26        -0.1875    1.9851    3.0190 H         1 <0>         0.1349
     60 H27         1.7955    2.3937    4.5507 H         1 <0>         0.0889
     61 H28         0.6708    3.3523    5.5428 H         1 <0>         0.0863
     62 H29         0.5554    3.0383    7.9444 H         1 <0>         0.1302
     63 H30         1.7372    2.3204    9.9814 H         1 <0>         0.1395
     64 H31         4.4339    0.0203    7.6019 H         1 <0>         0.1399
     65 H32         3.2442    0.7335    5.5679 H         1 <0>         0.1333
     66 H33        -1.7354    2.0413   13.1451 H         1 <0>         0.0904
     67 H34        -2.9307    1.4200   14.1940 H         1 <0>         0.0983
     68 H35        -2.4155    0.5280   12.7424 H         1 <0>         0.0792
     69 N4         -1.9210    0.9057    3.5983 N.4       1 <0>        -0.4126
     70 H36        -2.4820    0.7719    4.4478 H         1 <0>         0.4031
@<TRIPOS>BOND
     1    1    2 1
     2    1   37 1
     3    1   38 1
     4    1   39 1
     5    2    6 1
     6    2    3 2
     7    3    4 1
     8    3   34 1
     9    4    5 1
    10    5    6 2
    11    5    7 1
    12    7    8 am
    13    7   40 1
    14    8    9 2
    15    8   10 am
    16   10   11 1
    17   10   41 1
    18   11   12 1
    19   11   17 1
    20   11   13 1
    21   13   14 1
    22   13   42 1
    23   13   43 1
    24   14   15 1
    25   14   44 1
    26   14   45 1
    27   15   16 1
    28   15   46 1
    29   15   47 1
    30   16   17 1
    31   16   48 1
    32   16   49 1
    33   17   18 1
    34   17   19 1
    35   19   50 1
    36   19   51 1
    37   19   69 1
    38   20   21 1
    39   20   52 1
    40   20   53 1
    41   20   69 1
    42   21   22 1
    43   21   54 1
    44   21   55 1
    45   22   23 1
    46   22   56 1
    47   22   57 1
    48   23   24 1
    49   23   25 1
    50   23   26 1
    51   25   58 1
    52   25   59 1
    53   25   69 1
    54   26   27 1
    55   26   60 1
    56   26   61 1
    57   27   32 ar
    58   27   28 ar
    59   28   29 ar
    60   28   62 1
    61   29   30 ar
    62   29   63 1
    63   30   31 ar
    64   30   33 1
    65   31   32 ar
    66   31   64 1
    67   32   65 1
    68   34   35 2
    69   34   36 1
    70   36   66 1
    71   36   67 1
    72   36   68 1
    73   69   70 1
@<TRIPOS>MOLECULE
ZINC28383479
   52    54     0     0     0
SMALL
USER_CHARGES
N-[2-[[(3R)-1-[(4-chlorophenyl)methyl]pyrrolidin-3-yl]amino]-2-oxo-ethyl]-3-(trifluoromethyl)benzamide
@<TRIPOS>ATOM
      1 C1          2.3828    1.4202   -0.0130 C.ar      1 <0>        -0.1234
      2 C2          2.4156    0.0409   -0.0207 C.ar      1 <0>        -0.0540
      3 C3          1.2221   -0.6824   -0.0133 C.ar      1 <0>        -0.1397
      4 C4          0.0021   -0.0041    0.0020 C.ar      1 <0>        -0.0101
      5 C5         -0.0166    1.3751    0.0096 C.ar      1 <0>        -0.1870
      6 C6          1.1704    2.0863    0.0021 C.ar      1 <0>        -0.0398
      7 C7         -1.3327    2.1092    0.0198 C.3       1 <0>         0.5093
      8 F1         -1.7338    2.3291    1.3419 F         1 <0>        -0.1723
      9 F2         -1.1867    3.3375   -0.6337 F         1 <0>        -0.1730
     10 F3         -2.2995    1.3423   -0.6393 F         1 <0>        -0.1729
     11 C8          1.2496   -2.1606   -0.0219 C.2       1 <0>         0.5694
     12 O1          0.2085   -2.7879   -0.0158 O.2       1 <0>        -0.5293
     13 N1          2.4291   -2.8125   -0.0367 N.am      1 <0>        -0.7326
     14 C9          2.4564   -4.2772   -0.0453 C.3       1 <0>         0.1031
     15 C10         3.8863   -4.7529   -0.0614 C.2       1 <0>         0.5226
     16 O2          4.7932   -3.9477   -0.0652 O.2       1 <0>        -0.5236
     17 N2          4.1572   -6.0731   -0.0714 N.am      1 <0>        -0.7471
     18 C11         5.5472   -6.5355   -0.0871 C.3       1 <0>         0.1269
     19 H1          6.0933   -5.7771    0.4931 H         1 <0>         0.1322
     20 C12         6.0485   -6.6794   -1.5424 C.3       1 <0>        -0.1616
     21 C13         6.9046   -7.9697   -1.4880 C.3       1 <0>        -0.0007
     22 N3          6.1463   -8.8415   -0.5546 N.4       1 <0>        -0.3994
     23 C14         5.6469   -7.9497    0.5143 C.3       1 <0>        -0.0116
     24 C15         7.0076   -9.8952   -0.0015 C.3       1 <0>         0.0444
     25 C16         7.6903  -10.6285   -1.1272 C.ar      1 <0>        -0.1579
     26 C17         7.0928  -11.7408   -1.6900 C.ar      1 <0>        -0.0801
     27 C18         7.7159  -12.4103   -2.7263 C.ar      1 <0>        -0.1068
     28 C19         8.9431  -11.9738   -3.1927 C.ar      1 <0>        -0.0069
     29 C20         9.5432  -10.8639   -2.6253 C.ar      1 <0>        -0.1071
     30 C21         8.9165  -10.1918   -1.5929 C.ar      1 <0>        -0.0811
     31 Cl1         9.7293  -12.8181   -4.4899 Cl        1 <0>        -0.0371
     32 H2          3.3057    1.9812   -0.0188 H         1 <0>         0.1463
     33 H3          3.3627   -0.4779   -0.0329 H         1 <0>         0.1361
     34 H4         -0.9251   -0.5579    0.0082 H         1 <0>         0.1513
     35 H5          1.1503    3.1661    0.0077 H         1 <0>         0.1458
     36 H6          3.3713   -2.2448   -0.0423 H         1 <0>         0.4350
     37 H7          1.9532   -4.6586    0.8554 H         1 <0>         0.1054
     38 H8          1.9364   -4.6484   -0.9407 H         1 <0>         0.1048
     39 H9          3.3346   -6.8034   -0.0678 H         1 <0>         0.4299
     40 H10         5.1866   -6.7713   -2.2197 H         1 <0>         0.1036
     41 H11         6.6374   -5.7918   -1.8168 H         1 <0>         0.1219
     42 H12         6.9826   -8.4007   -2.4970 H         1 <0>         0.1394
     43 H13         7.9103   -7.7270   -1.1142 H         1 <0>         0.1380
     44 H14         6.3426   -7.9376    1.3663 H         1 <0>         0.1458
     45 H15         4.6530   -8.2733    0.8570 H         1 <0>         0.1416
     46 H16         7.7659   -9.4424    0.6542 H         1 <0>         0.1356
     47 H17         6.3960  -10.6018    0.5787 H         1 <0>         0.1414
     48 H18         6.1369  -12.0841   -1.3228 H         1 <0>         0.1413
     49 H19         7.2469  -13.2767   -3.1688 H         1 <0>         0.1468
     50 H20        10.5010  -10.5224   -2.9892 H         1 <0>         0.1468
     51 H21         9.3847   -9.3251   -1.1501 H         1 <0>         0.1393
     52 H22         5.3217   -9.3641   -1.0615 H         1 <0>         0.4511
@<TRIPOS>BOND
     1    1    6 ar
     2    1    2 ar
     3    1   32 1
     4    2    3 ar
     5    2   33 1
     6    3    4 ar
     7    3   11 1
     8    4    5 ar
     9    4   34 1
    10    5    6 ar
    11    5    7 1
    12    6   35 1
    13    7    8 1
    14    7    9 1
    15    7   10 1
    16   11   12 2
    17   11   13 am
    18   13   14 1
    19   13   36 1
    20   14   15 1
    21   14   37 1
    22   14   38 1
    23   15   16 2
    24   15   17 am
    25   17   18 1
    26   17   39 1
    27   18   19 1
    28   18   23 1
    29   18   20 1
    30   20   21 1
    31   20   40 1
    32   20   41 1
    33   21   22 1
    34   21   42 1
    35   21   43 1
    36   22   23 1
    37   22   24 1
    38   22   52 1
    39   23   44 1
    40   23   45 1
    41   24   25 1
    42   24   46 1
    43   24   47 1
    44   25   30 ar
    45   25   26 ar
    46   26   27 ar
    47   26   48 1
    48   27   28 ar
    49   27   49 1
    50   28   29 ar
    51   28   31 1
    52   29   30 ar
    53   29   50 1
    54   30   51 1
@<TRIPOS>MOLECULE
ZINC29135486
   75    77     0     0     0
SMALL
USER_CHARGES
2-(isopropylcarbamoylamino)-N-[2-[[(1S,2R)-2-[(4-methylsulfanylbenzoyl)amino]cyclohexyl]amino]-2-oxo-ethyl]-5-(trifluoromethyl)benzamide
@<TRIPOS>ATOM
      1 C1          4.0529   -2.8708    3.1967 C.3       1 <0>        -0.1661
      2 C2          4.5640   -2.7067    1.7639 C.3       1 <0>         0.1565
      3 C3          4.8775   -4.0830    1.1735 C.3       1 <0>        -0.1612
      4 N1          3.5373   -2.0492    0.9516 N.am      1 <0>        -0.7452
      5 C4          3.4489   -0.7045    0.9365 C.2       1 <0>         0.7061
      6 O1          4.2210   -0.0370    1.5972 O.2       1 <0>        -0.5789
      7 N2          2.5044   -0.0996    0.1892 N.am      1 <0>        -0.6887
      8 C5          2.4820    1.2892    0.0857 C.ar      1 <0>         0.2780
      9 C6          3.6704    2.0072    0.0729 C.ar      1 <0>        -0.1370
     10 C7          3.6459    3.3833   -0.0293 C.ar      1 <0>        -0.0207
     11 C8          2.4392    4.0585   -0.1202 C.ar      1 <0>        -0.2152
     12 C9          1.2502    3.3622   -0.1144 C.ar      1 <0>        -0.0090
     13 C10         1.2587    1.9695   -0.0057 C.ar      1 <0>        -0.1824
     14 C11        -0.0108    1.2185    0.0069 C.2       1 <0>         0.5809
     15 O2          0.0021    0.0026    0.0059 O.2       1 <0>        -0.5481
     16 N3         -1.1850    1.8800    0.0139 N.am      1 <0>        -0.7236
     17 C12        -2.4459    1.1340    0.0202 C.3       1 <0>         0.1015
     18 C13        -3.6016    2.1011    0.0273 C.2       1 <0>         0.5122
     19 O3         -3.3927    3.2958    0.0271 O.2       1 <0>        -0.5334
     20 N4         -4.8675    1.6384    0.0339 N.am      1 <0>        -0.7336
     21 C14        -5.9910    2.5785    0.0408 C.3       1 <0>         0.1466
     22 H1         -5.6838    3.4465    0.6427 H         1 <0>         0.0974
     23 C15        -6.3093    3.0033   -1.3941 C.3       1 <0>        -0.1286
     24 C16        -6.6810    1.7704   -2.2204 C.3       1 <0>        -0.1193
     25 C17        -7.9078    1.0946   -1.6045 C.3       1 <0>        -0.1200
     26 C18        -7.5894    0.6698   -0.1696 C.3       1 <0>        -0.1271
     27 C19        -7.2177    1.9027    0.6567 C.3       1 <0>         0.1444
     28 H2         -8.0628    2.6050    0.7064 H         1 <0>         0.1048
     29 N5         -6.9129    1.4960    2.0307 N.am      1 <0>        -0.7369
     30 C20        -7.9084    1.3544    2.9282 C.2       1 <0>         0.5644
     31 O4         -9.0596    1.5642    2.5974 O.2       1 <0>        -0.5347
     32 C21        -7.6015    0.9449    4.3113 C.ar      1 <0>        -0.1443
     33 C22        -6.2787    0.6977    4.6916 C.ar      1 <0>        -0.0629
     34 C23        -5.9959    0.3228    5.9796 C.ar      1 <0>        -0.1433
     35 C24        -7.0259    0.1764    6.9060 C.ar      1 <0>        -0.0579
     36 C25        -8.3451    0.4169    6.5286 C.ar      1 <0>        -0.1078
     37 C26        -8.6333    0.7976    5.2436 C.ar      1 <0>        -0.0372
     38 S1         -6.6593   -0.3133    8.5584 S.3       1 <0>        -0.1022
     39 C27        -4.8554   -0.5041    8.5696 C.3       1 <0>        -0.1513
     40 C28         2.4275    5.5613   -0.2313 C.3       1 <0>         0.5119
     41 F1          3.7421    6.0399   -0.2217 F         1 <0>        -0.1753
     42 F2          1.8037    5.9358   -1.4262 F         1 <0>        -0.1755
     43 F3          1.7260    6.1035    0.8509 F         1 <0>        -0.1752
     44 H3          3.8275   -1.8813    3.6212 H         1 <0>         0.0602
     45 H4          4.8237   -3.3645    3.8067 H         1 <0>         0.0669
     46 H5          3.1400   -3.4845    3.1923 H         1 <0>         0.0569
     47 H6          5.4560   -2.0634    1.7420 H         1 <0>         0.0890
     48 H7          5.2449   -3.9650    0.1434 H         1 <0>         0.0627
     49 H8          3.9646   -4.6967    1.1692 H         1 <0>         0.0627
     50 H9          5.6483   -4.5767    1.7835 H         1 <0>         0.0753
     51 H10         2.8386   -2.6531    0.3540 H         1 <0>         0.4171
     52 H11         1.7512   -0.7027   -0.3390 H         1 <0>         0.4479
     53 H12         4.6149    1.4882    0.1433 H         1 <0>         0.1537
     54 H13         4.5729    3.9373   -0.0388 H         1 <0>         0.1475
     55 H14         0.3126    3.8929   -0.1897 H         1 <0>         0.1398
     56 H15        -1.1967    2.9799    0.0149 H         1 <0>         0.4368
     57 H16        -2.5023    0.5017   -0.8782 H         1 <0>         0.1023
     58 H17        -2.4925    0.5003    0.9181 H         1 <0>         0.1005
     59 H18        -5.0570    0.5548    0.0341 H         1 <0>         0.4225
     60 H19        -7.1529    3.7092   -1.3889 H         1 <0>         0.0775
     61 H20        -5.4273    3.4892   -1.8369 H         1 <0>         0.0747
     62 H21        -6.9098    2.0758   -3.2521 H         1 <0>         0.0670
     63 H22        -5.8374    1.0645   -2.2256 H         1 <0>         0.0628
     64 H23        -8.7514    1.8006   -1.5993 H         1 <0>         0.0685
     65 H24        -8.1751    0.2083   -2.1986 H         1 <0>         0.0689
     66 H25        -8.4713    0.1839    0.2732 H         1 <0>         0.0755
     67 H26        -6.7458   -0.0361   -0.1748 H         1 <0>         0.0621
     68 H27        -5.8715    1.3062    2.3299 H         1 <0>         0.4151
     69 H28        -5.4803    0.8060    3.9724 H         1 <0>         0.1256
     70 H29        -4.9740    0.1365    6.2751 H         1 <0>         0.1298
     71 H30        -9.1416    0.3029    7.2490 H         1 <0>         0.1369
     72 H31        -9.6563    0.9832    4.9514 H         1 <0>         0.1427
     73 H32        -4.5256   -0.8125    9.5726 H         1 <0>         0.1144
     74 H33        -4.3837    0.4543    8.3071 H         1 <0>         0.0874
     75 H34        -4.5631   -1.2698    7.8359 H         1 <0>         0.0872
@<TRIPOS>BOND
     1    1    2 1
     2    1   44 1
     3    1   45 1
     4    1   46 1
     5    2    3 1
     6    2    4 1
     7    2   47 1
     8    3   48 1
     9    3   49 1
    10    3   50 1
    11    4    5 am
    12    4   51 1
    13    5    6 2
    14    5    7 am
    15    7    8 1
    16    7   52 1
    17    8   13 ar
    18    8    9 ar
    19    9   10 ar
    20    9   53 1
    21   10   11 ar
    22   10   54 1
    23   11   12 ar
    24   11   40 1
    25   12   13 ar
    26   12   55 1
    27   13   14 1
    28   14   15 2
    29   14   16 am
    30   16   17 1
    31   16   56 1
    32   17   18 1
    33   17   57 1
    34   17   58 1
    35   18   19 2
    36   18   20 am
    37   20   21 1
    38   20   59 1
    39   21   22 1
    40   21   27 1
    41   21   23 1
    42   23   24 1
    43   23   60 1
    44   23   61 1
    45   24   25 1
    46   24   62 1
    47   24   63 1
    48   25   26 1
    49   25   64 1
    50   25   65 1
    51   26   27 1
    52   26   66 1
    53   26   67 1
    54   27   28 1
    55   27   29 1
    56   29   30 am
    57   29   68 1
    58   30   31 2
    59   30   32 1
    60   32   37 ar
    61   32   33 ar
    62   33   34 ar
    63   33   69 1
    64   34   35 ar
    65   34   70 1
    66   35   36 ar
    67   35   38 1
    68   36   37 ar
    69   36   71 1
    70   37   72 1
    71   38   39 1
    72   39   73 1
    73   39   74 1
    74   39   75 1
    75   40   41 1
    76   40   42 1
    77   40   43 1
@<TRIPOS>MOLECULE
ZINC01604208
   31    33     0     0     0
SMALL
USER_CHARGES
1-benzylindole-2-carboxylic acid
@<TRIPOS>ATOM
      1 C1         -3.4165   -1.4235    4.0384 C.ar      1 <0>        -0.1208
      2 C2         -4.4858   -0.8290    3.3948 C.ar      1 <0>        -0.1332
      3 C3         -4.3485   -0.3840    2.0933 C.ar      1 <0>        -0.0883
      4 C4         -3.1420   -0.5335    1.4353 C.ar      1 <0>        -0.1027
      5 C5         -2.0743   -1.1327    2.0771 C.ar      1 <0>        -0.1079
      6 C6         -2.2100   -1.5730    3.3804 C.ar      1 <0>        -0.1381
      7 C7         -2.9925   -0.0487    0.0163 C.3       1 <0>         0.1469
      8 N1         -2.5375    1.3438    0.0213 N.pl3     1 <0>        -0.4453
      9 C8         -1.2266    1.7575    0.0174 C.ar      1 <0>         0.0878
     10 C9         -0.0126    1.0758    0.0080 C.ar      1 <0>        -0.1237
     11 C10         1.1690    1.7823    0.0005 C.ar      1 <0>        -0.1151
     12 C11         1.1637    3.1717    0.0080 C.ar      1 <0>        -0.1588
     13 C12        -0.0130    3.8620    0.0226 C.ar      1 <0>        -0.0731
     14 C13        -1.2292    3.1661    0.0304 C.ar      1 <0>        -0.1074
     15 C14        -2.5837    3.5767    0.0448 C.2       1 <0>        -0.1843
     16 C15        -3.3555    2.4575    0.0313 C.2       1 <0>         0.0653
     17 C16        -4.8243    2.4356    0.0376 C.2       1 <0>         0.5149
     18 O1         -5.4478    3.4792    0.0463 O.co2     1 <0>        -0.6095
     19 H1         -3.5238   -1.7716    5.0551 H         1 <0>         0.1144
     20 H2         -5.4285   -0.7126    3.9088 H         1 <0>         0.1183
     21 H3         -5.1840    0.0801    1.5904 H         1 <0>         0.1689
     22 H4         -1.1331   -1.2534    1.5616 H         1 <0>         0.1133
     23 H5         -1.3747   -2.0378    3.8831 H         1 <0>         0.1150
     24 H6         -3.9537   -0.1150   -0.4935 H         1 <0>         0.1302
     25 H7         -2.2618   -0.6678   -0.5041 H         1 <0>         0.0758
     26 H8          0.0021   -0.0041    0.0020 H         1 <0>         0.1109
     27 H9          2.1094    1.2512   -0.0118 H         1 <0>         0.1159
     28 H10         2.0999    3.7102    0.0020 H         1 <0>         0.1132
     29 H11        -0.0071    4.9419    0.0283 H         1 <0>         0.1157
     30 H12        -2.9402    4.5962    0.0537 H         1 <0>         0.1435
     31 O2         -5.4810    1.2578    0.0338 O.co2     1 <0>        -0.7416
@<TRIPOS>BOND
     1    1    6 ar
     2    1    2 ar
     3    1   19 1
     4    2    3 ar
     5    2   20 1
     6    3    4 ar
     7    3   21 1
     8    4    5 ar
     9    4    7 1
    10    5    6 ar
    11    5   22 1
    12    6   23 1
    13    7    8 1
    14    7   24 1
    15    7   25 1
    16    8   16 1
    17    8    9 1
    18    9   14 ar
    19    9   10 ar
    20   10   11 ar
    21   10   26 1
    22   11   12 ar
    23   11   27 1
    24   12   13 ar
    25   12   28 1
    26   13   14 ar
    27   13   29 1
    28   14   15 1
    29   15   16 2
    30   15   30 1
    31   16   17 1
    32   17   18 2
    33   17   31 1
@<TRIPOS>MOLECULE
ZINC01996578
   76    80     0     0     0
SMALL
USER_CHARGES
dimethyl-[[4-[[9-(p-tolyl)-5-bicyclo[5.4.0]undeca-5,8,10,12-tetraenyl]carbonylamino]phenyl]methyl]-tetrahydropyran-4-yl-ammonium
@<TRIPOS>ATOM
      1 C1          6.4836   -6.4661   -4.3611 C.3       1 <0>        -0.1194
      2 C2          5.8061   -5.2045   -3.8916 C.ar      1 <0>        -0.0790
      3 C3          6.3546   -3.9724   -4.1990 C.ar      1 <0>        -0.1172
      4 C4          5.7383   -2.8138   -3.7716 C.ar      1 <0>        -0.1035
      5 C5          4.5615   -2.8868   -3.0293 C.ar      1 <0>        -0.0574
      6 C6          4.0162   -4.1307   -2.7181 C.ar      1 <0>        -0.1062
      7 C7          4.6382   -5.2828   -3.1546 C.ar      1 <0>        -0.1182
      8 C8          3.8945   -1.6444   -2.5666 C.ar      1 <0>        -0.0471
      9 C9          4.4409   -0.3972   -2.8709 C.ar      1 <0>        -0.0844
     10 C10         3.8075    0.7431   -2.4368 C.ar      1 <0>        -0.1270
     11 C11         2.6276    0.6905   -1.6962 C.ar      1 <0>        -0.0396
     12 C12         2.0747   -0.5430   -1.3776 C.ar      1 <0>        -0.0666
     13 C13         2.7270   -1.7129   -1.8300 C.ar      1 <0>        -0.0846
     14 C14         0.8638   -0.7697   -0.6124 C.2       1 <0>        -0.0032
     15 C15         0.0064   -0.0038    0.0081 C.2       1 <0>        -0.1771
     16 C16        -0.0071    1.4805    0.0257 C.3       1 <0>        -0.0807
     17 C17         1.3803    2.0683    0.0239 C.3       1 <0>        -0.1143
     18 C18         2.0512    2.0152   -1.3111 C.3       1 <0>        -0.0878
     19 C19        -1.0496   -0.6789    0.7644 C.2       1 <0>         0.5576
     20 O1         -1.0963   -1.8948    0.7916 O.2       1 <0>        -0.5177
     21 N1         -1.9701    0.0460    1.4305 N.am      1 <0>        -0.6753
     22 C20        -3.0334   -0.5952    2.0733 C.ar      1 <0>         0.1886
     23 C21        -4.2832    0.0088    2.1222 C.ar      1 <0>        -0.1446
     24 C22        -5.3325   -0.6292    2.7541 C.ar      1 <0>        -0.0728
     25 C23        -5.1374   -1.8636    3.3462 C.ar      1 <0>        -0.1760
     26 C24        -3.8930   -2.4653    3.3039 C.ar      1 <0>        -0.0736
     27 C25        -2.8407   -1.8349    2.6694 C.ar      1 <0>        -0.1211
     28 C26        -6.2834   -2.5544    4.0394 C.3       1 <0>         0.0440
     29 N2         -6.3135   -2.1545    5.4526 N.4       1 <0>        -0.2613
     30 C27        -5.0496   -2.5365    6.0967 C.3       1 <0>        -0.0542
     31 C28        -6.4903   -0.6992    5.5461 C.3       1 <0>        -0.0594
     32 C29        -7.4305   -2.8279    6.1284 C.3       1 <0>         0.0257
     33 C30        -8.7503   -2.4220    5.4652 C.3       1 <0>        -0.1808
     34 C31        -9.9132   -3.0658    6.2247 C.3       1 <0>         0.0628
     35 O2         -9.8671   -2.6623    7.5948 O.3       1 <0>        -0.3685
     36 C32        -8.6761   -3.0562    8.2793 C.3       1 <0>         0.0627
     37 C33        -7.4634   -2.4120    7.6023 C.3       1 <0>        -0.1796
     38 H1          7.1963   -6.7982   -3.6062 H         1 <0>         0.0734
     39 H2          5.7354   -7.2424   -4.5210 H         1 <0>         0.0681
     40 H3          7.0093   -6.2700   -5.2956 H         1 <0>         0.0690
     41 H4          7.2667   -3.9170   -4.7747 H         1 <0>         0.1265
     42 H5          6.1676   -1.8523   -4.0118 H         1 <0>         0.1262
     43 H6          3.1064   -4.1930   -2.1395 H         1 <0>         0.1237
     44 H7          4.2144   -6.2473   -2.9172 H         1 <0>         0.1251
     45 H8          5.3545   -0.3281   -3.4428 H         1 <0>         0.1325
     46 H9          4.2354    1.7054   -2.6760 H         1 <0>         0.1293
     47 H10         2.3049   -2.6789   -1.5951 H         1 <0>         0.1284
     48 H11         0.6116   -1.8172   -0.5384 H         1 <0>         0.1196
     49 H12        -0.5433    1.8389   -0.8530 H         1 <0>         0.0845
     50 H13        -0.5322    1.8180    0.9192 H         1 <0>         0.0677
     51 H14         1.3184    3.1091    0.3418 H         1 <0>         0.0786
     52 H15         1.9911    1.5227    0.7431 H         1 <0>         0.0673
     53 H16         2.8547    2.7516   -1.3182 H         1 <0>         0.0826
     54 H17         1.3215    2.3025   -2.0682 H         1 <0>         0.0808
     55 H18        -1.8948    1.0125    1.4640 H         1 <0>         0.4182
     56 H19        -4.4353    0.9746    1.6633 H         1 <0>         0.1390
     57 H20        -6.3055   -0.1618    2.7892 H         1 <0>         0.1343
     58 H21        -3.7440   -3.4294    3.7673 H         1 <0>         0.1334
     59 H22        -1.8690   -2.3052    2.6370 H         1 <0>         0.1514
     60 H23        -7.2211   -2.2709    3.5616 H         1 <0>         0.1337
     61 H24        -6.1521   -3.6342    3.9701 H         1 <0>         0.1325
     62 H25        -4.2208   -2.0368    5.5952 H         1 <0>         0.1256
     63 H26        -5.0719   -2.2398    7.1452 H         1 <0>         0.1221
     64 H27        -4.9184   -3.6163    6.0273 H         1 <0>         0.1207
     65 H28        -7.4281   -0.4157    5.0682 H         1 <0>         0.1224
     66 H29        -6.5126   -0.4024    6.5947 H         1 <0>         0.1228
     67 H30        -5.6614   -0.1995    5.0446 H         1 <0>         0.1253
     68 H31        -7.3021   -3.9079    6.0571 H         1 <0>         0.1361
     69 H32        -8.8533   -1.3372    5.4927 H         1 <0>         0.0980
     70 H33        -8.7578   -2.7634    4.4301 H         1 <0>         0.0994
     71 H34        -9.8317   -4.1509    6.1624 H         1 <0>         0.0652
     72 H35       -10.8571   -2.7460    5.7832 H         1 <0>         0.1157
     73 H36        -8.5784   -4.1412    8.2438 H         1 <0>         0.0650
     74 H37        -8.7286   -2.7296    9.3179 H         1 <0>         0.1156
     75 H38        -6.5507   -2.7462    8.0955 H         1 <0>         0.0999
     76 H39        -7.5404   -1.3270    7.6730 H         1 <0>         0.0975
@<TRIPOS>BOND
     1    1    2 1
     2    1   38 1
     3    1   39 1
     4    1   40 1
     5    2    7 ar
     6    2    3 ar
     7    3    4 ar
     8    3   41 1
     9    4    5 ar
    10    4   42 1
    11    5    6 ar
    12    5    8 1
    13    6    7 ar
    14    6   43 1
    15    7   44 1
    16    8   13 ar
    17    8    9 ar
    18    9   10 ar
    19    9   45 1
    20   10   11 ar
    21   10   46 1
    22   11   18 1
    23   11   12 ar
    24   12   13 ar
    25   12   14 1
    26   13   47 1
    27   14   15 2
    28   14   48 1
    29   15   16 1
    30   15   19 1
    31   16   17 1
    32   16   49 1
    33   16   50 1
    34   17   18 1
    35   17   51 1
    36   17   52 1
    37   18   53 1
    38   18   54 1
    39   19   20 2
    40   19   21 am
    41   21   22 1
    42   21   55 1
    43   22   27 ar
    44   22   23 ar
    45   23   24 ar
    46   23   56 1
    47   24   25 ar
    48   24   57 1
    49   25   26 ar
    50   25   28 1
    51   26   27 ar
    52   26   58 1
    53   27   59 1
    54   28   29 1
    55   28   60 1
    56   28   61 1
    57   29   30 1
    58   29   31 1
    59   29   32 1
    60   30   62 1
    61   30   63 1
    62   30   64 1
    63   31   65 1
    64   31   66 1
    65   31   67 1
    66   32   37 1
    67   32   33 1
    68   32   68 1
    69   33   34 1
    70   33   69 1
    71   33   70 1
    72   34   35 1
    73   34   71 1
    74   34   72 1
    75   35   36 1
    76   36   37 1
    77   36   73 1
    78   36   74 1
    79   37   75 1
    80   37   76 1
