@<TRIPOS>MOLECULE
ZINC03817234
   79    83     0     0     0
SMALL
USER_CHARGES

@<TRIPOS>ATOM
      1 C1          0.2988   -3.3187    1.4451 C.3       1 <0>        -0.0736
      2 C2          0.1387   -2.0700    0.6168 C.2       1 <0>         0.1823
      3 N1          0.1712   -1.9964   -0.6859 N.2       1 <0>        -0.2794
      4 N2         -0.0007   -0.7766   -1.0551 N.2       1 <0>        -0.2708
      5 C3         -0.1508   -0.0166   -0.0046 C.2       1 <0>         0.1741
      6 N3         -0.0717   -0.8165    1.0862 N.pl3     1 <0>        -0.4770
      7 C4         -0.1871   -0.4084    2.4885 C.3       1 <0>         0.1282
      8 C5         -1.5587    0.2314    2.7216 C.3       1 <0>        -0.1633
      9 C6         -1.6116    0.7876    4.1535 C.3       1 <0>         0.0418
     10 H1         -2.6090    1.1352    4.4224 H         1 <0>         0.1601
     11 C7         -1.0997   -0.3154    5.1084 C.3       1 <0>        -0.1449
     12 C8          0.4273   -0.1040    5.1739 C.3       1 <0>        -0.1448
     13 C9          0.6992    1.1076    4.2527 C.3       1 <0>         0.0446
     14 H2          1.5318    1.7156    4.6066 H         1 <0>         0.1603
     15 C10         0.9167    0.6008    2.8177 C.3       1 <0>        -0.1649
     16 N4         -0.5952    1.8695    4.2439 N.4       1 <0>        -0.4019
     17 C11        -0.7568    2.6282    5.4914 C.3       1 <0>        -0.0077
     18 C12         0.2170    3.8082    5.5005 C.3       1 <0>        -0.1514
     19 C13         0.0487    4.5984    6.7998 C.3       1 <0>         0.1999
     20 H3          0.1698    3.9283    7.6509 H         1 <0>         0.1072
     21 C14         1.0897    5.6861    6.8646 C.ar      1 <0>        -0.1152
     22 C15         0.9009    6.8659    6.1694 C.ar      1 <0>        -0.1039
     23 C16         1.8557    7.8636    6.2289 C.ar      1 <0>        -0.1177
     24 C17         2.9993    7.6818    6.9840 C.ar      1 <0>        -0.1065
     25 C18         3.1877    6.5024    7.6800 C.ar      1 <0>        -0.1149
     26 C19         2.2308    5.5064    7.6239 C.ar      1 <0>        -0.1010
     27 N5         -1.2874    5.1983    6.8369 N.am      1 <0>        -0.7370
     28 C20        -1.8594    5.4968    8.0201 C.2       1 <0>         0.5240
     29 O1         -1.2681    5.2688    9.0542 O.2       1 <0>        -0.5121
     30 C21        -3.2337    6.1139    8.0583 C.3       1 <0>        -0.1095
     31 C22        -3.2147    7.4482    7.3098 C.3       1 <0>        -0.1099
     32 C23        -4.6100    8.0747    7.3486 C.3       1 <0>        -0.1580
     33 C24        -5.0225    8.3114    8.8028 C.3       1 <0>         0.2861
     34 C25        -5.0416    6.9771    9.5512 C.3       1 <0>        -0.1604
     35 C26        -3.6463    6.3506    9.5125 C.3       1 <0>        -0.1016
     36 F1         -4.1064    9.1752    9.4127 F         1 <0>        -0.1961
     37 F2         -6.2984    8.8843    8.8382 F         1 <0>        -0.1979
     38 C27        -0.3760    1.4734   -0.0051 C.3       1 <0>        -0.0017
     39 C28         0.8057    2.1676   -0.6853 C.3       1 <0>        -0.1511
     40 C29        -1.6634    1.7944   -0.7670 C.3       1 <0>        -0.1510
     41 H4         -0.6841   -3.7245    1.6844 H         1 <0>         0.0897
     42 H5          0.8697   -4.0573    0.8824 H         1 <0>         0.1044
     43 H6          0.8267   -3.0775    2.3678 H         1 <0>         0.0759
     44 H7         -0.0820   -1.2830    3.1304 H         1 <0>         0.1275
     45 H8         -1.7091    1.0425    2.0091 H         1 <0>         0.1024
     46 H9         -2.3384   -0.5193    2.5926 H         1 <0>         0.1250
     47 H10        -1.5419   -0.1961    6.0975 H         1 <0>         0.1074
     48 H11        -1.3291   -1.3020    4.7059 H         1 <0>         0.1149
     49 H12         0.7359    0.1192    6.1952 H         1 <0>         0.1084
     50 H13         0.9486   -0.9866    4.8035 H         1 <0>         0.1153
     51 H14         1.8888    0.1114    2.7568 H         1 <0>         0.1244
     52 H15         0.8776    1.4285    2.1096 H         1 <0>         0.1051
     53 H16        -1.7791    3.0002    5.5605 H         1 <0>         0.1319
     54 H17        -0.5484    1.9785    6.3414 H         1 <0>         0.1356
     55 H18         1.2393    3.4362    5.4313 H         1 <0>         0.1047
     56 H19         0.0086    4.4579    4.6505 H         1 <0>         0.0959
     57 H20         0.0075    7.0080    5.5794 H         1 <0>         0.1166
     58 H21         1.7085    8.7851    5.6852 H         1 <0>         0.1255
     59 H22         3.7456    8.4611    7.0300 H         1 <0>         0.1270
     60 H23         4.0812    6.3602    8.2697 H         1 <0>         0.1274
     61 H24         2.3762    4.5864    8.1707 H         1 <0>         0.1223
     62 H25        -1.7603    5.3806    6.0098 H         1 <0>         0.3992
     63 H26        -3.9475    5.4409    7.5831 H         1 <0>         0.1036
     64 H27        -2.5009    8.1211    7.7850 H         1 <0>         0.0831
     65 H28        -2.9207    7.2795    6.2739 H         1 <0>         0.0790
     66 H29        -4.5964    9.0253    6.8154 H         1 <0>         0.0954
     67 H30        -5.3237    7.4017    6.8734 H         1 <0>         0.0977
     68 H31        -5.3355    7.1458   10.5872 H         1 <0>         0.0963
     69 H32        -5.7554    6.3042    9.0760 H         1 <0>         0.0962
     70 H33        -3.6599    5.4000   10.0456 H         1 <0>         0.0870
     71 H34        -2.9325    7.0236    9.9876 H         1 <0>         0.0841
     72 H35        -0.4636    1.8280    1.0219 H         1 <0>         0.0681
     73 H36         0.8932    1.8131   -1.7123 H         1 <0>         0.0790
     74 H37         0.6428    3.2454   -0.6856 H         1 <0>         0.0731
     75 H38         1.7228    1.9389   -0.1425 H         1 <0>         0.0560
     76 H39        -1.5759    1.4398   -1.7940 H         1 <0>         0.0791
     77 H40        -2.5053    1.2998   -0.2824 H         1 <0>         0.0557
     78 H41        -1.8263    2.8721   -0.7673 H         1 <0>         0.0731
     79 H42        -0.6553    2.4812    3.4437 H         1 <0>         0.4240
@<TRIPOS>BOND
     1    1    2 1
     2    1   41 1
     3    1   42 1
     4    1   43 1
     5    2    6 1
     6    2    3 2
     7    3    4 1
     8    4    5 2
     9    5    6 1
    10    5   38 1
    11    6    7 1
    12    7   15 1
    13    7    8 1
    14    7   44 1
    15    8    9 1
    16    8   45 1
    17    8   46 1
    18    9   10 1
    19    9   16 1
    20    9   11 1
    21   11   12 1
    22   11   47 1
    23   11   48 1
    24   12   13 1
    25   12   49 1
    26   12   50 1
    27   13   14 1
    28   13   15 1
    29   13   16 1
    30   15   51 1
    31   15   52 1
    32   16   17 1
    33   16   79 1
    34   17   18 1
    35   17   53 1
    36   17   54 1
    37   18   19 1
    38   18   55 1
    39   18   56 1
    40   19   20 1
    41   19   21 1
    42   19   27 1
    43   21   26 ar
    44   21   22 ar
    45   22   23 ar
    46   22   57 1
    47   23   24 ar
    48   23   58 1
    49   24   25 ar
    50   24   59 1
    51   25   26 ar
    52   25   60 1
    53   26   61 1
    54   27   28 am
    55   27   62 1
    56   28   29 2
    57   28   30 1
    58   30   35 1
    59   30   31 1
    60   30   63 1
    61   31   32 1
    62   31   64 1
    63   31   65 1
    64   32   33 1
    65   32   66 1
    66   32   67 1
    67   33   34 1
    68   33   36 1
    69   33   37 1
    70   34   35 1
    71   34   68 1
    72   34   69 1
    73   35   70 1
    74   35   71 1
    75   38   39 1
    76   38   40 1
    77   38   72 1
    78   39   73 1
    79   39   74 1
    80   39   75 1
    81   40   76 1
    82   40   77 1
    83   40   78 1
@<TRIPOS>MOLECULE
ZINC13613346
   70    73     0     0     0
SMALL
USER_CHARGES
1-(5-acetyl-4-methyl-thiazol-2-yl)-3-[(1R,2S)-2-[[(3S)-3-[(4-fluorophenyl)methyl]-1-piperidyl]methyl]cyclohexyl]urea
@<TRIPOS>ATOM
      1 C1         -5.6728    3.5355   10.4423 C.3       1 <0>        -0.0985
      2 C2         -4.6582    2.4944   10.0451 C.2       1 <0>         0.1933
      3 C3         -3.7716    1.9589   10.9773 C.2       1 <0>        -0.3113
      4 S1         -2.8609    0.8186    9.9455 S.3       1 <0>         0.1442
      5 C4         -3.6901    1.1481    8.4559 C.2       1 <0>         0.3169
      6 N1         -4.5788    2.0630    8.8160 N.2       1 <0>        -0.5137
      7 N2         -3.4800    0.5913    7.2086 N.am      1 <0>        -0.6248
      8 C5         -4.2380    0.9759    6.1626 C.2       1 <0>         0.6890
      9 O1         -5.1064    1.8126    6.3164 O.2       1 <0>        -0.4745
     10 N3         -4.0331    0.4330    4.9462 N.am      1 <0>        -0.7457
     11 C6         -4.8570    0.8510    3.8092 C.3       1 <0>         0.1464
     12 H1         -5.0943    1.9108    3.9027 H         1 <0>         0.1167
     13 C7         -6.1528    0.0378    3.7921 C.3       1 <0>        -0.1315
     14 C8         -7.0133    0.4744    2.6047 C.3       1 <0>        -0.1229
     15 C9         -6.2447    0.2367    1.3032 C.3       1 <0>        -0.1247
     16 C10        -4.9489    1.0500    1.3204 C.3       1 <0>        -0.1077
     17 C11        -4.0884    0.6134    2.5078 C.3       1 <0>        -0.1184
     18 H2         -3.8511   -0.4464    2.4143 H         1 <0>         0.1014
     19 C12        -2.7926    1.4266    2.5249 C.3       1 <0>        -0.0042
     20 C13        -1.3448   -0.3944    3.1945 C.3       1 <0>        -0.0167
     21 C14        -0.5437   -0.9679    4.3656 C.3       1 <0>        -0.1472
     22 C15         0.5823    0.0038    4.7329 C.3       1 <0>        -0.1376
     23 C16        -0.0241    1.3672    5.0765 C.3       1 <0>        -0.1063
     24 H3         -0.6734    1.2679    5.9463 H         1 <0>         0.0863
     25 C17        -0.8401    1.8730    3.8848 C.3       1 <0>        -0.0032
     26 C18         1.0969    2.3613    5.3868 C.3       1 <0>        -0.0692
     27 C19         1.8243    1.9254    6.6325 C.ar      1 <0>        -0.1091
     28 C20         1.4045    2.3751    7.8705 C.ar      1 <0>        -0.0849
     29 C21         2.0679    1.9722    9.0140 C.ar      1 <0>        -0.1488
     30 C22         3.1598    1.1261    8.9185 C.ar      1 <0>         0.1092
     31 C23         3.5825    0.6806    7.6776 C.ar      1 <0>        -0.1504
     32 C24         2.9144    1.0806    6.5359 C.ar      1 <0>        -0.0842
     33 F1          3.8119    0.7354   10.0353 F         1 <0>        -0.1325
     34 C25        -3.6351    2.2352   12.3519 C.2       1 <0>         0.4350
     35 O2         -4.3618    3.0514   12.8826 O.2       1 <0>        -0.4405
     36 C26        -2.5875    1.5183   13.1641 C.3       1 <0>        -0.1890
     37 H4         -6.5941    3.0442   10.7553 H         1 <0>         0.0902
     38 H5         -5.2797    4.1299   11.2671 H         1 <0>         0.1003
     39 H6         -5.8785    4.1855    9.5918 H         1 <0>         0.0817
     40 H7         -2.7871   -0.0763    7.0859 H         1 <0>         0.4219
     41 H8         -3.3401   -0.2346    4.8235 H         1 <0>         0.3858
     42 H9         -6.7004    0.2071    4.7192 H         1 <0>         0.0818
     43 H10        -5.9155   -1.0220    3.6986 H         1 <0>         0.0717
     44 H11        -7.2506    1.5341    2.6981 H         1 <0>         0.0725
     45 H12        -7.9365   -0.1050    2.5924 H         1 <0>         0.0786
     46 H13        -6.8577    0.5478    0.4573 H         1 <0>         0.0807
     47 H14        -6.0074   -0.8230    1.2097 H         1 <0>         0.0694
     48 H15        -5.1862    2.1097    1.4138 H         1 <0>         0.0813
     49 H16        -4.4013    0.8806    0.3932 H         1 <0>         0.0849
     50 H17        -3.0228    2.4727    2.7269 H         1 <0>         0.1320
     51 H18        -2.2987    1.3436    1.5568 H         1 <0>         0.1388
     52 H19        -2.1556   -1.0770    2.9402 H         1 <0>         0.1264
     53 H20        -0.6897   -0.2715    2.3320 H         1 <0>         0.1378
     54 H21        -1.2013   -1.1039    5.2242 H         1 <0>         0.0746
     55 H22        -0.1160   -1.9284    4.0782 H         1 <0>         0.1198
     56 H23         1.2618    0.1101    3.8873 H         1 <0>         0.0892
     57 H24         1.1288   -0.3794    5.5946 H         1 <0>         0.1011
     58 H25        -1.2845    2.8372    4.1319 H         1 <0>         0.1269
     59 H26        -0.1875    1.9851    3.0190 H         1 <0>         0.1349
     60 H27         1.7955    2.3937    4.5507 H         1 <0>         0.0889
     61 H28         0.6708    3.3523    5.5428 H         1 <0>         0.0863
     62 H29         0.5554    3.0383    7.9444 H         1 <0>         0.1302
     63 H30         1.7372    2.3204    9.9814 H         1 <0>         0.1395
     64 H31         4.4339    0.0203    7.6019 H         1 <0>         0.1399
     65 H32         3.2442    0.7335    5.5679 H         1 <0>         0.1333
     66 H33        -1.7354    2.0413   13.1451 H         1 <0>         0.0904
     67 H34        -2.9307    1.4200   14.1940 H         1 <0>         0.0983
     68 H35        -2.4155    0.5280   12.7424 H         1 <0>         0.0792
     69 N4         -1.9210    0.9057    3.5983 N.4       1 <0>        -0.4126
     70 H36        -2.4820    0.7719    4.4478 H         1 <0>         0.4031
@<TRIPOS>BOND
     1    1    2 1
     2    1   37 1
     3    1   38 1
     4    1   39 1
     5    2    6 1
     6    2    3 2
     7    3    4 1
     8    3   34 1
     9    4    5 1
    10    5    6 2
    11    5    7 1
    12    7    8 am
    13    7   40 1
    14    8    9 2
    15    8   10 am
    16   10   11 1
    17   10   41 1
    18   11   12 1
    19   11   17 1
    20   11   13 1
    21   13   14 1
    22   13   42 1
    23   13   43 1
    24   14   15 1
    25   14   44 1
    26   14   45 1
    27   15   16 1
    28   15   46 1
    29   15   47 1
    30   16   17 1
    31   16   48 1
    32   16   49 1
    33   17   18 1
    34   17   19 1
    35   19   50 1
    36   19   51 1
    37   19   69 1
    38   20   21 1
    39   20   52 1
    40   20   53 1
    41   20   69 1
    42   21   22 1
    43   21   54 1
    44   21   55 1
    45   22   23 1
    46   22   56 1
    47   22   57 1
    48   23   24 1
    49   23   25 1
    50   23   26 1
    51   25   58 1
    52   25   59 1
    53   25   69 1
    54   26   27 1
    55   26   60 1
    56   26   61 1
    57   27   32 ar
    58   27   28 ar
    59   28   29 ar
    60   28   62 1
    61   29   30 ar
    62   29   63 1
    63   30   31 ar
    64   30   33 1
    65   31   32 ar
    66   31   64 1
    67   32   65 1
    68   34   35 2
    69   34   36 1
    70   36   66 1
    71   36   67 1
    72   36   68 1
    73   69   70 1
@<TRIPOS>MOLECULE
ZINC09686362
   68    72     0     0     0
SMALL
USER_CHARGES
N-[[1-(p-tolylmethyl)pyrrolidin-3-yl]methyl]-1-[6-(2-thienyl)pyridazin-3-yl]-piperidine-4-carboxamide
@<TRIPOS>ATOM
      1 C1        -10.1971   -3.0115    7.2792 C.3       1 <0>        -0.1320
      2 C2         -9.4051   -1.9644    6.5393 C.ar      1 <0>        -0.0427
      3 C3         -8.8513   -0.9017    7.2283 C.ar      1 <0>        -0.1182
      4 C4         -8.1240    0.0583    6.5498 C.ar      1 <0>        -0.0873
      5 C5         -7.9501   -0.0448    5.1823 C.ar      1 <0>        -0.1730
      6 C6         -8.5083   -1.1047    4.4925 C.ar      1 <0>        -0.0871
      7 C7         -9.2319   -2.0670    5.1717 C.ar      1 <0>        -0.1191
      8 C8         -7.1571    1.0017    4.4426 C.3       1 <0>         0.0540
      9 C9         -5.5434   -0.5704    3.5342 C.3       1 <0>        -0.0064
     10 C10        -4.1461   -0.3620    2.8938 C.3       1 <0>        -0.1417
     11 C11        -4.1288    1.1743    2.6786 C.3       1 <0>        -0.1188
     12 H1         -4.6410    1.4397    1.7538 H         1 <0>         0.1148
     13 C12        -4.9006    1.7097    3.9029 C.3       1 <0>        -0.0056
     14 C13        -2.6931    1.7032    2.6705 C.3       1 <0>         0.1261
     15 N1         -2.0050    1.2296    1.4671 N.am      1 <0>        -0.7374
     16 C14        -0.7206    1.5731    1.2460 C.2       1 <0>         0.5241
     17 O1         -0.1346    2.2743    2.0433 O.2       1 <0>        -0.5216
     18 C15        -0.0127    1.0858    0.0080 C.3       1 <0>        -0.1105
     19 C16        -0.7462    1.5945   -1.2361 C.3       1 <0>        -0.1061
     20 C17         0.0117    1.1465   -2.4879 C.3       1 <0>         0.0573
     21 N2          1.3791    1.6807   -2.4512 N.pl3     1 <0>        -0.4671
     22 C18         2.1183    1.1685   -1.2904 C.3       1 <0>         0.0605
     23 C19         1.4233    1.6171   -0.0028 C.3       1 <0>        -0.1006
     24 C20         2.0547    1.4028   -3.6347 C.ar      1 <0>         0.2485
     25 C21         1.5167    1.8077   -4.8581 C.ar      1 <0>        -0.1229
     26 C22         2.2229    1.5104   -6.0085 C.ar      1 <0>        -0.0866
     27 C23         3.4358    0.8205   -5.8749 C.ar      1 <0>         0.1377
     28 N3          3.8683    0.4760   -4.6678 N.ar      1 <0>        -0.2040
     29 N4          3.2117    0.7586   -3.6017 N.ar      1 <0>        -0.2691
     30 C24         4.2300    0.4786   -7.0726 C.2       1 <0>        -0.1297
     31 C25         5.4262   -0.1835   -7.1548 C.2       1 <0>        -0.1030
     32 C26         5.9843   -0.3905   -8.3968 C.2       1 <0>        -0.1636
     33 C27         5.3348    0.0661   -9.4986 C.2       1 <0>        -0.1527
     34 S1          3.8766    0.8138   -8.7902 S.3       1 <0>         0.0711
     35 H2        -11.2469   -2.7196    7.3083 H         1 <0>         0.0839
     36 H3        -10.1003   -3.9691    6.7676 H         1 <0>         0.0759
     37 H4         -9.8170   -3.1030    8.2966 H         1 <0>         0.0761
     38 H5         -8.9865   -0.8215    8.2968 H         1 <0>         0.1356
     39 H6         -7.6913    0.8886    7.0881 H         1 <0>         0.1313
     40 H7         -8.3761   -1.1829    3.4235 H         1 <0>         0.1287
     41 H8         -9.6643   -2.8975    4.6334 H         1 <0>         0.1351
     42 H9         -7.2542    1.9596    4.9535 H         1 <0>         0.1355
     43 H10        -7.5363    1.0928    3.4247 H         1 <0>         0.1342
     44 H11        -5.5581   -1.4858    4.1257 H         1 <0>         0.1333
     45 H12        -6.3120   -0.6059    2.7622 H         1 <0>         0.1320
     46 H13        -4.0663   -0.8903    1.9437 H         1 <0>         0.1170
     47 H14        -3.3548   -0.6695    3.5774 H         1 <0>         0.1023
     48 H15        -4.1988    2.0220    4.6762 H         1 <0>         0.1350
     49 H16        -5.5258    2.5524    3.6076 H         1 <0>         0.1389
     50 H17        -2.1681    1.3426    3.5550 H         1 <0>         0.0779
     51 H18        -2.7074    2.7931    2.6757 H         1 <0>         0.0817
     52 H19        -2.4737    0.6687    0.8294 H         1 <0>         0.4020
     53 H20         0.0021   -0.0041    0.0020 H         1 <0>         0.1006
     54 H21        -1.7561    1.1848   -1.2561 H         1 <0>         0.0777
     55 H22        -0.7948    2.6831   -1.2102 H         1 <0>         0.0845
     56 H23        -0.5001    1.5192   -3.3752 H         1 <0>         0.0915
     57 H24         0.0480    0.0576   -2.5203 H         1 <0>         0.0535
     58 H25         3.1365    1.5571   -1.3079 H         1 <0>         0.0982
     59 H26         2.1447    0.0795   -1.3284 H         1 <0>         0.0563
     60 H27         1.4088    2.7061    0.0424 H         1 <0>         0.0838
     61 H28         1.9634    1.2237    0.8583 H         1 <0>         0.0842
     62 H29         0.5768    2.3377   -4.9040 H         1 <0>         0.1559
     63 H30         1.8519    1.8009   -6.9803 H         1 <0>         0.1534
     64 H31         5.9222   -0.5368   -6.2628 H         1 <0>         0.1448
     65 H32         6.9268   -0.9090   -8.4933 H         1 <0>         0.1425
     66 H33         5.6237   -0.0082  -10.5365 H         1 <0>         0.1933
     67 N5         -5.7258    0.6025    4.4124 N.4       1 <0>        -0.3948
     68 H34        -5.4241    0.3643    5.3644 H         1 <0>         0.4309
@<TRIPOS>BOND
     1    1    2 1
     2    1   35 1
     3    1   36 1
     4    1   37 1
     5    2    7 ar
     6    2    3 ar
     7    3    4 ar
     8    3   38 1
     9    4    5 ar
    10    4   39 1
    11    5    6 ar
    12    5    8 1
    13    6    7 ar
    14    6   40 1
    15    7   41 1
    16    8   42 1
    17    8   43 1
    18    8   67 1
    19    9   10 1
    20    9   44 1
    21    9   45 1
    22    9   67 1
    23   10   11 1
    24   10   46 1
    25   10   47 1
    26   11   12 1
    27   11   13 1
    28   11   14 1
    29   13   48 1
    30   13   49 1
    31   13   67 1
    32   14   15 1
    33   14   50 1
    34   14   51 1
    35   15   16 am
    36   15   52 1
    37   16   17 2
    38   16   18 1
    39   18   23 1
    40   18   19 1
    41   18   53 1
    42   19   20 1
    43   19   54 1
    44   19   55 1
    45   20   21 1
    46   20   56 1
    47   20   57 1
    48   21   22 1
    49   21   24 1
    50   22   23 1
    51   22   58 1
    52   22   59 1
    53   23   60 1
    54   23   61 1
    55   24   29 ar
    56   24   25 ar
    57   25   26 ar
    58   25   62 1
    59   26   27 ar
    60   26   63 1
    61   27   28 ar
    62   27   30 1
    63   28   29 ar
    64   30   34 1
    65   30   31 2
    66   31   32 1
    67   31   64 1
    68   32   33 2
    69   32   65 1
    70   33   34 1
    71   33   66 1
    72   67   68 1
@<TRIPOS>MOLECULE
ZINC09686365
   68    72     0     0     0
SMALL
USER_CHARGES
N-[[1-(p-tolylmethyl)pyrrolidin-3-yl]methyl]-1-[6-(2-thienyl)pyridazin-3-yl]-piperidine-4-carboxamide
@<TRIPOS>ATOM
      1 C1         -6.9794   -8.6984   -6.1812 C.3       1 <0>        -0.1320
      2 C2         -6.5945   -8.0906   -4.8570 C.ar      1 <0>        -0.0424
      3 C3         -5.4590   -8.5269   -4.2003 C.ar      1 <0>        -0.1193
      4 C4         -5.1062   -7.9697   -2.9854 C.ar      1 <0>        -0.0873
      5 C5         -5.8888   -6.9763   -2.4272 C.ar      1 <0>        -0.1724
      6 C6         -7.0272   -6.5438   -3.0814 C.ar      1 <0>        -0.0864
      7 C7         -7.3771   -7.0972   -4.2988 C.ar      1 <0>        -0.1186
      8 C8         -5.5045   -6.3693   -1.1025 C.3       1 <0>         0.0561
      9 C9         -3.2773   -5.6437   -1.7671 C.3       1 <0>        -0.0061
     10 C10        -2.3888   -4.4136   -1.4463 C.3       1 <0>        -0.1460
     11 C11        -2.9886   -3.8929   -0.1200 C.3       1 <0>        -0.1235
     12 H1         -2.4143   -4.2669    0.7276 H         1 <0>         0.1192
     13 C12        -4.4243   -4.4484   -0.0797 C.3       1 <0>        -0.0029
     14 C13        -3.0108   -2.3630   -0.1116 C.3       1 <0>         0.1218
     15 N1         -1.6375   -1.8550   -0.0632 N.am      1 <0>        -0.7369
     16 C14        -1.4105   -0.5266   -0.0478 C.2       1 <0>         0.5250
     17 O1         -2.3432    0.2482   -0.0740 O.2       1 <0>        -0.5249
     18 C15         0.0021   -0.0041    0.0020 C.3       1 <0>        -0.1117
     19 C16        -0.0187    1.5270    0.0104 C.3       1 <0>        -0.0975
     20 C17         1.4188    2.0518   -0.0005 C.3       1 <0>         0.0549
     21 N2          2.1116    1.5604   -1.1984 N.pl3     1 <0>        -0.4671
     22 C18         2.1856    0.0938   -1.2049 C.3       1 <0>         0.0619
     23 C19         0.7710   -0.4895   -1.2299 C.3       1 <0>        -0.1076
     24 C20         3.3785    2.1239   -1.3078 C.ar      1 <0>         0.2486
     25 C21         3.5269    3.5124   -1.3206 C.ar      1 <0>        -0.1213
     26 C22         4.8047    4.0281   -1.4305 C.ar      1 <0>        -0.0863
     27 C23         5.8721    3.1243   -1.5224 C.ar      1 <0>         0.1386
     28 N3          5.6333    1.8183   -1.5019 N.ar      1 <0>        -0.2058
     29 N4          4.4455    1.3438   -1.3946 N.ar      1 <0>        -0.2722
     30 C24         7.2575    3.6229   -1.6411 C.2       1 <0>        -0.1302
     31 C25         8.4246    2.9130   -1.7415 C.2       1 <0>        -0.1033
     32 C26         9.6123    3.6028   -1.8439 C.2       1 <0>        -0.1643
     33 C27         9.5911    4.9607   -1.8423 C.2       1 <0>        -0.1527
     34 S1          7.8458    5.3075   -1.6989 S.3       1 <0>         0.0738
     35 H2         -7.6286   -9.5574   -6.0118 H         1 <0>         0.0839
     36 H3         -7.5069   -7.9571   -6.7816 H         1 <0>         0.0761
     37 H4         -6.0811   -9.0201   -6.7081 H         1 <0>         0.0759
     38 H5         -4.8478   -9.3032   -4.6362 H         1 <0>         0.1352
     39 H6         -4.2193   -8.3108   -2.4721 H         1 <0>         0.1293
     40 H7         -7.6410   -5.7708   -2.6432 H         1 <0>         0.1313
     41 H8         -8.2645   -6.7567   -4.8117 H         1 <0>         0.1355
     42 H9         -4.9772   -7.1108   -0.5024 H         1 <0>         0.1330
     43 H10        -6.4029   -6.0478   -0.5758 H         1 <0>         0.1367
     44 H11        -2.9486   -6.5131   -1.1976 H         1 <0>         0.1339
     45 H12        -3.2684   -5.8569   -2.8360 H         1 <0>         0.1365
     46 H13        -2.4748   -3.6611   -2.2302 H         1 <0>         0.1019
     47 H14        -1.3495   -4.7118   -1.3088 H         1 <0>         0.1178
     48 H15        -4.5438   -5.1066    0.7808 H         1 <0>         0.1384
     49 H16        -5.1388   -3.6271   -0.0244 H         1 <0>         0.1376
     50 H17        -3.5589   -2.0124    0.7628 H         1 <0>         0.0812
     51 H18        -3.5001   -2.0018   -1.0161 H         1 <0>         0.0750
     52 H19        -0.8916   -2.4748   -0.0422 H         1 <0>         0.4036
     53 H20         0.4940   -0.3667    0.9046 H         1 <0>         0.1016
     54 H21        -0.5449    1.8886   -0.8730 H         1 <0>         0.0862
     55 H22        -0.5279    1.8791    0.9076 H         1 <0>         0.0854
     56 H23         1.4074    3.1417   -0.0089 H         1 <0>         0.0930
     57 H24         1.9403    1.7012    0.8902 H         1 <0>         0.0530
     58 H25         2.7034   -0.2477   -0.3086 H         1 <0>         0.0579
     59 H26         2.7310   -0.2382   -2.0883 H         1 <0>         0.0964
     60 H27         0.8260   -1.5780   -1.2190 H         1 <0>         0.0764
     61 H28         0.2568   -0.1601   -2.1329 H         1 <0>         0.0803
     62 H29         2.6688    4.1640   -1.2463 H         1 <0>         0.1572
     63 H30         4.9753    5.0944   -1.4448 H         1 <0>         0.1539
     64 H31         8.4138    1.8331   -1.7407 H         1 <0>         0.1442
     65 H32        10.5486    3.0706   -1.9241 H         1 <0>         0.1423
     66 H33        10.4172    5.6527   -1.9142 H         1 <0>         0.1934
     67 N5         -4.6049   -5.1981   -1.3282 N.4       1 <0>        -0.3951
     68 H34        -5.0192   -4.5882   -2.0428 H         1 <0>         0.4297
@<TRIPOS>BOND
     1    1    2 1
     2    1   35 1
     3    1   36 1
     4    1   37 1
     5    2    7 ar
     6    2    3 ar
     7    3    4 ar
     8    3   38 1
     9    4    5 ar
    10    4   39 1
    11    5    6 ar
    12    5    8 1
    13    6    7 ar
    14    6   40 1
    15    7   41 1
    16    8   42 1
    17    8   43 1
    18    8   67 1
    19    9   10 1
    20    9   44 1
    21    9   45 1
    22    9   67 1
    23   10   11 1
    24   10   46 1
    25   10   47 1
    26   11   12 1
    27   11   13 1
    28   11   14 1
    29   13   48 1
    30   13   49 1
    31   13   67 1
    32   14   15 1
    33   14   50 1
    34   14   51 1
    35   15   16 am
    36   15   52 1
    37   16   17 2
    38   16   18 1
    39   18   23 1
    40   18   19 1
    41   18   53 1
    42   19   20 1
    43   19   54 1
    44   19   55 1
    45   20   21 1
    46   20   56 1
    47   20   57 1
    48   21   22 1
    49   21   24 1
    50   22   23 1
    51   22   58 1
    52   22   59 1
    53   23   60 1
    54   23   61 1
    55   24   29 ar
    56   24   25 ar
    57   25   26 ar
    58   25   62 1
    59   26   27 ar
    60   26   63 1
    61   27   28 ar
    62   27   30 1
    63   28   29 ar
    64   30   34 1
    65   30   31 2
    66   31   32 1
    67   31   64 1
    68   32   33 2
    69   32   65 1
    70   33   34 1
    71   33   66 1
    72   67   68 1
@<TRIPOS>MOLECULE
ZINC08227211
   38    39     0     0     0
SMALL
USER_CHARGES
N-[[5-bromo-2-[(4-chlorophenyl)methoxy]phenyl]methyl]ethanamine
@<TRIPOS>ATOM
      1 C1          0.4510    4.3244    5.6646 C.3       1 <0>        -0.1900
      2 C2         -0.6754    3.3143    5.4370 C.3       1 <0>        -0.0060
      3 C3         -2.5746    2.7828    4.0323 C.3       1 <0>         0.0610
      4 C4         -3.3770    3.2425    2.8424 C.ar      1 <0>        -0.1934
      5 C5         -4.5693    3.9147    3.0306 C.ar      1 <0>        -0.0235
      6 C6         -5.3092    4.3314    1.9387 C.ar      1 <0>        -0.1302
      7 C7         -4.8543    4.0811    0.6561 C.ar      1 <0>        -0.0147
      8 C8         -3.6603    3.4141    0.4637 C.ar      1 <0>        -0.1976
      9 C9         -2.9166    2.9952    1.5576 C.ar      1 <0>         0.1687
     10 O1         -1.7414    2.3387    1.3703 O.3       1 <0>        -0.3165
     11 C10        -1.3320    2.1136    0.0199 C.3       1 <0>         0.1019
     12 C11        -0.0167    1.3782    0.0096 C.ar      1 <0>        -0.1083
     13 C12         1.1707    2.0862    0.0021 C.ar      1 <0>        -0.0845
     14 C13         2.3773    1.4123   -0.0131 C.ar      1 <0>        -0.1128
     15 C14         2.3967    0.0290   -0.0208 C.ar      1 <0>        -0.0186
     16 C15         1.2081   -0.6790   -0.0132 C.ar      1 <0>        -0.1106
     17 C16         0.0021   -0.0041    0.0020 C.ar      1 <0>        -0.0789
     18 Cl1         3.9119   -0.8181   -0.0393 Cl        1 <0>        -0.0510
     19 Br1        -6.9443    5.2449    2.1992 Br        1 <0>        -0.0180
     20 H1          0.0234    5.3086    5.8558 H         1 <0>         0.0805
     21 H2          1.0486    4.0150    6.5221 H         1 <0>         0.1071
     22 H3          1.0835    4.3691    4.7780 H         1 <0>         0.0797
     23 H4         -1.3080    3.2696    6.3236 H         1 <0>         0.1311
     24 H5         -0.2478    2.3301    5.2458 H         1 <0>         0.1303
     25 H6         -3.2203    2.7344    4.9092 H         1 <0>         0.1391
     26 H7         -2.1602    1.7949    3.8314 H         1 <0>         0.1407
     27 H8         -4.9261    4.1110    4.0309 H         1 <0>         0.1501
     28 H9         -5.4335    4.4073   -0.1951 H         1 <0>         0.1493
     29 H10        -3.3060    3.2183   -0.5376 H         1 <0>         0.1499
     30 H11        -1.2173    3.0705   -0.4893 H         1 <0>         0.0845
     31 H12        -2.0859    1.5169   -0.4937 H         1 <0>         0.0854
     32 H13         1.1554    3.1661    0.0081 H         1 <0>         0.1341
     33 H14         3.3048    1.9655   -0.0187 H         1 <0>         0.1406
     34 H15         1.2226   -1.7589   -0.0187 H         1 <0>         0.1416
     35 H16        -0.9258   -0.5566    0.0083 H         1 <0>         0.1362
     36 N1         -1.4790    3.7400    4.2755 N.4       1 <0>        -0.5195
     37 H17        -0.8770    3.7839    3.4450 H         1 <0>         0.4321
     38 H18        -1.8757    4.6689    4.4603 H         1 <0>         0.4301
@<TRIPOS>BOND
     1    1    2 1
     2    1   20 1
     3    1   21 1
     4    1   22 1
     5    2   23 1
     6    2   24 1
     7    2   36 1
     8    3    4 1
     9    3   25 1
    10    3   26 1
    11    3   36 1
    12    4    9 ar
    13    4    5 ar
    14    5    6 ar
    15    5   27 1
    16    6    7 ar
    17    6   19 1
    18    7    8 ar
    19    7   28 1
    20    8    9 ar
    21    8   29 1
    22    9   10 1
    23   10   11 1
    24   11   12 1
    25   11   30 1
    26   11   31 1
    27   12   17 ar
    28   12   13 ar
    29   13   14 ar
    30   13   32 1
    31   14   15 ar
    32   14   33 1
    33   15   16 ar
    34   15   18 1
    35   16   17 ar
    36   16   34 1
    37   17   35 1
    38   36   37 1
    39   36   38 1
@<TRIPOS>MOLECULE
ZINC28821969
   32    33     0     0     0
SMALL
USER_CHARGES
[5-bromo-2-[(4-chlorophenyl)methoxy]phenyl]methanamine
@<TRIPOS>ATOM
      1 C1          1.1707    2.0862    0.0021 C.ar      1 <0>        -0.0847
      2 C2          2.3773    1.4123   -0.0131 C.ar      1 <0>        -0.1128
      3 C3          2.3967    0.0290   -0.0208 C.ar      1 <0>        -0.0186
      4 C4          1.2081   -0.6790   -0.0132 C.ar      1 <0>        -0.1105
      5 C5          0.0021   -0.0041    0.0020 C.ar      1 <0>        -0.0792
      6 C6         -0.0167    1.3782    0.0096 C.ar      1 <0>        -0.1081
      7 C7         -1.3320    2.1136    0.0199 C.3       1 <0>         0.0998
      8 O1         -1.7414    2.3387    1.3703 O.3       1 <0>        -0.3165
      9 C8         -2.9166    2.9952    1.5576 C.ar      1 <0>         0.1670
     10 C9         -3.6603    3.4141    0.4637 C.ar      1 <0>        -0.1979
     11 C10        -4.8543    4.0811    0.6561 C.ar      1 <0>        -0.0163
     12 C11        -5.3092    4.3314    1.9387 C.ar      1 <0>        -0.1302
     13 C12        -4.5693    3.9147    3.0306 C.ar      1 <0>        -0.0256
     14 C13        -3.3770    3.2425    2.8424 C.ar      1 <0>        -0.1921
     15 C14        -2.5746    2.7828    4.0323 C.3       1 <0>         0.0636
     16 N1         -1.4809    3.7312    4.2814 N.4       1 <0>        -0.6849
     17 Br1        -6.9443    5.2449    2.1992 Br        1 <0>        -0.0186
     18 Cl1         3.9119   -0.8181   -0.0393 Cl        1 <0>        -0.0508
     19 H1          1.1554    3.1661    0.0081 H         1 <0>         0.1342
     20 H2          3.3049    1.9655   -0.0187 H         1 <0>         0.1407
     21 H3          1.2226   -1.7589   -0.0187 H         1 <0>         0.1416
     22 H4         -0.9258   -0.5566    0.0083 H         1 <0>         0.1359
     23 H5         -1.2162    3.0793   -0.4939 H         1 <0>         0.0855
     24 H6         -2.0928    1.5115   -0.4984 H         1 <0>         0.0860
     25 H7         -3.3060    3.2183   -0.5376 H         1 <0>         0.1492
     26 H8         -5.4335    4.4073   -0.1951 H         1 <0>         0.1486
     27 H9         -4.9261    4.1110    4.0309 H         1 <0>         0.1494
     28 H10        -3.2262    2.7339    4.9172 H         1 <0>         0.1370
     29 H11        -2.1563    1.7858    3.8295 H         1 <0>         0.1387
     30 H12        -0.8953    3.3956    5.1500 H         1 <0>         0.4595
     31 H13        -1.8992    4.7281    4.4843 H         1 <0>         0.4542
     32 H14        -0.8293    3.7801    3.3965 H         1 <0>         0.4559
@<TRIPOS>BOND
     1    1    6 ar
     2    1    2 ar
     3    1   19 1
     4    2    3 ar
     5    2   20 1
     6    3    4 ar
     7    3   18 1
     8    4    5 ar
     9    4   21 1
    10    5    6 ar
    11    5   22 1
    12    6    7 1
    13    7    8 1
    14    7   23 1
    15    7   24 1
    16    8    9 1
    17    9   14 ar
    18    9   10 ar
    19   10   11 ar
    20   10   25 1
    21   11   12 ar
    22   11   26 1
    23   12   13 ar
    24   12   17 1
    25   13   14 ar
    26   13   27 1
    27   14   15 1
    28   15   16 1
    29   15   28 1
    30   15   29 1
    31   16   30 1
    32   16   31 1
    33   16   32 1
@<TRIPOS>MOLECULE
ZINC01410743
   37    38     0     0     0
SMALL
USER_CHARGES
1-[(2-benzyloxy-5-bromo-phenyl)methyleneamino]guanidine
@<TRIPOS>ATOM
      1 C1         -0.0167    1.3781    0.0096 C.ar      1 <0>        -0.1077
      2 C2          1.1709    2.0855    0.0021 C.ar      1 <0>        -0.1228
      3 C3          2.3773    1.4107   -0.0136 C.ar      1 <0>        -0.0981
      4 C4          2.3960    0.0285   -0.0217 C.ar      1 <0>        -0.1045
      5 C5          1.2084   -0.6789   -0.0136 C.ar      1 <0>        -0.0981
      6 C6          0.0021   -0.0041    0.0020 C.ar      1 <0>        -0.1229
      7 C7          3.7112   -0.7071   -0.0387 C.3       1 <0>         0.0866
      8 O1          4.1134   -0.9324   -1.3913 O.3       1 <0>        -0.2888
      9 C8          5.2869   -1.5888   -1.5845 C.ar      1 <0>         0.1899
     10 C9          6.0391   -2.0027   -0.4976 C.ar      1 <0>        -0.2086
     11 C10         7.2307   -2.6749   -0.6947 C.ar      1 <0>        -0.0137
     12 C11         7.6867   -2.9302   -1.9774 C.ar      1 <0>        -0.1346
     13 C12         6.9520   -2.5200   -3.0711 C.ar      1 <0>        -0.0081
     14 C13         5.7439   -1.8448   -2.8843 C.ar      1 <0>        -0.1103
     15 C14         4.9536   -1.4041   -4.0479 C.2       1 <0>         0.1816
     16 N1          3.8312   -0.7772   -3.8702 N.2       1 <0>        -0.2551
     17 N2          3.0801   -0.3584   -4.9762 N.pl3     1 <0>        -0.5828
     18 C15         1.8900    0.3062   -4.7878 C.cat     1 <0>         0.7674
     19 N3          1.4615    0.5462   -3.5801 N.pl3     1 <0>        -0.7963
     20 N4          1.1525    0.7175   -5.8737 N.pl3     1 <0>        -0.8520
     21 Br1         9.3222   -3.8451   -2.2309 Br        1 <0>        -0.0248
     22 H1         -0.9592    1.9054    0.0170 H         1 <0>         0.1295
     23 H2          1.1563    3.1654    0.0081 H         1 <0>         0.1296
     24 H3          3.3051    1.9634   -0.0195 H         1 <0>         0.1273
     25 H4          1.2231   -1.7587   -0.0199 H         1 <0>         0.1273
     26 H5         -0.9258   -0.5567    0.0079 H         1 <0>         0.1296
     27 H6          4.4748   -0.1049    0.4755 H         1 <0>         0.0825
     28 H7          3.5980   -1.6727    0.4759 H         1 <0>         0.0825
     29 H8          5.6919   -1.8036    0.5055 H         1 <0>         0.1471
     30 H9          7.8114   -2.9991    0.1562 H         1 <0>         0.1466
     31 H10         7.3105   -2.7212   -4.0699 H         1 <0>         0.1513
     32 H11         5.3152   -1.6066   -5.0669 H         1 <0>         0.1445
     33 H12         3.4417   -0.5609   -5.9951 H         1 <0>         0.4365
     34 H13         0.5102    1.0775   -3.4295 H         1 <0>         0.4621
     35 H14         0.2012    1.2488   -5.7231 H         1 <0>         0.4660
     36 H15         1.5141    0.5151   -6.8927 H         1 <0>         0.4615
     37 H16         2.0513    0.2174   -2.7118 H         1 <0>         0.4799
@<TRIPOS>BOND
     1    1    6 ar
     2    1    2 ar
     3    1   22 1
     4    2    3 ar
     5    2   23 1
     6    3    4 ar
     7    3   24 1
     8    4    5 ar
     9    4    7 1
    10    5    6 ar
    11    5   25 1
    12    6   26 1
    13    7    8 1
    14    7   27 1
    15    7   28 1
    16    8    9 1
    17    9   14 ar
    18    9   10 ar
    19   10   11 ar
    20   10   29 1
    21   11   12 ar
    22   11   30 1
    23   12   13 ar
    24   12   21 1
    25   13   14 ar
    26   13   31 1
    27   14   15 1
    28   15   16 2
    29   15   32 1
    30   16   17 1
    31   17   18 1
    32   17   33 1
    33   18   19 2
    34   18   20 1
    35   19   34 1
    36   19   37 1
    37   20   35 1
    38   20   36 1
@<TRIPOS>MOLECULE
ZINC01996578
   76    80     0     0     0
SMALL
USER_CHARGES
dimethyl-[[4-[[9-(p-tolyl)-5-bicyclo[5.4.0]undeca-5,8,10,12-tetraenyl]carbonylamino]phenyl]methyl]-tetrahydropyran-4-yl-ammonium
@<TRIPOS>ATOM
      1 C1          6.4836   -6.4661   -4.3611 C.3       1 <0>        -0.1194
      2 C2          5.8061   -5.2045   -3.8916 C.ar      1 <0>        -0.0790
      3 C3          6.3546   -3.9724   -4.1990 C.ar      1 <0>        -0.1172
      4 C4          5.7383   -2.8138   -3.7716 C.ar      1 <0>        -0.1035
      5 C5          4.5615   -2.8868   -3.0293 C.ar      1 <0>        -0.0574
      6 C6          4.0162   -4.1307   -2.7181 C.ar      1 <0>        -0.1062
      7 C7          4.6382   -5.2828   -3.1546 C.ar      1 <0>        -0.1182
      8 C8          3.8945   -1.6444   -2.5666 C.ar      1 <0>        -0.0471
      9 C9          4.4409   -0.3972   -2.8709 C.ar      1 <0>        -0.0844
     10 C10         3.8075    0.7431   -2.4368 C.ar      1 <0>        -0.1270
     11 C11         2.6276    0.6905   -1.6962 C.ar      1 <0>        -0.0396
     12 C12         2.0747   -0.5430   -1.3776 C.ar      1 <0>        -0.0666
     13 C13         2.7270   -1.7129   -1.8300 C.ar      1 <0>        -0.0846
     14 C14         0.8638   -0.7697   -0.6124 C.2       1 <0>        -0.0032
     15 C15         0.0064   -0.0038    0.0081 C.2       1 <0>        -0.1771
     16 C16        -0.0071    1.4805    0.0257 C.3       1 <0>        -0.0807
     17 C17         1.3803    2.0683    0.0239 C.3       1 <0>        -0.1143
     18 C18         2.0512    2.0152   -1.3111 C.3       1 <0>        -0.0878
     19 C19        -1.0496   -0.6789    0.7644 C.2       1 <0>         0.5576
     20 O1         -1.0963   -1.8948    0.7916 O.2       1 <0>        -0.5177
     21 N1         -1.9701    0.0460    1.4305 N.am      1 <0>        -0.6753
     22 C20        -3.0334   -0.5952    2.0733 C.ar      1 <0>         0.1886
     23 C21        -4.2832    0.0088    2.1222 C.ar      1 <0>        -0.1446
     24 C22        -5.3325   -0.6292    2.7541 C.ar      1 <0>        -0.0728
     25 C23        -5.1374   -1.8636    3.3462 C.ar      1 <0>        -0.1760
     26 C24        -3.8930   -2.4653    3.3039 C.ar      1 <0>        -0.0736
     27 C25        -2.8407   -1.8349    2.6694 C.ar      1 <0>        -0.1211
     28 C26        -6.2834   -2.5544    4.0394 C.3       1 <0>         0.0440
     29 N2         -6.3135   -2.1545    5.4526 N.4       1 <0>        -0.2613
     30 C27        -5.0496   -2.5365    6.0967 C.3       1 <0>        -0.0542
     31 C28        -6.4903   -0.6992    5.5461 C.3       1 <0>        -0.0594
     32 C29        -7.4305   -2.8279    6.1284 C.3       1 <0>         0.0257
     33 C30        -8.7503   -2.4220    5.4652 C.3       1 <0>        -0.1808
     34 C31        -9.9132   -3.0658    6.2247 C.3       1 <0>         0.0628
     35 O2         -9.8671   -2.6623    7.5948 O.3       1 <0>        -0.3685
     36 C32        -8.6761   -3.0562    8.2793 C.3       1 <0>         0.0627
     37 C33        -7.4634   -2.4120    7.6023 C.3       1 <0>        -0.1796
     38 H1          7.1963   -6.7982   -3.6062 H         1 <0>         0.0734
     39 H2          5.7354   -7.2424   -4.5210 H         1 <0>         0.0681
     40 H3          7.0093   -6.2700   -5.2956 H         1 <0>         0.0690
     41 H4          7.2667   -3.9170   -4.7747 H         1 <0>         0.1265
     42 H5          6.1676   -1.8523   -4.0118 H         1 <0>         0.1262
     43 H6          3.1064   -4.1930   -2.1395 H         1 <0>         0.1237
     44 H7          4.2144   -6.2473   -2.9172 H         1 <0>         0.1251
     45 H8          5.3545   -0.3281   -3.4428 H         1 <0>         0.1325
     46 H9          4.2354    1.7054   -2.6760 H         1 <0>         0.1293
     47 H10         2.3049   -2.6789   -1.5951 H         1 <0>         0.1284
     48 H11         0.6116   -1.8172   -0.5384 H         1 <0>         0.1196
     49 H12        -0.5433    1.8389   -0.8530 H         1 <0>         0.0845
     50 H13        -0.5322    1.8180    0.9192 H         1 <0>         0.0677
     51 H14         1.3184    3.1091    0.3418 H         1 <0>         0.0786
     52 H15         1.9911    1.5227    0.7431 H         1 <0>         0.0673
     53 H16         2.8547    2.7516   -1.3182 H         1 <0>         0.0826
     54 H17         1.3215    2.3025   -2.0682 H         1 <0>         0.0808
     55 H18        -1.8948    1.0125    1.4640 H         1 <0>         0.4182
     56 H19        -4.4353    0.9746    1.6633 H         1 <0>         0.1390
     57 H20        -6.3055   -0.1618    2.7892 H         1 <0>         0.1343
     58 H21        -3.7440   -3.4294    3.7673 H         1 <0>         0.1334
     59 H22        -1.8690   -2.3052    2.6370 H         1 <0>         0.1514
     60 H23        -7.2211   -2.2709    3.5616 H         1 <0>         0.1337
     61 H24        -6.1521   -3.6342    3.9701 H         1 <0>         0.1325
     62 H25        -4.2208   -2.0368    5.5952 H         1 <0>         0.1256
     63 H26        -5.0719   -2.2398    7.1452 H         1 <0>         0.1221
     64 H27        -4.9184   -3.6163    6.0273 H         1 <0>         0.1207
     65 H28        -7.4281   -0.4157    5.0682 H         1 <0>         0.1224
     66 H29        -6.5126   -0.4024    6.5947 H         1 <0>         0.1228
     67 H30        -5.6614   -0.1995    5.0446 H         1 <0>         0.1253
     68 H31        -7.3021   -3.9079    6.0571 H         1 <0>         0.1361
     69 H32        -8.8533   -1.3372    5.4927 H         1 <0>         0.0980
     70 H33        -8.7578   -2.7634    4.4301 H         1 <0>         0.0994
     71 H34        -9.8317   -4.1509    6.1624 H         1 <0>         0.0652
     72 H35       -10.8571   -2.7460    5.7832 H         1 <0>         0.1157
     73 H36        -8.5784   -4.1412    8.2438 H         1 <0>         0.0650
     74 H37        -8.7286   -2.7296    9.3179 H         1 <0>         0.1156
     75 H38        -6.5507   -2.7462    8.0955 H         1 <0>         0.0999
     76 H39        -7.5404   -1.3270    7.6730 H         1 <0>         0.0975
@<TRIPOS>BOND
     1    1    2 1
     2    1   38 1
     3    1   39 1
     4    1   40 1
     5    2    7 ar
     6    2    3 ar
     7    3    4 ar
     8    3   41 1
     9    4    5 ar
    10    4   42 1
    11    5    6 ar
    12    5    8 1
    13    6    7 ar
    14    6   43 1
    15    7   44 1
    16    8   13 ar
    17    8    9 ar
    18    9   10 ar
    19    9   45 1
    20   10   11 ar
    21   10   46 1
    22   11   18 1
    23   11   12 ar
    24   12   13 ar
    25   12   14 1
    26   13   47 1
    27   14   15 2
    28   14   48 1
    29   15   16 1
    30   15   19 1
    31   16   17 1
    32   16   49 1
    33   16   50 1
    34   17   18 1
    35   17   51 1
    36   17   52 1
    37   18   53 1
    38   18   54 1
    39   19   20 2
    40   19   21 am
    41   21   22 1
    42   21   55 1
    43   22   27 ar
    44   22   23 ar
    45   23   24 ar
    46   23   56 1
    47   24   25 ar
    48   24   57 1
    49   25   26 ar
    50   25   28 1
    51   26   27 ar
    52   26   58 1
    53   27   59 1
    54   28   29 1
    55   28   60 1
    56   28   61 1
    57   29   30 1
    58   29   31 1
    59   29   32 1
    60   30   62 1
    61   30   63 1
    62   30   64 1
    63   31   65 1
    64   31   66 1
    65   31   67 1
    66   32   37 1
    67   32   33 1
    68   32   68 1
    69   33   34 1
    70   33   69 1
    71   33   70 1
    72   34   35 1
    73   34   71 1
    74   34   72 1
    75   35   36 1
    76   36   37 1
    77   36   73 1
    78   36   74 1
    79   37   75 1
    80   37   76 1
@<TRIPOS>MOLECULE
ZINC22010579
   77    80     0     0     0
SMALL
USER_CHARGES

@<TRIPOS>ATOM
      1 C1         -0.0850    2.7452   -0.5256 C.3       1 <0>        -0.1166
      2 C2          0.2041    1.2668   -0.5663 C.ar      1 <0>         0.2202
      3 C3          0.2382    0.5822   -1.7865 C.ar      1 <0>        -0.2509
      4 C4          0.5120   -0.7901   -1.7655 C.ar      1 <0>         0.2149
      5 N1          0.7260   -1.3814   -0.6032 N.ar      1 <0>        -0.5197
      6 C5          0.6844   -0.6979    0.5237 C.ar      1 <0>         0.3279
      7 N2          0.4351    0.5968    0.5491 N.ar      1 <0>        -0.5171
      8 C6          0.5614   -1.5807   -3.0475 C.3       1 <0>        -0.1128
      9 C7         -0.0085    1.2886   -3.0614 C.2       1 <0>         0.5864
     10 O1          0.9191    1.7833   -3.6715 O.2       1 <0>        -0.5014
     11 N3         -1.2620    1.3840   -3.5474 N.am      1 <0>        -0.6164
     12 C8         -2.3943    0.7965   -2.8183 C.3       1 <0>         0.1126
     13 C9         -3.1641   -0.1289   -3.7659 C.3       1 <0>        -0.1516
     14 C10        -3.5614    0.6500   -5.0219 C.3       1 <0>         0.0583
     15 C11        -2.3019    1.1383   -5.7412 C.3       1 <0>        -0.1505
     16 C12        -1.5230    2.0829   -4.8131 C.3       1 <0>         0.1152
     17 C13        -4.4206    1.8523   -4.6256 C.3       1 <0>        -0.1822
     18 N4         -4.3285   -0.2252   -5.9183 N.4       1 <0>        -0.3801
     19 C14        -5.5373   -0.6941   -5.2279 C.3       1 <0>        -0.0098
     20 C15        -6.3272   -1.6208   -6.1547 C.3       1 <0>         0.0243
     21 N5         -6.6922   -0.8914   -7.3773 N.3       1 <0>        -0.5203
     22 C16        -5.4929   -0.3944   -8.0663 C.3       1 <0>         0.0634
     23 H1         -4.8659   -1.2368   -8.3583 H         1 <0>         0.0662
     24 C17        -4.7099    0.5223   -7.1238 C.3       1 <0>        -0.0081
     25 C18        -5.9083    0.3892   -9.3130 C.3       1 <0>        -0.1630
     26 C19        -7.5018   -1.7316   -8.2697 C.3       1 <0>         0.1317
     27 H2         -6.8475   -2.3883   -8.8431 H         1 <0>         0.0812
     28 C20        -8.4690   -2.5756   -7.4372 C.3       1 <0>         0.0555
     29 O2         -9.3557   -1.7150   -6.7194 O.3       1 <0>        -0.3720
     30 C21       -10.3052   -2.4068   -5.9058 C.3       1 <0>         0.0268
     31 C22        -8.2844   -0.8543   -9.2126 C.ar      1 <0>        -0.0484
     32 C23        -8.8285    0.3334   -8.7606 C.ar      1 <0>        -0.0733
     33 C24        -9.5463    1.1381   -9.6255 C.ar      1 <0>        -0.0754
     34 C25        -9.7197    0.7553  -10.9425 C.ar      1 <0>        -0.1730
     35 C26        -9.1749   -0.4319  -11.3946 C.ar      1 <0>        -0.0684
     36 C27        -8.4534   -1.2346  -10.5308 C.ar      1 <0>        -0.1236
     37 C28       -10.5031    1.6321  -11.8851 C.3       1 <0>         0.5047
     38 F1         -9.6376    2.5383  -12.5071 F         1 <0>        -0.1756
     39 F2        -11.1221    0.8372  -12.8556 F         1 <0>        -0.1749
     40 F3        -11.4769    2.3350  -11.1675 F         1 <0>        -0.1751
     41 H3          0.8496    3.3005   -0.6043 H         1 <0>         0.0981
     42 H4         -0.7367    3.0110   -1.3579 H         1 <0>         0.0759
     43 H5         -0.5770    2.9935    0.4148 H         1 <0>         0.0955
     44 H6          0.8639   -1.2141    1.4552 H         1 <0>         0.2077
     45 H7          1.5780   -1.5722   -3.4406 H         1 <0>         0.0973
     46 H8          0.2559   -2.6087   -2.8524 H         1 <0>         0.0929
     47 H9         -0.1140   -1.1332   -3.7766 H         1 <0>         0.0707
     48 H10        -2.0237    0.2230   -1.9686 H         1 <0>         0.0986
     49 H11        -3.0537    1.5899   -2.4666 H         1 <0>         0.0901
     50 H12        -2.5314   -0.9714   -4.0452 H         1 <0>         0.0933
     51 H13        -4.0607   -0.4963   -3.2668 H         1 <0>         0.1040
     52 H14        -1.6774    0.2839   -6.0019 H         1 <0>         0.0931
     53 H15        -2.5849    1.6729   -6.6480 H         1 <0>         0.1039
     54 H16        -2.1129    2.9791   -4.6208 H         1 <0>         0.0877
     55 H17        -0.5775    2.3585   -5.2801 H         1 <0>         0.1158
     56 H18        -3.8519    2.5017   -3.9600 H         1 <0>         0.1069
     57 H19        -4.7037    2.4072   -5.5201 H         1 <0>         0.0876
     58 H20        -5.3183    1.5046   -4.1144 H         1 <0>         0.0870
     59 H21        -5.2533   -1.2374   -4.3267 H         1 <0>         0.1355
     60 H22        -6.1557    0.1616   -4.9566 H         1 <0>         0.1433
     61 H23        -5.7139   -2.4835   -6.4152 H         1 <0>         0.0592
     62 H24        -7.2318   -1.9570   -5.6480 H         1 <0>         0.1319
     63 H25        -5.3325    1.3717   -6.8428 H         1 <0>         0.1430
     64 H26        -3.8125    0.8808   -7.6281 H         1 <0>         0.1368
     65 H27        -6.5345    1.2320   -9.0205 H         1 <0>         0.0795
     66 H28        -5.0186    0.7577   -9.8237 H         1 <0>         0.0715
     67 H29        -6.4676   -0.2638   -9.9830 H         1 <0>         0.0886
     68 H30        -9.0462   -3.2235   -8.0968 H         1 <0>         0.0676
     69 H31        -7.9044   -3.1855   -6.7319 H         1 <0>         0.0585
     70 H32       -10.9406   -1.6837   -5.3944 H         1 <0>         0.0926
     71 H33       -10.9206   -3.0512   -6.5337 H         1 <0>         0.0462
     72 H34        -9.7787   -3.0131   -5.1687 H         1 <0>         0.0414
     73 H35        -8.6930    0.6324   -7.7317 H         1 <0>         0.1440
     74 H36        -9.9720    2.0656   -9.2722 H         1 <0>         0.1363
     75 H37        -9.3106   -0.7311  -12.4234 H         1 <0>         0.1385
     76 H38        -8.0245   -2.1603  -10.8850 H         1 <0>         0.1329
     77 H39        -3.7621   -1.0182   -6.1797 H         1 <0>         0.4175
@<TRIPOS>BOND
     1    1    2 1
     2    1   41 1
     3    1   42 1
     4    1   43 1
     5    2    7 ar
     6    2    3 ar
     7    3    4 ar
     8    3    9 1
     9    4    5 ar
    10    4    8 1
    11    5    6 ar
    12    6    7 ar
    13    6   44 1
    14    8   45 1
    15    8   46 1
    16    8   47 1
    17    9   10 2
    18    9   11 am
    19   11   16 1
    20   11   12 1
    21   12   13 1
    22   12   48 1
    23   12   49 1
    24   13   14 1
    25   13   50 1
    26   13   51 1
    27   14   15 1
    28   14   17 1
    29   14   18 1
    30   15   16 1
    31   15   52 1
    32   15   53 1
    33   16   54 1
    34   16   55 1
    35   17   56 1
    36   17   57 1
    37   17   58 1
    38   18   24 1
    39   18   19 1
    40   18   77 1
    41   19   20 1
    42   19   59 1
    43   19   60 1
    44   20   21 1
    45   20   61 1
    46   20   62 1
    47   21   22 1
    48   21   26 1
    49   22   23 1
    50   22   24 1
    51   22   25 1
    52   24   63 1
    53   24   64 1
    54   25   65 1
    55   25   66 1
    56   25   67 1
    57   26   27 1
    58   26   28 1
    59   26   31 1
    60   28   29 1
    61   28   68 1
    62   28   69 1
    63   29   30 1
    64   30   70 1
    65   30   71 1
    66   30   72 1
    67   31   36 ar
    68   31   32 ar
    69   32   33 ar
    70   32   73 1
    71   33   34 ar
    72   33   74 1
    73   34   35 ar
    74   34   37 1
    75   35   36 ar
    76   35   75 1
    77   36   76 1
    78   37   38 1
    79   37   39 1
    80   37   40 1
@<TRIPOS>MOLECULE
ZINC22010579
   77    80     0     0     0
SMALL
USER_CHARGES

@<TRIPOS>ATOM
      1 C1          2.2462   -1.6381   -2.0558 C.3       1 <0>        -0.1152
      2 C2          1.5647   -2.9646   -1.8388 C.ar      1 <0>         0.2168
      3 C3          0.9156   -3.6119   -2.8963 C.ar      1 <0>        -0.2432
      4 C4          0.2998   -4.8419   -2.6383 C.ar      1 <0>         0.2152
      5 N1          0.3548   -5.3402   -1.4157 N.ar      1 <0>        -0.5208
      6 C5          0.9775   -4.6964   -0.4479 C.ar      1 <0>         0.3226
      7 N2          1.5751   -3.5380   -0.6483 N.ar      1 <0>        -0.5193
      8 C6         -0.4150   -5.5857   -3.7369 C.3       1 <0>        -0.1128
      9 C7          0.8811   -3.0132   -4.2475 C.2       1 <0>         0.5829
     10 O1          1.7613   -3.2656   -5.0468 O.2       1 <0>        -0.5118
     11 N3         -0.1265   -2.1874   -4.5930 N.am      1 <0>        -0.6078
     12 C8         -1.1943   -1.8679   -3.6358 C.3       1 <0>         0.1080
     13 C9         -2.5473   -2.1719   -4.2868 C.3       1 <0>        -0.1248
     14 C10        -2.6495   -1.4207   -5.6163 C.3       1 <0>         0.1163
     15 C11        -1.5419   -1.8962   -6.5593 C.3       1 <0>        -0.1224
     16 C12        -0.1746   -1.5847   -5.9321 C.3       1 <0>         0.1097
     17 C13        -2.4962    0.0810   -5.3663 C.3       1 <0>        -0.1946
     18 N4         -3.9591   -1.6836   -6.2276 N.3       1 <0>        -0.5253
     19 C14        -5.0501   -1.3184   -5.3130 C.3       1 <0>         0.0196
     20 C15        -6.3925   -1.6622   -5.9621 C.3       1 <0>        -0.0086
     21 N5         -6.5261   -0.9299   -7.2284 N.4       1 <0>        -0.3811
     22 C16        -5.4439   -1.3234   -8.1402 C.3       1 <0>         0.0356
     23 H1         -5.4948   -2.3969   -8.3226 H         1 <0>         0.1452
     24 C17        -4.0936   -0.9768   -7.5091 C.3       1 <0>         0.0245
     25 C18        -5.5952   -0.5733   -9.4651 C.3       1 <0>        -0.1971
     26 C19        -7.8226   -1.2463   -7.8423 C.3       1 <0>         0.0837
     27 H2         -7.8142   -2.2764   -8.1985 H         1 <0>         0.1589
     28 C20        -8.9338   -1.0745   -6.8046 C.3       1 <0>         0.0335
     29 O2         -9.0213    0.2999   -6.4236 O.3       1 <0>        -0.3951
     30 C21       -10.0342    0.5705   -5.4526 C.3       1 <0>         0.0296
     31 C22        -8.0699   -0.3159   -9.0017 C.ar      1 <0>        -0.0939
     32 C23        -7.8475    1.0409   -8.8587 C.ar      1 <0>        -0.0996
     33 C24        -8.0743    1.8944   -9.9222 C.ar      1 <0>        -0.0596
     34 C25        -8.5231    1.3909  -11.1289 C.ar      1 <0>        -0.1537
     35 C26        -8.7446    0.0340  -11.2722 C.ar      1 <0>        -0.0594
     36 C27        -8.5137   -0.8200  -10.2100 C.ar      1 <0>        -0.0979
     37 C28        -8.7713    2.3214  -12.2880 C.3       1 <0>         0.5040
     38 F1         -7.6005    2.4481  -13.0433 F         1 <0>        -0.1705
     39 F2         -9.7914    1.8025  -13.0925 F         1 <0>        -0.1705
     40 F3         -9.1523    3.5776  -11.8043 F         1 <0>        -0.1713
     41 H3          3.2822   -1.8058   -2.3505 H         1 <0>         0.0965
     42 H4          1.7292   -1.0883   -2.8422 H         1 <0>         0.0763
     43 H5          2.2202   -1.0608   -1.1316 H         1 <0>         0.0934
     44 H6          1.0022   -5.1334    0.5394 H         1 <0>         0.2057
     45 H7          0.2857   -6.2521   -4.2400 H         1 <0>         0.0951
     46 H8         -1.2295   -6.1704   -3.3095 H         1 <0>         0.0914
     47 H9         -0.8181   -4.8725   -4.4559 H         1 <0>         0.0759
     48 H10        -1.0753   -2.4762   -2.7392 H         1 <0>         0.0857
     49 H11        -1.1448   -0.8114   -3.3723 H         1 <0>         0.0781
     50 H12        -2.6317   -3.2436   -4.4671 H         1 <0>         0.0847
     51 H13        -3.3505   -1.8496   -3.6242 H         1 <0>         0.0800
     52 H14        -1.6358   -2.9705   -6.7182 H         1 <0>         0.0840
     53 H15        -1.6295   -1.3777   -7.5141 H         1 <0>         0.0798
     54 H16        -0.0436   -0.5055   -5.8521 H         1 <0>         0.0758
     55 H17         0.6175   -2.0061   -6.5512 H         1 <0>         0.1036
     56 H18        -1.5248    0.2764   -4.9121 H         1 <0>         0.0804
     57 H19        -2.5689    0.6162   -6.3130 H         1 <0>         0.0639
     58 H20        -3.2857    0.4201   -4.6956 H         1 <0>         0.0620
     59 H21        -4.9443   -1.8731   -4.3807 H         1 <0>         0.1275
     60 H22        -5.0092   -0.2488   -5.1068 H         1 <0>         0.0649
     61 H23        -6.4386   -2.7339   -6.1557 H         1 <0>         0.1397
     62 H24        -7.2036   -1.3790   -5.2913 H         1 <0>         0.1374
     63 H25        -4.0369    0.0984   -7.3392 H         1 <0>         0.0653
     64 H26        -3.2899   -1.2823   -8.1791 H         1 <0>         0.1269
     65 H27        -5.8101    0.4765   -9.2657 H         1 <0>         0.0824
     66 H28        -4.6697   -0.6528  -10.0354 H         1 <0>         0.1020
     67 H29        -6.4136   -1.0092  -10.0380 H         1 <0>         0.0969
     68 H30        -9.8837   -1.3940   -7.2332 H         1 <0>         0.0997
     69 H31        -8.7086   -1.6811   -5.9274 H         1 <0>         0.0839
     70 H32        -9.8319   -0.0020   -4.5473 H         1 <0>         0.0517
     71 H33       -10.0364    1.6346   -5.2166 H         1 <0>         0.1004
     72 H34       -11.0070    0.2852   -5.8531 H         1 <0>         0.0556
     73 H35        -7.4969    1.4342   -7.9159 H         1 <0>         0.1368
     74 H36        -7.9013    2.9545   -9.8103 H         1 <0>         0.1479
     75 H37        -9.0955   -0.3593  -12.2148 H         1 <0>         0.1503
     76 H38        -8.6832   -1.8806  -10.3230 H         1 <0>         0.1472
     77 H39        -6.4718    0.0618   -7.0504 H         1 <0>         0.4211
@<TRIPOS>BOND
     1    1    2 1
     2    1   41 1
     3    1   42 1
     4    1   43 1
     5    2    7 ar
     6    2    3 ar
     7    3    4 ar
     8    3    9 1
     9    4    5 ar
    10    4    8 1
    11    5    6 ar
    12    6    7 ar
    13    6   44 1
    14    8   45 1
    15    8   46 1
    16    8   47 1
    17    9   10 2
    18    9   11 am
    19   11   16 1
    20   11   12 1
    21   12   13 1
    22   12   48 1
    23   12   49 1
    24   13   14 1
    25   13   50 1
    26   13   51 1
    27   14   15 1
    28   14   17 1
    29   14   18 1
    30   15   16 1
    31   15   52 1
    32   15   53 1
    33   16   54 1
    34   16   55 1
    35   17   56 1
    36   17   57 1
    37   17   58 1
    38   18   24 1
    39   18   19 1
    40   19   20 1
    41   19   59 1
    42   19   60 1
    43   20   21 1
    44   20   61 1
    45   20   62 1
    46   21   22 1
    47   21   26 1
    48   21   77 1
    49   22   23 1
    50   22   24 1
    51   22   25 1
    52   24   63 1
    53   24   64 1
    54   25   65 1
    55   25   66 1
    56   25   67 1
    57   26   27 1
    58   26   28 1
    59   26   31 1
    60   28   29 1
    61   28   68 1
    62   28   69 1
    63   29   30 1
    64   30   70 1
    65   30   71 1
    66   30   72 1
    67   31   36 ar
    68   31   32 ar
    69   32   33 ar
    70   32   73 1
    71   33   34 ar
    72   33   74 1
    73   34   35 ar
    74   34   37 1
    75   35   36 ar
    76   35   75 1
    77   36   76 1
    78   37   38 1
    79   37   39 1
    80   37   40 1
