@<TRIPOS>MOLECULE
ZINC18230030
   32    35     0     0     0
SMALL
USER_CHARGES

@<TRIPOS>ATOM
      1 C1         -0.0024    1.3636   -0.3852 C.ar      1 <0>        -0.1425
      2 C2          1.1843    2.0764   -0.3355 C.ar      1 <0>        -0.0866
      3 C3          2.3918    1.4233   -0.1939 C.ar      1 <0>        -0.1380
      4 C4          2.4281    0.0365   -0.0988 C.ar      1 <0>         0.1367
      5 C5          1.2250   -0.6816   -0.1490 C.ar      1 <0>        -0.0800
      6 C6          0.0127   -0.0131   -0.2925 C.ar      1 <0>        -0.0826
      7 C7          1.5867   -2.1097   -0.0238 C.2       1 <0>        -0.2056
      8 C8          0.7284   -3.2007   -0.0213 C.2       1 <0>         0.2986
      9 C9         -0.7457   -3.1540    0.0907 C.2       1 <0>         0.1829
     10 N1         -1.5003   -2.0946    0.2062 N.2       1 <0>        -0.2631
     11 O1         -2.9062   -2.2339    0.3026 O.3       1 <0>        -0.3834
     12 C10        -1.1809   -4.5701    0.0427 C.ar      1 <0>        -0.1642
     13 C11        -2.4307   -5.1782    0.1013 C.ar      1 <0>        -0.0259
     14 C12        -2.5280   -6.5532    0.0311 C.ar      1 <0>        -0.1512
     15 C13        -1.3849   -7.3243   -0.0969 C.ar      1 <0>        -0.0586
     16 C14        -0.1407   -6.7311   -0.1555 C.ar      1 <0>        -0.1447
     17 C15        -0.0228   -5.3458   -0.0871 C.ar      1 <0>         0.1647
     18 N2          1.0909   -4.5168   -0.1279 N.pl3     1 <0>        -0.6175
     19 C16         3.0493   -2.1247    0.0967 C.2       1 <0>         0.5684
     20 O2          3.7472   -3.1157    0.2192 O.2       1 <0>        -0.5230
     21 N3          3.4842   -0.8541    0.0471 N.am      1 <0>        -0.6490
     22 H1         -0.9413    1.8865   -0.4922 H         1 <0>         0.1273
     23 H2          1.1645    3.1537   -0.4088 H         1 <0>         0.1294
     24 H3          3.3103    1.9903   -0.1572 H         1 <0>         0.1266
     25 H4         -0.9122   -0.5695   -0.3311 H         1 <0>         0.1639
     26 H5         -3.3798   -1.3948    0.3850 H         1 <0>         0.4132
     27 H6         -3.3218   -4.5764    0.2018 H         1 <0>         0.1385
     28 H7         -3.4969   -7.0283    0.0763 H         1 <0>         0.1358
     29 H8         -1.4681   -8.3998   -0.1510 H         1 <0>         0.1377
     30 H9          0.7438   -7.3428   -0.2549 H         1 <0>         0.1344
     31 H10         2.0048   -4.8291   -0.2181 H         1 <0>         0.4389
     32 H11         4.4164   -0.5923    0.1057 H         1 <0>         0.4189
@<TRIPOS>BOND
     1    1    6 ar
     2    1    2 ar
     3    1   22 1
     4    2    3 ar
     5    2   23 1
     6    3    4 ar
     7    3   24 1
     8    4   21 1
     9    4    5 ar
    10    5    6 ar
    11    5    7 1
    12    6   25 1
    13    7    8 2
    14    7   19 1
    15    8   18 1
    16    8    9 1
    17    9   10 2
    18    9   12 1
    19   10   11 1
    20   11   26 1
    21   12   17 ar
    22   12   13 ar
    23   13   14 ar
    24   13   27 1
    25   14   15 ar
    26   14   28 1
    27   15   16 ar
    28   15   29 1
    29   16   17 ar
    30   16   30 1
    31   17   18 1
    32   18   31 1
    33   19   20 2
    34   19   21 am
    35   21   32 1
@<TRIPOS>MOLECULE
ZINC18230030
   32    35     0     0     0
SMALL
USER_CHARGES

@<TRIPOS>ATOM
      1 C1         -0.0166    1.3748    0.0096 C.ar      1 <0>        -0.1225
      2 C2          1.1716    2.0888    0.0021 C.ar      1 <0>        -0.0962
      3 C3          2.3849    1.4332   -0.0130 C.ar      1 <0>        -0.1155
      4 C4          2.4239    0.0437   -0.0209 C.ar      1 <0>         0.0981
      5 C5          1.2204   -0.6769   -0.0133 C.ar      1 <0>        -0.0528
      6 C6          0.0021   -0.0041    0.0020 C.ar      1 <0>        -0.0805
      7 C7          1.5974   -2.1049   -0.0246 C.2       1 <0>        -0.2093
      8 C8          2.9936   -2.1364   -0.0381 C.2       1 <0>         0.3333
      9 N1          3.4675   -0.8669   -0.0358 N.pl3     1 <0>        -0.5789
     10 H1          4.4078   -0.6287   -0.0438 H         1 <0>         0.4230
     11 O1          3.7505   -3.2537   -0.0509 O.3       1 <0>        -0.4537
     12 C9          0.7262   -3.2100   -0.0222 C.2       1 <0>         0.3448
     13 C10         0.1967   -3.8930    1.1657 C.2       1 <0>        -0.1671
     14 C11        -0.6625   -4.9778    0.6376 C.ar      1 <0>        -0.0626
     15 C12        -1.4332   -5.9613    1.2492 C.ar      1 <0>        -0.0741
     16 C13        -2.1438   -6.8553    0.4745 C.ar      1 <0>        -0.1171
     17 C14        -2.0895   -6.7734   -0.9072 C.ar      1 <0>        -0.1048
     18 C15        -1.3281   -5.8025   -1.5238 C.ar      1 <0>        -0.1132
     19 C16        -0.6049   -4.8915   -0.7591 C.ar      1 <0>         0.0632
     20 N2          0.2180   -3.8346   -1.1211 N.pl3     1 <0>        -0.5424
     21 H2          0.4086   -3.5762   -2.0364 H         1 <0>         0.4251
     22 N3          0.4346   -3.6041    2.4257 N.2       1 <0>        -0.2807
     23 O2         -0.0801   -4.2653    3.3097 O.2       1 <0>         0.0258
     24 H3         -0.9601    1.9001    0.0260 H         1 <0>         0.1313
     25 H4          1.1469    3.1685    0.0078 H         1 <0>         0.1340
     26 H5          3.3046    1.9993   -0.0191 H         1 <0>         0.1285
     27 H6         -0.9243   -0.5592    0.0083 H         1 <0>         0.1229
     28 H7          3.9627   -3.5749   -0.9380 H         1 <0>         0.4047
     29 H8         -1.4750   -6.0251    2.3265 H         1 <0>         0.1455
     30 H9         -2.7428   -7.6202    0.9462 H         1 <0>         0.1335
     31 H10        -2.6482   -7.4764   -1.5072 H         1 <0>         0.1325
     32 H11        -1.2933   -5.7487   -2.6019 H         1 <0>         0.1251
@<TRIPOS>BOND
     1    1    6 ar
     2    1    2 ar
     3    1   24 1
     4    2    3 ar
     5    2   25 1
     6    3    4 ar
     7    3   26 1
     8    4    9 1
     9    4    5 ar
    10    5    6 ar
    11    5    7 1
    12    6   27 1
    13    7    8 2
    14    7   12 1
    15    8    9 1
    16    8   11 1
    17    9   10 1
    18   11   28 1
    19   12   20 1
    20   12   13 2
    21   13   14 1
    22   13   22 1
    23   14   19 ar
    24   14   15 ar
    25   15   16 ar
    26   15   29 1
    27   16   17 ar
    28   16   30 1
    29   17   18 ar
    30   17   31 1
    31   18   19 ar
    32   18   32 1
    33   19   20 1
    34   20   21 1
    35   22   23 2
@<TRIPOS>MOLECULE
ZINC18230030
   32    35     0     0     0
SMALL
USER_CHARGES

@<TRIPOS>ATOM
      1 C1         -0.0166    1.3757    0.0096 C.ar      1 <0>        -0.1357
      2 C2          1.1722    2.0867    0.0021 C.ar      1 <0>        -0.0871
      3 C3          2.3853    1.4289   -0.0135 C.ar      1 <0>        -0.1330
      4 C4          2.4252    0.0389   -0.0214 C.ar      1 <0>         0.1465
      5 C5          1.2200   -0.6774   -0.0133 C.ar      1 <0>        -0.0875
      6 C6          0.0021   -0.0041    0.0020 C.ar      1 <0>        -0.0793
      7 C7          1.5867   -2.1097   -0.0238 C.2       1 <0>        -0.2136
      8 C8          0.7284   -3.2007   -0.0213 C.2       1 <0>         0.3077
      9 C9          1.1246   -4.6257   -0.0260 C.2       1 <0>         0.1435
     10 N1          2.3359   -5.1133   -0.0337 N.2       1 <0>        -0.2047
     11 O1          2.5348   -6.5152   -0.0374 O.3       1 <0>        -0.3879
     12 C10        -0.1511   -5.3804   -0.0197 C.ar      1 <0>        -0.1524
     13 C11        -0.4460   -6.7399   -0.0207 C.ar      1 <0>        -0.0325
     14 C12        -1.7620   -7.1560   -0.0139 C.ar      1 <0>        -0.1476
     15 C13        -2.7850   -6.2226   -0.0067 C.ar      1 <0>        -0.0650
     16 C14        -2.5032   -4.8720   -0.0061 C.ar      1 <0>        -0.1436
     17 C15        -1.1821   -4.4335   -0.0119 C.ar      1 <0>         0.1573
     18 N2         -0.6401   -3.1547   -0.0078 N.pl3     1 <0>        -0.6231
     19 C16         3.0542   -2.1288   -0.0380 C.2       1 <0>         0.5661
     20 O2          3.7569   -3.1240   -0.0505 O.2       1 <0>        -0.4814
     21 N3          3.4872   -0.8566   -0.0360 N.am      1 <0>        -0.6546
     22 H1         -0.9596    1.9020    0.0260 H         1 <0>         0.1299
     23 H2          1.1495    3.1665    0.0081 H         1 <0>         0.1317
     24 H3          3.3053    1.9946   -0.0200 H         1 <0>         0.1287
     25 H4         -0.9244   -0.5591    0.0079 H         1 <0>         0.1145
     26 H5          3.4646   -6.7806   -0.0431 H         1 <0>         0.4151
     27 H6          0.3522   -7.4674   -0.0270 H         1 <0>         0.1376
     28 H7         -1.9942   -8.2107   -0.0147 H         1 <0>         0.1348
     29 H8         -3.8126   -6.5549   -0.0018 H         1 <0>         0.1367
     30 H9         -3.3094   -4.1534   -0.0008 H         1 <0>         0.1326
     31 H10        -1.1620   -2.3371    0.0014 H         1 <0>         0.4278
     32 H11         4.4217   -0.5969   -0.0438 H         1 <0>         0.4186
@<TRIPOS>BOND
     1    1    6 ar
     2    1    2 ar
     3    1   22 1
     4    2    3 ar
     5    2   23 1
     6    3    4 ar
     7    3   24 1
     8    4   21 1
     9    4    5 ar
    10    5    6 ar
    11    5    7 1
    12    6   25 1
    13    7    8 2
    14    7   19 1
    15    8   18 1
    16    8    9 1
    17    9   10 2
    18    9   12 1
    19   10   11 1
    20   11   26 1
    21   12   17 ar
    22   12   13 ar
    23   13   14 ar
    24   13   27 1
    25   14   15 ar
    26   14   28 1
    27   15   16 ar
    28   15   29 1
    29   16   17 ar
    30   16   30 1
    31   17   18 1
    32   18   31 1
    33   19   20 2
    34   19   21 am
    35   21   32 1
@<TRIPOS>MOLECULE
ZINC01047455
   40    42     0     0     0
SMALL
USER_CHARGES

@<TRIPOS>ATOM
      1 C1         10.2571    0.5356    2.2250 C.ar      1 <0>        -0.0905
      2 C2          9.3710    1.0707    1.3091 C.ar      1 <0>        -0.1078
      3 C3          8.0517    1.2852    1.6663 C.ar      1 <0>        -0.0187
      4 C4          7.6193    0.9635    2.9404 C.ar      1 <0>        -0.0742
      5 C5          8.5065    0.4275    3.8564 C.ar      1 <0>        -0.0123
      6 C6          9.8257    0.2140    3.4982 C.ar      1 <0>        -0.1089
      7 Cl1         7.9650    0.0239    5.4557 Cl        1 <0>        -0.0245
      8 C7          6.1826    1.1973    3.3303 C.3       1 <0>         0.0011
      9 C8          5.3705   -0.0329    3.0169 C.2       1 <0>         0.0808
     10 N1          5.1230   -1.0622    3.7889 N.2       1 <0>        -0.4811
     11 C9          4.3867   -2.0746    3.3685 C.2       1 <0>         0.3250
     12 C10         3.9006   -1.9943    2.0982 C.2       1 <0>        -0.2920
     13 S1          4.5567   -0.4123    1.5935 S.3       1 <0>         0.1321
     14 N2          4.1180   -3.1818    4.1914 N.am      1 <0>        -0.6468
     15 C11         4.6973   -3.2760    5.4047 C.2       1 <0>         0.7216
     16 O1          5.3787   -2.3611    5.8258 O.2       1 <0>        -0.5226
     17 N3          4.5212   -4.3841    6.1513 N.am      1 <0>        -0.5902
     18 N4          3.7557   -5.4118    5.6783 N.3       1 <0>        -0.3076
     19 C12         2.5696   -5.6171    6.5224 C.3       1 <0>        -0.0042
     20 C13         1.7115   -6.7351    5.9243 C.3       1 <0>         0.0665
     21 O2          2.5008   -7.9214    5.8020 O.3       1 <0>        -0.3808
     22 C14         3.6638   -7.7575    4.9859 C.3       1 <0>         0.0666
     23 C15         4.5417   -6.6498    5.5745 C.3       1 <0>        -0.0019
     24 Cl2         6.9392    1.9584    0.5162 Cl        1 <0>        -0.0501
     25 H1         11.2859    0.3645    1.9443 H         1 <0>         0.1434
     26 H2          9.7087    1.3219    0.3144 H         1 <0>         0.1425
     27 H3         10.5185   -0.2045    4.2133 H         1 <0>         0.1410
     28 H4          6.1256    1.4079    4.3982 H         1 <0>         0.1179
     29 H5          5.7877    2.0455    2.7711 H         1 <0>         0.1095
     30 H6          3.2852   -2.6923    1.5500 H         1 <0>         0.1956
     31 H7          3.5156   -3.8781    3.8862 H         1 <0>         0.4226
     32 H8          4.9381   -4.4519    7.0245 H         1 <0>         0.4000
     33 H9          2.8827   -5.8971    7.5282 H         1 <0>         0.0566
     34 H10         1.9890   -4.6956    6.5646 H         1 <0>         0.0952
     35 H11         0.8607   -6.9297    6.5772 H         1 <0>         0.1068
     36 H12         1.3541   -6.4326    4.9400 H         1 <0>         0.0652
     37 H13         4.2250   -8.6916    4.9601 H         1 <0>         0.1069
     38 H14         3.3632   -7.4847    3.9743 H         1 <0>         0.0654
     39 H15         5.4006   -6.4822    4.9247 H         1 <0>         0.0955
     40 H16         4.8863   -6.9463    6.5652 H         1 <0>         0.0566
@<TRIPOS>BOND
     1    1    6 ar
     2    1    2 ar
     3    1   25 1
     4    2    3 ar
     5    2   26 1
     6    3    4 ar
     7    3   24 1
     8    4    5 ar
     9    4    8 1
    10    5    6 ar
    11    5    7 1
    12    6   27 1
    13    8    9 1
    14    8   28 1
    15    8   29 1
    16    9   13 1
    17    9   10 2
    18   10   11 1
    19   11   12 2
    20   11   14 1
    21   12   13 1
    22   12   30 1
    23   14   15 am
    24   14   31 1
    25   15   16 2
    26   15   17 am
    27   17   18 1
    28   17   32 1
    29   18   23 1
    30   18   19 1
    31   19   20 1
    32   19   33 1
    33   19   34 1
    34   20   21 1
    35   20   35 1
    36   20   36 1
    37   21   22 1
    38   22   23 1
    39   22   37 1
    40   22   38 1
    41   23   39 1
    42   23   40 1
@<TRIPOS>MOLECULE
ZINC13588925
   32    35     0     0     0
SMALL
USER_CHARGES

@<TRIPOS>ATOM
      1 C1         -0.0143    1.3784   -0.0472 C.ar      1 <0>        -0.1491
      2 C2          1.1684    2.0824    0.1059 C.ar      1 <0>        -0.0587
      3 C3          2.3775    1.4201    0.1617 C.ar      1 <0>        -0.1427
      4 C4          2.4195    0.0322    0.0643 C.ar      1 <0>         0.1622
      5 C5          1.2216   -0.6755   -0.0899 C.ar      1 <0>        -0.1623
      6 C6          0.0077    0.0018   -0.1451 C.ar      1 <0>        -0.0256
      7 C7          1.5784   -2.1122   -0.1640 C.2       1 <0>         0.1812
      8 N1          0.7675   -3.1257   -0.3073 N.2       1 <0>        -0.2637
      9 O1         -0.6277   -2.9070   -0.4103 O.3       1 <0>        -0.3779
     10 C8          3.0518   -2.1494   -0.0404 C.2       1 <0>         0.3076
     11 C9          3.8487   -3.2858   -0.0553 C.2       1 <0>        -0.2122
     12 C10         3.4078   -4.6941    0.0365 C.ar      1 <0>        -0.0752
     13 C11         2.1595   -5.2974    0.1580 C.ar      1 <0>        -0.0511
     14 C12         2.0679   -6.6733    0.2220 C.ar      1 <0>        -0.1246
     15 C13         3.2146   -7.4494    0.1658 C.ar      1 <0>        -0.0530
     16 C14         4.4569   -6.8608    0.0453 C.ar      1 <0>        -0.1331
     17 C15         4.5698   -5.4764   -0.0211 C.ar      1 <0>         0.1576
     18 N2          5.6748   -4.6425   -0.1406 N.am      1 <0>        -0.6474
     19 C16         5.3104   -3.3493   -0.1720 C.2       1 <0>         0.5708
     20 O2          6.0621   -2.3963   -0.2763 O.2       1 <0>        -0.5180
     21 I1          0.1927   -7.5894    0.4050 I         1 <0>        -0.0393
     22 N3          3.4859   -0.8573    0.0909 N.pl3     1 <0>        -0.6150
     23 H1         -0.9554    1.9069   -0.0855 H         1 <0>         0.1364
     24 H2          1.1442    3.1594    0.1819 H         1 <0>         0.1383
     25 H3          3.2934    1.9799    0.2810 H         1 <0>         0.1349
     26 H4         -0.9144   -0.5477   -0.2642 H         1 <0>         0.1394
     27 H5         -1.1461   -3.7167   -0.5138 H         1 <0>         0.4138
     28 H6          1.2664   -4.6917    0.2025 H         1 <0>         0.1727
     29 H7          3.1352   -8.5253    0.2171 H         1 <0>         0.1366
     30 H8          5.3432   -7.4765    0.0029 H         1 <0>         0.1366
     31 H9          6.5916   -4.9540   -0.1983 H         1 <0>         0.4214
     32 H10         4.4153   -0.5976    0.1894 H         1 <0>         0.4396
@<TRIPOS>BOND
     1    1    6 ar
     2    1    2 ar
     3    1   23 1
     4    2    3 ar
     5    2   24 1
     6    3    4 ar
     7    3   25 1
     8    4   22 1
     9    4    5 ar
    10    5    6 ar
    11    5    7 1
    12    6   26 1
    13    7    8 2
    14    7   10 1
    15    8    9 1
    16    9   27 1
    17   10   11 2
    18   10   22 1
    19   11   19 1
    20   11   12 1
    21   12   17 ar
    22   12   13 ar
    23   13   14 ar
    24   13   28 1
    25   14   15 ar
    26   14   21 1
    27   15   16 ar
    28   15   29 1
    29   16   17 ar
    30   16   30 1
    31   17   18 1
    32   18   19 am
    33   18   31 1
    34   19   20 2
    35   22   32 1
@<TRIPOS>MOLECULE
ZINC13588925
   32    35     0     0     0
SMALL
USER_CHARGES

@<TRIPOS>ATOM
      1 C1         -0.0166    1.3757    0.0096 C.ar      1 <0>        -0.1157
      2 C2          1.1722    2.0867    0.0021 C.ar      1 <0>        -0.1041
      3 C3          2.3841    1.4282   -0.0135 C.ar      1 <0>        -0.1115
      4 C4          2.4231    0.0368   -0.0214 C.ar      1 <0>         0.0632
      5 C5          1.2189   -0.6781   -0.0133 C.ar      1 <0>        -0.0616
      6 C6          0.0021   -0.0041    0.0020 C.ar      1 <0>        -0.0747
      7 C7          1.5783   -2.1151   -0.0241 C.2       1 <0>        -0.1706
      8 C8          3.0469   -2.1434   -0.0386 C.2       1 <0>         0.3429
      9 N1          3.4869   -0.8540   -0.0363 N.pl3     1 <0>        -0.5358
     10 H1          4.4210   -0.5930   -0.0441 H         1 <0>         0.4271
     11 C9          3.8545   -3.2957   -0.0519 C.2       1 <0>        -0.2024
     12 C10         4.3575   -4.0137   -1.2405 C.ar      1 <0>        -0.0518
     13 C11         4.2198   -3.8184   -2.6117 C.ar      1 <0>        -0.0403
     14 C12         4.8301   -4.6893   -3.4905 C.ar      1 <0>        -0.1066
     15 C13         5.5775   -5.7545   -3.0113 C.ar      1 <0>        -0.0672
     16 C14         5.7204   -5.9581   -1.6547 C.ar      1 <0>        -0.1072
     17 C15         5.1131   -5.0907   -0.7540 C.ar      1 <0>         0.1146
     18 N2          5.0816   -5.0447    0.6302 N.pl3     1 <0>        -0.5770
     19 H2          5.5269   -5.6786    1.2139 H         1 <0>         0.4257
     20 C16         4.3477   -3.9882    1.0561 C.2       1 <0>         0.3392
     21 O1          4.1258   -3.6593    2.3462 O.3       1 <0>        -0.4580
     22 I1          4.6265   -4.4019   -5.5557 I         1 <0>        -0.0291
     23 N3          0.7595   -3.1433   -0.0209 N.2       1 <0>        -0.2829
     24 O2         -0.4450   -2.9626   -0.0083 O.2       1 <0>         0.0229
     25 H3         -0.9595    1.9021    0.0260 H         1 <0>         0.1339
     26 H4          1.1499    3.1664    0.0081 H         1 <0>         0.1331
     27 H5          3.3045    1.9933   -0.0200 H         1 <0>         0.1259
     28 H6         -0.9246   -0.5587    0.0075 H         1 <0>         0.1457
     29 H7          3.6376   -2.9893   -2.9858 H         1 <0>         0.1303
     30 H8          6.0517   -6.4312   -3.7067 H         1 <0>         0.1406
     31 H9          6.3041   -6.7913   -1.2923 H         1 <0>         0.1381
     32 H10         3.3379   -4.0708    2.7270 H         1 <0>         0.4134
@<TRIPOS>BOND
     1    1    6 ar
     2    1    2 ar
     3    1   25 1
     4    2    3 ar
     5    2   26 1
     6    3    4 ar
     7    3   27 1
     8    4    9 1
     9    4    5 ar
    10    5    6 ar
    11    5    7 1
    12    6   28 1
    13    7    8 2
    14    7   23 1
    15    8    9 1
    16    8   11 1
    17    9   10 1
    18   11   20 2
    19   11   12 1
    20   12   17 ar
    21   12   13 ar
    22   13   14 ar
    23   13   29 1
    24   14   15 ar
    25   14   22 1
    26   15   16 ar
    27   15   30 1
    28   16   17 ar
    29   16   31 1
    30   17   18 1
    31   18   19 1
    32   18   20 1
    33   20   21 1
    34   21   32 1
    35   23   24 2
@<TRIPOS>MOLECULE
ZINC14806670
   36    39     0     0     0
SMALL
USER_CHARGES

@<TRIPOS>ATOM
      1 C1          0.2964    1.5846   -0.5012 C.ar      1 <0>        -0.1587
      2 C2          0.9375    1.9014    0.6887 C.ar      1 <0>         0.0013
      3 C3          1.8696    1.0439    1.2366 C.ar      1 <0>        -0.1555
      4 C4          2.1759   -0.1524    0.5963 C.ar      1 <0>         0.2253
      5 C5          1.5235   -0.4709   -0.6110 C.ar      1 <0>        -0.2059
      6 C6          0.5789    0.4167   -1.1495 C.ar      1 <0>         0.0109
      7 C7          2.0128   -1.7283   -1.0473 C.2       1 <0>         0.3792
      8 C8          2.9963   -2.1575   -0.0428 C.2       1 <0>         0.1377
      9 N1          3.0539   -1.1711    0.9232 N.pl3     1 <0>        -0.5897
     10 H1          3.6224   -1.1896    1.7089 H         1 <0>         0.4493
     11 C9          3.7274   -3.3302   -0.0607 C.2       1 <0>        -0.0284
     12 C10         5.1890   -3.4869    0.0352 C.ar      1 <0>        -0.1747
     13 C11         6.2461   -2.5909    0.1647 C.ar      1 <0>         0.0690
     14 C12         7.5421   -3.0657    0.2297 C.ar      1 <0>        -0.6796
     15 C13         7.7902   -4.4276    0.1658 C.ar      1 <0>         0.0610
     16 C14         6.7536   -5.3312    0.0373 C.ar      1 <0>        -0.1589
     17 C15         5.4342   -4.8778   -0.0302 C.ar      1 <0>         0.1960
     18 N2          4.2545   -5.5424   -0.1548 N.am      1 <0>        -0.6228
     19 C16         3.2158   -4.7283   -0.1753 C.2       1 <0>         0.5552
     20 O1          2.0450   -5.0595   -0.2737 O.2       1 <0>        -0.4705
     21 S1          8.8839   -1.9356    0.3937 S.o2      1 <0>         2.6854
     22 O2         10.0320   -2.5455   -0.2590 O.2       1 <0>        -1.0467
     23 O3          8.4790   -0.7012   -0.2608 O.2       1 <0>        -1.0534
     24 O4          9.1058   -1.7474    1.8190 O.3       1 <0>        -1.0474
     25 N3          1.6454   -2.4025   -2.1704 N.pl3     1 <0>        -0.4591
     26 O5          0.5842   -1.9169   -2.9724 O.3       1 <0>        -0.2793
     27 H2         -0.4339    2.2644   -0.9146 H         1 <0>         0.1484
     28 H3          0.7045    2.8289    1.1906 H         1 <0>         0.1530
     29 H4          2.3618    1.3020    2.1627 H         1 <0>         0.1523
     30 H5          0.0765    0.1763   -2.0748 H         1 <0>         0.1468
     31 H6          6.0543   -1.5292    0.2139 H         1 <0>         0.1476
     32 H7          8.8073   -4.7871    0.2169 H         1 <0>         0.1611
     33 H8          6.9635   -6.3895   -0.0111 H         1 <0>         0.1487
     34 H9          2.1103   -3.2159   -2.4217 H         1 <0>         0.4428
     35 H10         0.3961   -2.4624   -3.7483 H         1 <0>         0.4248
     36 H11         4.1839   -6.5078   -0.2174 H         1 <0>         0.4347
@<TRIPOS>BOND
     1    1    6 ar
     2    1    2 ar
     3    1   27 1
     4    2    3 ar
     5    2   28 1
     6    3    4 ar
     7    3   29 1
     8    4    9 1
     9    4    5 ar
    10    5    6 ar
    11    5    7 1
    12    6   30 1
    13    7    8 2
    14    7   25 1
    15    8    9 1
    16    8   11 1
    17    9   10 1
    18   11   19 1
    19   11   12 2
    20   12   17 ar
    21   12   13 ar
    22   13   14 ar
    23   13   31 1
    24   14   15 ar
    25   14   21 1
    26   15   16 ar
    27   15   32 1
    28   16   17 ar
    29   16   33 1
    30   17   18 2
    31   18   19 am
    32   18   36 1
    33   19   20 2
    34   21   22 2
    35   21   23 2
    36   21   24 1
    37   25   26 1
    38   25   34 1
    39   26   35 1
