@<TRIPOS>MOLECULE
ZINC00388510
   17    18     0     0     0
SMALL
USER_CHARGES

@<TRIPOS>ATOM
      1 C1         -0.0166    1.3741    0.0096 C.ar      1 <0>        -0.0719
      2 C2          1.1656    2.1034    0.0022 C.ar      1 <0>        -0.1179
      3 C3          2.3879    1.4652   -0.0115 C.ar      1 <0>        -0.0385
      4 C4          2.4294    0.0756   -0.0179 C.ar      1 <0>        -0.1704
      5 C5          1.2247   -0.6702   -0.0134 C.ar      1 <0>        -0.0029
      6 C6          0.0021   -0.0041    0.0020 C.ar      1 <0>        -0.0999
      7 C7          1.3349   -2.1321   -0.0299 C.2       1 <0>        -0.1015
      8 C8          2.5357   -2.6954    0.2033 C.2       1 <0>         0.1466
      9 O1          3.6294   -1.9511    0.4650 O.3       1 <0>        -0.2676
     10 C9          3.6849   -0.6907   -0.0278 C.2       1 <0>         0.5344
     11 O2          4.7202   -0.2168   -0.4570 O.2       1 <0>        -0.4119
     12 Cl1         2.6794   -4.4251    0.1668 Cl        1 <0>         0.0302
     13 Cl2        -0.0580   -3.1195   -0.3439 Cl        1 <0>        -0.0042
     14 H1         -0.9631    1.8939    0.0260 H         1 <0>         0.1414
     15 H2          1.1270    3.1827    0.0069 H         1 <0>         0.1422
     16 H3          3.3031    2.0387   -0.0176 H         1 <0>         0.1472
     17 H4         -0.9227   -0.5619    0.0080 H         1 <0>         0.1448
@<TRIPOS>BOND
     1    1    6 ar
     2    1    2 ar
     3    1   14 1
     4    2    3 ar
     5    2   15 1
     6    3    4 ar
     7    3   16 1
     8    4   10 1
     9    4    5 ar
    10    5    6 ar
    11    5    7 1
    12    6   17 1
    13    7    8 2
    14    7   13 1
    15    8    9 1
    16    8   12 1
    17    9   10 1
    18   10   11 2
