@<TRIPOS>MOLECULE
ZINC01540228
   51    54     0     0     0
SMALL
USER_CHARGES

@<TRIPOS>ATOM
      1 C1          0.4170    1.4732    0.0360 C.3       1 <0>        -0.0850
      2 C2          0.1935   -0.0170    0.0132 C.2       1 <0>        -0.1034
      3 C3          0.1739   -0.8345   -1.0823 C.2       1 <0>         0.0475
      4 N1         -0.0613   -2.1006   -0.6256 N.pl3     1 <0>        -0.2296
      5 N2         -0.1813   -2.0898    0.6532 N.2       1 <0>        -0.2348
      6 C4         -0.0338   -0.8645    1.1195 C.2       1 <0>        -0.0016
      7 C5         -0.0985   -0.4542    2.5368 C.2       1 <0>         0.6243
      8 O1          0.0512    0.7138    2.8390 O.2       1 <0>        -0.4953
      9 N3         -0.3236   -1.3747    3.4952 N.am      1 <0>        -0.5719
     10 N4         -0.3835   -0.9953    4.8060 N.3       1 <0>        -0.2924
     11 C6          0.7092   -1.5991    5.5791 C.3       1 <0>         0.0381
     12 C7          0.6976   -1.0401    7.0037 C.3       1 <0>        -0.1138
     13 C8         -0.6503   -1.3540    7.6589 C.3       1 <0>        -0.1252
     14 C9         -1.7740   -0.7554    6.8084 C.3       1 <0>        -0.1137
     15 C10        -1.6907   -1.3226    5.3895 C.3       1 <0>         0.0385
     16 C11        -0.1580   -3.2413   -1.4326 C.ar      1 <0>         0.1383
     17 C12        -0.9653   -3.2277   -2.5625 C.ar      1 <0>        -0.0784
     18 C13        -1.0587   -4.3534   -3.3568 C.ar      1 <0>        -0.0881
     19 C14        -0.3490   -5.4954   -3.0279 C.ar      1 <0>        -0.0132
     20 C15         0.4560   -5.5128   -1.9027 C.ar      1 <0>        -0.0912
     21 C16         0.5581   -4.3870   -1.1074 C.ar      1 <0>        -0.0121
     22 Cl1         1.5741   -4.4064    0.3001 Cl        1 <0>        -0.0235
     23 Cl2        -0.4696   -6.9086   -4.0289 Cl        1 <0>        -0.0385
     24 C17         0.3696   -0.4268   -2.4910 C.ar      1 <0>        -0.0243
     25 C18        -0.4173    0.5843   -3.0431 C.ar      1 <0>        -0.0792
     26 C19        -0.2304    0.9603   -4.3572 C.ar      1 <0>        -0.1055
     27 C20         0.7359    0.3363   -5.1279 C.ar      1 <0>        -0.0237
     28 C21         1.5198   -0.6678   -4.5852 C.ar      1 <0>        -0.1047
     29 C22         1.3457   -1.0481   -3.2706 C.ar      1 <0>        -0.0846
     30 Cl3         0.9651    0.8142   -6.7810 Cl        1 <0>        -0.0608
     31 H1          1.4830    1.6792    0.1325 H         1 <0>         0.0742
     32 H2          0.0448    1.9106   -0.8905 H         1 <0>         0.0668
     33 H3         -0.1151    1.9075    0.8823 H         1 <0>         0.0894
     34 H4         -0.4431   -2.3066    3.2541 H         1 <0>         0.3863
     35 H5          0.5763   -2.6805    5.6122 H         1 <0>         0.0400
     36 H6          1.6623   -1.3649    5.1049 H         1 <0>         0.0813
     37 H7          1.4991   -1.5002    7.5817 H         1 <0>         0.0737
     38 H8          0.8443    0.0395    6.9722 H         1 <0>         0.0774
     39 H9         -0.7801   -2.4342    7.7259 H         1 <0>         0.0604
     40 H10        -0.6793   -0.9200    8.6584 H         1 <0>         0.0702
     41 H11        -2.7384   -1.0119    7.2468 H         1 <0>         0.0741
     42 H12        -1.6662    0.3287    6.7738 H         1 <0>         0.0774
     43 H13        -2.4808   -0.8875    4.7774 H         1 <0>         0.0821
     44 H14        -1.8124   -2.4053    5.4234 H         1 <0>         0.0406
     45 H15        -1.5200   -2.3374   -2.8196 H         1 <0>         0.1511
     46 H16        -1.6865   -4.3429   -4.2355 H         1 <0>         0.1550
     47 H17         1.0081   -6.4054   -1.6480 H         1 <0>         0.1575
     48 H18        -1.1716    1.0715   -2.4430 H         1 <0>         0.1405
     49 H19        -0.8392    1.7427   -4.7858 H         1 <0>         0.1417
     50 H20         2.2721   -1.1511   -5.1910 H         1 <0>         0.1392
     51 H21         1.9607   -1.8283   -2.8471 H         1 <0>         0.1290
@<TRIPOS>BOND
     1    1    2 1
     2    1   31 1
     3    1   32 1
     4    1   33 1
     5    2    6 1
     6    2    3 2
     7    3    4 1
     8    3   24 1
     9    4    5 1
    10    4   16 1
    11    5    6 2
    12    6    7 1
    13    7    8 2
    14    7    9 am
    15    9   10 1
    16    9   34 1
    17   10   15 1
    18   10   11 1
    19   11   12 1
    20   11   35 1
    21   11   36 1
    22   12   13 1
    23   12   37 1
    24   12   38 1
    25   13   14 1
    26   13   39 1
    27   13   40 1
    28   14   15 1
    29   14   41 1
    30   14   42 1
    31   15   43 1
    32   15   44 1
    33   16   21 ar
    34   16   17 ar
    35   17   18 ar
    36   17   45 1
    37   18   19 ar
    38   18   46 1
    39   19   20 ar
    40   19   23 1
    41   20   21 ar
    42   20   47 1
    43   21   22 1
    44   24   29 ar
    45   24   25 ar
    46   25   26 ar
    47   25   48 1
    48   26   27 ar
    49   26   49 1
    50   27   28 ar
    51   27   30 1
    52   28   29 ar
    53   28   50 1
    54   29   51 1
@<TRIPOS>MOLECULE
ZINC17654244
   61    60     0     0     0
SMALL
USER_CHARGES
(5Z,8Z,11Z,14Z)-1-(fluoro-methoxy-phosphoryl)icosa-5,8,11,14-tetraene
@<TRIPOS>ATOM
      1 C1        -11.8196   13.2176    9.8711 C.3       1 <0>        -0.1543
      2 C2        -10.9707   13.0657    8.6073 C.3       1 <0>        -0.1259
      3 C3        -11.6929   12.1528    7.6145 C.3       1 <0>        -0.1214
      4 C4        -10.8440   12.0009    6.3507 C.3       1 <0>        -0.1145
      5 C5        -11.5663   11.0879    5.3578 C.3       1 <0>        -0.1025
      6 C6        -10.7302   10.9383    4.1130 C.2       1 <0>        -0.1583
      7 C7        -10.4412    9.7445    3.6577 C.2       1 <0>        -0.1532
      8 C8        -11.0768    8.5271    4.2782 C.3       1 <0>        -0.0835
      9 C9        -11.7351    7.7011    3.2034 C.2       1 <0>        -0.1510
     10 C10       -11.4475    6.4284    3.0870 C.2       1 <0>        -0.1520
     11 C11       -10.5979    5.7494    4.1301 C.3       1 <0>        -0.0842
     12 C12       -11.3122    4.5243    4.6402 C.2       1 <0>        -0.1501
     13 C13       -10.7100    3.3610    4.6246 C.2       1 <0>        -0.1521
     14 C14        -9.2524    3.2720    4.2528 C.3       1 <0>        -0.0854
     15 C15        -8.5067    2.5148    5.3213 C.2       1 <0>        -0.1476
     16 C16        -7.7706    1.4804    4.9984 C.2       1 <0>        -0.1622
     17 C17        -7.5360    1.1459    3.5479 C.3       1 <0>        -0.1044
     18 C18        -6.0339    1.0055    3.2934 C.3       1 <0>        -0.1085
     19 C19        -5.7957    0.6658    1.8207 C.3       1 <0>        -0.1174
     20 C20        -4.2936    0.5254    1.5661 C.3       1 <0>        -0.7259
     21 P1         -4.0098    0.1207   -0.1886 P.3       1 <0>         2.2098
     22 O1         -4.5553    1.2024   -1.0388 O.2       1 <0>        -0.9851
     23 O2         -2.4291   -0.0270   -0.4564 O.3       1 <0>        -0.7306
     24 C21        -1.8831   -0.3417   -1.7390 C.3       1 <0>         0.0716
     25 F1         -4.7739   -1.3173   -0.5588 F         1 <0>        -0.3637
     26 H1        -11.9748   12.2386   10.3244 H         1 <0>         0.0533
     27 H2        -11.3050   13.8680   10.5784 H         1 <0>         0.0535
     28 H3        -12.7837   13.6545    9.6109 H         1 <0>         0.0535
     29 H4        -10.0066   12.6288    8.8676 H         1 <0>         0.0604
     30 H5        -10.8154   14.0448    8.1540 H         1 <0>         0.0607
     31 H6        -12.6570   12.5897    7.3542 H         1 <0>         0.0614
     32 H7        -11.8482   11.1737    8.0677 H         1 <0>         0.0609
     33 H8         -9.8799   11.5640    6.6109 H         1 <0>         0.0617
     34 H9        -10.6888   12.9799    5.8974 H         1 <0>         0.0618
     35 H10       -12.5304   11.5248    5.0976 H         1 <0>         0.0689
     36 H11       -11.7216   10.1089    5.8111 H         1 <0>         0.0754
     37 H12       -10.3692   11.8153    3.5963 H         1 <0>         0.1090
     38 H13        -9.7474    9.6327    2.8376 H         1 <0>         0.1088
     39 H14       -11.8255    8.8394    5.0063 H         1 <0>         0.0838
     40 H15       -10.3116    7.9318    4.7765 H         1 <0>         0.0822
     41 H16       -12.4441    8.1584    2.5291 H         1 <0>         0.1102
     42 H17       -11.8193    5.8657    2.2434 H         1 <0>         0.1106
     43 H18       -10.4195    6.4367    4.9571 H         1 <0>         0.0833
     44 H19        -9.6451    5.4570    3.6886 H         1 <0>         0.0832
     45 H20       -12.3204    4.6055    5.0186 H         1 <0>         0.1105
     46 H21       -11.2583    2.4658    4.8782 H         1 <0>         0.1102
     47 H22        -8.8383    4.2763    4.1630 H         1 <0>         0.0841
     48 H23        -9.1514    2.7509    3.3007 H         1 <0>         0.0847
     49 H24        -8.5793    2.8250    6.3533 H         1 <0>         0.1099
     50 H25        -7.3318    0.8674    5.7718 H         1 <0>         0.1089
     51 H26        -7.9377    1.9425    2.9217 H         1 <0>         0.0806
     52 H27        -8.0347    0.2073    3.3062 H         1 <0>         0.0728
     53 H28        -5.6321    0.2089    3.9195 H         1 <0>         0.0625
     54 H29        -5.5351    1.9441    3.5350 H         1 <0>         0.0648
     55 H30        -6.1974    1.4625    1.1945 H         1 <0>         0.0878
     56 H31        -6.2944   -0.2728    1.5790 H         1 <0>         0.0746
     57 H32        -3.8918   -0.2712    2.1923 H         1 <0>         0.1025
     58 H33        -3.7948    1.4640    1.8078 H         1 <0>         0.1213
     59 H34        -2.2668   -1.3066   -2.0704 H         1 <0>         0.0612
     60 H35        -0.7963   -0.3872   -1.6700 H         1 <0>         0.1019
     61 H36        -2.1698    0.4286   -2.4549 H         1 <0>         0.0714
@<TRIPOS>BOND
     1    1    2 1
     2    1   26 1
     3    1   27 1
     4    1   28 1
     5    2    3 1
     6    2   29 1
     7    2   30 1
     8    3    4 1
     9    3   31 1
    10    3   32 1
    11    4    5 1
    12    4   33 1
    13    4   34 1
    14    5    6 1
    15    5   35 1
    16    5   36 1
    17    6    7 2
    18    6   37 1
    19    7    8 1
    20    7   38 1
    21    8    9 1
    22    8   39 1
    23    8   40 1
    24    9   10 2
    25    9   41 1
    26   10   11 1
    27   10   42 1
    28   11   12 1
    29   11   43 1
    30   11   44 1
    31   12   13 2
    32   12   45 1
    33   13   14 1
    34   13   46 1
    35   14   15 1
    36   14   47 1
    37   14   48 1
    38   15   16 2
    39   15   49 1
    40   16   17 1
    41   16   50 1
    42   17   18 1
    43   17   51 1
    44   17   52 1
    45   18   19 1
    46   18   53 1
    47   18   54 1
    48   19   20 1
    49   19   55 1
    50   19   56 1
    51   20   21 1
    52   20   57 1
    53   20   58 1
    54   21   22 2
    55   21   23 1
    56   21   25 1
    57   23   24 1
    58   24   59 1
    59   24   60 1
    60   24   61 1
@<TRIPOS>MOLECULE
ZINC17654246
   61    60     0     0     0
SMALL
USER_CHARGES
(5Z,8Z,11Z,14Z)-1-(fluoro-methoxy-phosphoryl)icosa-5,8,11,14-tetraene
@<TRIPOS>ATOM
      1 C1        -11.8196   13.2177    9.8709 C.3       1 <0>        -0.1543
      2 C2        -10.9707   13.0658    8.6072 C.3       1 <0>        -0.1259
      3 C3        -11.6930   12.1528    7.6143 C.3       1 <0>        -0.1215
      4 C4        -10.8441   12.0009    6.3505 C.3       1 <0>        -0.1144
      5 C5        -11.5664   11.0880    5.3577 C.3       1 <0>        -0.1027
      6 C6        -10.7302   10.9383    4.1129 C.2       1 <0>        -0.1578
      7 C7        -10.4412    9.7445    3.6576 C.2       1 <0>        -0.1535
      8 C8        -11.0768    8.5271    4.2781 C.3       1 <0>        -0.0836
      9 C9        -11.7352    7.7011    3.2033 C.2       1 <0>        -0.1508
     10 C10       -11.4476    6.4284    3.0869 C.2       1 <0>        -0.1523
     11 C11       -10.5979    5.7494    4.1300 C.3       1 <0>        -0.0837
     12 C12       -11.3122    4.5244    4.6401 C.2       1 <0>        -0.1507
     13 C13       -10.7101    3.3610    4.6245 C.2       1 <0>        -0.1519
     14 C14        -9.2524    3.2720    4.2527 C.3       1 <0>        -0.0847
     15 C15        -8.5067    2.5148    5.3213 C.2       1 <0>        -0.1493
     16 C16        -7.7706    1.4805    4.9984 C.2       1 <0>        -0.1608
     17 C17        -7.5360    1.1459    3.5479 C.3       1 <0>        -0.1046
     18 C18        -6.0339    1.0055    3.2933 C.3       1 <0>        -0.1085
     19 C19        -5.7957    0.6658    1.8207 C.3       1 <0>        -0.1173
     20 C20        -4.2936    0.5254    1.5661 C.3       1 <0>        -0.7260
     21 P1         -4.0098    0.1207   -0.1886 P.3       1 <0>         2.2100
     22 O1         -4.6870   -1.1537   -0.5167 O.2       1 <0>        -0.9853
     23 O2         -2.4291   -0.0270   -0.4564 O.3       1 <0>        -0.7306
     24 C21        -1.8831   -0.3417   -1.7390 C.3       1 <0>         0.0715
     25 F1         -4.6253    1.3412   -1.1480 F         1 <0>        -0.3637
     26 H1        -12.7837   13.6546    9.6107 H         1 <0>         0.0535
     27 H2        -11.9749   12.2387   10.3242 H         1 <0>         0.0533
     28 H3        -11.3050   13.8681   10.5783 H         1 <0>         0.0536
     29 H4        -10.0066   12.6289    8.8674 H         1 <0>         0.0603
     30 H5        -10.8155   14.0448    8.1539 H         1 <0>         0.0606
     31 H6        -12.6571   12.5897    7.3540 H         1 <0>         0.0615
     32 H7        -11.8482   11.1738    8.0676 H         1 <0>         0.0609
     33 H8         -9.8800   11.5640    6.6108 H         1 <0>         0.0617
     34 H9        -10.6888   12.9799    5.8972 H         1 <0>         0.0618
     35 H10       -12.5305   11.5249    5.0974 H         1 <0>         0.0691
     36 H11       -11.7216   10.1089    5.8110 H         1 <0>         0.0755
     37 H12       -10.3693   11.8153    3.5961 H         1 <0>         0.1090
     38 H13        -9.7474    9.6327    2.8375 H         1 <0>         0.1085
     39 H14       -11.8255    8.8394    5.0062 H         1 <0>         0.0839
     40 H15       -10.3117    7.9318    4.7764 H         1 <0>         0.0822
     41 H16       -12.4441    8.1584    2.5290 H         1 <0>         0.1102
     42 H17       -11.8193    5.8657    2.2433 H         1 <0>         0.1105
     43 H18       -10.4195    6.4367    4.9570 H         1 <0>         0.0832
     44 H19        -9.6452    5.4570    3.6886 H         1 <0>         0.0827
     45 H20       -12.3205    4.6055    5.0185 H         1 <0>         0.1106
     46 H21       -11.2583    2.4658    4.8782 H         1 <0>         0.1104
     47 H22        -8.8383    4.2763    4.1630 H         1 <0>         0.0835
     48 H23        -9.1514    2.7509    3.3007 H         1 <0>         0.0843
     49 H24        -8.5793    2.8250    6.3532 H         1 <0>         0.1099
     50 H25        -7.3318    0.8675    5.7718 H         1 <0>         0.1093
     51 H26        -7.9377    1.9425    2.9217 H         1 <0>         0.0794
     52 H27        -8.0347    0.2073    3.3062 H         1 <0>         0.0744
     53 H28        -5.6321    0.2089    3.9195 H         1 <0>         0.0646
     54 H29        -5.5351    1.9441    3.5350 H         1 <0>         0.0628
     55 H30        -6.1974    1.4624    1.1945 H         1 <0>         0.0742
     56 H31        -6.2944   -0.2728    1.5790 H         1 <0>         0.0882
     57 H32        -3.8918   -0.2712    2.1923 H         1 <0>         0.1214
     58 H33        -3.7948    1.4640    1.8078 H         1 <0>         0.1025
     59 H34        -2.2668   -1.3067   -2.0703 H         1 <0>         0.0714
     60 H35        -0.7962   -0.3872   -1.6699 H         1 <0>         0.1019
     61 H36        -2.1698    0.4286   -2.4549 H         1 <0>         0.0612
@<TRIPOS>BOND
     1    1    2 1
     2    1   26 1
     3    1   27 1
     4    1   28 1
     5    2    3 1
     6    2   29 1
     7    2   30 1
     8    3    4 1
     9    3   31 1
    10    3   32 1
    11    4    5 1
    12    4   33 1
    13    4   34 1
    14    5    6 1
    15    5   35 1
    16    5   36 1
    17    6    7 2
    18    6   37 1
    19    7    8 1
    20    7   38 1
    21    8    9 1
    22    8   39 1
    23    8   40 1
    24    9   10 2
    25    9   41 1
    26   10   11 1
    27   10   42 1
    28   11   12 1
    29   11   43 1
    30   11   44 1
    31   12   13 2
    32   12   45 1
    33   13   14 1
    34   13   46 1
    35   14   15 1
    36   14   47 1
    37   14   48 1
    38   15   16 2
    39   15   49 1
    40   16   17 1
    41   16   50 1
    42   17   18 1
    43   17   51 1
    44   17   52 1
    45   18   19 1
    46   18   53 1
    47   18   54 1
    48   19   20 1
    49   19   55 1
    50   19   56 1
    51   20   21 1
    52   20   57 1
    53   20   58 1
    54   21   22 2
    55   21   23 1
    56   21   25 1
    57   23   24 1
    58   24   59 1
    59   24   60 1
    60   24   61 1
@<TRIPOS>MOLECULE
ZINC13675373
   61    60     0     0     0
SMALL
USER_CHARGES

@<TRIPOS>ATOM
      1 C1          0.6453    3.0200   -2.1184 C.3       1 <0>        -0.1543
      2 C2          0.9747    1.5406   -1.9090 C.3       1 <0>        -0.1260
      3 C3          1.2342    0.8791   -3.2640 C.3       1 <0>        -0.1214
      4 C4          1.5635   -0.6003   -3.0546 C.3       1 <0>        -0.1145
      5 C5          1.8231   -1.2617   -4.4095 C.3       1 <0>        -0.1026
      6 C6          2.1475   -2.7189   -4.2033 C.2       1 <0>        -0.1578
      7 C7          1.4879   -3.6368   -4.8654 C.2       1 <0>        -0.1537
      8 C8          0.5222   -3.2356   -5.9506 C.3       1 <0>        -0.0838
      9 C9          0.8663   -3.9645   -7.2239 C.2       1 <0>        -0.1506
     10 C10        -0.0571   -4.6399   -7.8620 C.2       1 <0>        -0.1525
     11 C11        -1.4947   -4.5556   -7.4178 C.3       1 <0>        -0.0838
     12 C12        -2.3604   -4.1684   -8.5889 C.2       1 <0>        -0.1514
     13 C13        -3.4010   -4.8991   -8.9041 C.2       1 <0>        -0.1519
     14 C14        -3.8363   -6.0212   -7.9973 C.3       1 <0>        -0.0833
     15 C15        -5.2963   -5.8582   -7.6615 C.2       1 <0>        -0.1517
     16 C16        -6.1304   -6.8470   -7.8682 C.2       1 <0>        -0.1574
     17 C17        -5.6088   -8.1980   -8.2850 C.3       1 <0>        -0.1016
     18 C18        -6.1669   -9.2713   -7.3483 C.3       1 <0>        -0.0995
     19 C19        -5.6374  -10.6430   -7.7715 C.3       1 <0>        -0.1402
     20 C20        -6.1871  -11.7002   -6.8489 C.2       1 <0>         0.5136
     21 O1         -6.9293  -11.3874   -5.9421 O.2       1 <0>        -0.5320
     22 N1         -5.8539  -12.9933   -7.0314 N.am      1 <0>        -0.7361
     23 C21        -6.3883  -14.0210   -6.1345 C.3       1 <0>         0.1079
     24 C22        -5.8588  -15.3927   -6.5577 C.3       1 <0>        -0.0498
     25 Cl1        -6.5164  -16.6575   -5.4539 Cl        1 <0>        -0.1588
     26 H1          1.4846    3.5132   -2.6087 H         1 <0>         0.0534
     27 H2         -0.2437    3.1095   -2.7426 H         1 <0>         0.0534
     28 H3          0.4604    3.4912   -1.1531 H         1 <0>         0.0536
     29 H4          1.8637    1.4511   -1.2847 H         1 <0>         0.0606
     30 H5          0.1353    1.0474   -1.4187 H         1 <0>         0.0606
     31 H6          0.3451    0.9686   -3.8882 H         1 <0>         0.0610
     32 H7          2.0735    1.3723   -3.7542 H         1 <0>         0.0613
     33 H8          2.4526   -0.6897   -2.4303 H         1 <0>         0.0617
     34 H9          0.7242   -1.0935   -2.5643 H         1 <0>         0.0620
     35 H10         0.9340   -1.1722   -5.0338 H         1 <0>         0.0756
     36 H11         2.6624   -0.7685   -4.8998 H         1 <0>         0.0688
     37 H12         2.9237   -3.0063   -3.5096 H         1 <0>         0.1089
     38 H13         1.6361   -4.6812   -4.6336 H         1 <0>         0.1085
     39 H14        -0.4926   -3.4932   -5.6473 H         1 <0>         0.0830
     40 H15         0.5897   -2.1606   -6.1177 H         1 <0>         0.0841
     41 H16         1.8742   -3.9300   -7.6103 H         1 <0>         0.1097
     42 H17         0.2118   -5.2572   -8.7064 H         1 <0>         0.1097
     43 H18        -1.8140   -5.5248   -7.0346 H         1 <0>         0.0833
     44 H19        -1.5889   -3.8055   -6.6326 H         1 <0>         0.0835
     45 H20        -2.1230   -3.2885   -9.1684 H         1 <0>         0.1098
     46 H21        -3.9470   -4.6972   -9.8138 H         1 <0>         0.1098
     47 H22        -3.6838   -6.9756   -8.5013 H         1 <0>         0.0834
     48 H23        -3.2476   -5.9965   -7.0803 H         1 <0>         0.0831
     49 H24        -5.6550   -4.9261   -7.2504 H         1 <0>         0.1094
     50 H25        -7.1917   -6.6940   -7.7398 H         1 <0>         0.1106
     51 H26        -5.9227   -8.4090   -9.3073 H         1 <0>         0.0707
     52 H27        -4.5201   -8.1995   -8.2316 H         1 <0>         0.0767
     53 H28        -5.8530   -9.0603   -6.3260 H         1 <0>         0.0716
     54 H29        -7.2556   -9.2698   -7.4017 H         1 <0>         0.0714
     55 H30        -5.9513  -10.8540   -8.7938 H         1 <0>         0.0956
     56 H31        -4.5487  -10.6445   -7.7181 H         1 <0>         0.0952
     57 H32        -5.2603  -13.2435   -7.7566 H         1 <0>         0.4022
     58 H33        -6.0744  -13.8100   -5.1122 H         1 <0>         0.0804
     59 H34        -7.4770  -14.0195   -6.1879 H         1 <0>         0.0805
     60 H35        -6.1727  -15.6037   -7.5800 H         1 <0>         0.1001
     61 H36        -4.7701  -15.3942   -6.5043 H         1 <0>         0.1001
@<TRIPOS>BOND
     1    1    2 1
     2    1   26 1
     3    1   27 1
     4    1   28 1
     5    2    3 1
     6    2   29 1
     7    2   30 1
     8    3    4 1
     9    3   31 1
    10    3   32 1
    11    4    5 1
    12    4   33 1
    13    4   34 1
    14    5    6 1
    15    5   35 1
    16    5   36 1
    17    6    7 2
    18    6   37 1
    19    7    8 1
    20    7   38 1
    21    8    9 1
    22    8   39 1
    23    8   40 1
    24    9   10 2
    25    9   41 1
    26   10   11 1
    27   10   42 1
    28   11   12 1
    29   11   43 1
    30   11   44 1
    31   12   13 2
    32   12   45 1
    33   13   14 1
    34   13   46 1
    35   14   15 1
    36   14   47 1
    37   14   48 1
    38   15   16 2
    39   15   49 1
    40   16   17 1
    41   16   50 1
    42   17   18 1
    43   17   51 1
    44   17   52 1
    45   18   19 1
    46   18   53 1
    47   18   54 1
    48   19   20 1
    49   19   55 1
    50   19   56 1
    51   20   21 2
    52   20   22 am
    53   22   23 1
    54   22   57 1
    55   23   24 1
    56   23   58 1
    57   23   59 1
    58   24   25 1
    59   24   60 1
    60   24   61 1
@<TRIPOS>MOLECULE
ZINC03809850
   62    61     0     0     0
SMALL
USER_CHARGES

@<TRIPOS>ATOM
      1 C1         -2.2312    2.9666    0.4945 C.3       1 <0>        -0.1543
      2 C2         -2.1773    1.4868    0.1097 C.3       1 <0>        -0.1260
      3 C3         -3.4636    0.7944    0.5647 C.3       1 <0>        -0.1214
      4 C4         -3.4097   -0.6855    0.1800 C.3       1 <0>        -0.1146
      5 C5         -4.6960   -1.3779    0.6349 C.3       1 <0>        -0.1025
      6 C6         -4.6429   -2.8355    0.2560 C.2       1 <0>        -0.1582
      7 C7         -4.8635   -3.7561    1.1614 C.2       1 <0>        -0.1534
      8 C8         -5.3306   -3.3617    2.5389 C.3       1 <0>        -0.0837
      9 C9         -6.5867   -4.1212    2.8800 C.2       1 <0>        -0.1511
     10 C10        -6.6608   -4.7947    4.0011 C.2       1 <0>        -0.1520
     11 C11        -5.5599   -4.6791    5.0237 C.3       1 <0>        -0.0839
     12 C12        -6.1510   -4.3020    6.3577 C.2       1 <0>        -0.1519
     13 C13        -5.8856   -5.0225    7.4190 C.2       1 <0>        -0.1513
     14 C14        -4.8547   -6.1194    7.3465 C.3       1 <0>        -0.0836
     15 C15        -3.8385   -5.9270    8.4425 C.2       1 <0>        -0.1524
     16 C16        -3.5758   -6.9066    9.2716 C.2       1 <0>        -0.1566
     17 C17        -4.1634   -8.2737    9.0331 C.3       1 <0>        -0.1019
     18 C18        -3.0466   -9.3192    9.0518 C.3       1 <0>        -0.0985
     19 C19        -3.6432  -10.7071    8.8097 C.3       1 <0>        -0.1408
     20 C20        -2.5431  -11.7370    8.8281 C.2       1 <0>         0.5104
     21 O1         -1.3950  -11.3946    9.0165 O.2       1 <0>        -0.5404
     22 N1         -2.8352  -13.0385    8.6354 N.am      1 <0>        -0.7286
     23 C21        -1.7658  -14.0397    8.6533 C.3       1 <0>         0.1176
     24 C22        -2.3624  -15.4276    8.4112 C.3       1 <0>         0.0628
     25 O2         -2.9130  -15.4861    7.0938 O.3       1 <0>        -0.5722
     26 H1         -1.3148    3.4599    0.1703 H         1 <0>         0.0535
     27 H2         -3.0875    3.4368    0.0110 H         1 <0>         0.0534
     28 H3         -2.3296    3.0574    1.5762 H         1 <0>         0.0534
     29 H4         -2.0789    1.3959   -0.9720 H         1 <0>         0.0605
     30 H5         -1.3210    1.0166    0.5932 H         1 <0>         0.0606
     31 H6         -3.5620    0.8852    1.6464 H         1 <0>         0.0610
     32 H7         -4.3199    1.2645    0.0812 H         1 <0>         0.0613
     33 H8         -3.3113   -0.7763   -0.9018 H         1 <0>         0.0616
     34 H9         -2.5534   -1.1557    0.6635 H         1 <0>         0.0621
     35 H10        -4.7944   -1.2871    1.7167 H         1 <0>         0.0756
     36 H11        -5.5523   -0.9077    0.1514 H         1 <0>         0.0687
     37 H12        -4.4230   -3.1211   -0.7621 H         1 <0>         0.1088
     38 H13        -4.7107   -4.7978    0.9208 H         1 <0>         0.1086
     39 H14        -4.5545   -3.5973    3.2670 H         1 <0>         0.0830
     40 H15        -5.5360   -2.2914    2.5602 H         1 <0>         0.0840
     41 H16        -7.4259   -4.1101    2.2002 H         1 <0>         0.1096
     42 H17        -7.5108   -5.4329    4.1925 H         1 <0>         0.1098
     43 H18        -5.0443   -5.6354    5.1121 H         1 <0>         0.0835
     44 H19        -4.8518   -3.9121    4.7102 H         1 <0>         0.0834
     45 H20        -6.7935   -3.4376    6.4387 H         1 <0>         0.1097
     46 H21        -6.4054   -4.8305    8.3460 H         1 <0>         0.1098
     47 H22        -5.3434   -7.0860    7.4698 H         1 <0>         0.0837
     48 H23        -4.3556   -6.0855    6.3781 H         1 <0>         0.0830
     49 H24        -3.3267   -4.9814    8.5444 H         1 <0>         0.1092
     50 H25        -2.9381   -6.7345   10.1261 H         1 <0>         0.1103
     51 H26        -4.8864   -8.5002    9.8168 H         1 <0>         0.0705
     52 H27        -4.6612   -8.2911    8.0635 H         1 <0>         0.0766
     53 H28        -2.3236   -9.0927    8.2682 H         1 <0>         0.0711
     54 H29        -2.5488   -9.3018   10.0214 H         1 <0>         0.0706
     55 H30        -4.3661  -10.9337    9.5933 H         1 <0>         0.0937
     56 H31        -4.1409  -10.7245    7.8401 H         1 <0>         0.0940
     57 H32        -3.7534  -13.3124    8.4848 H         1 <0>         0.4035
     58 H33        -1.0428  -13.8132    7.8697 H         1 <0>         0.0752
     59 H34        -1.2680  -14.0223    9.6229 H         1 <0>         0.0823
     60 H35        -1.5816  -16.1814    8.5125 H         1 <0>         0.0647
     61 H36        -3.1482  -15.6179    9.1422 H         1 <0>         0.0540
     62 H37        -3.3095  -16.3394    6.8708 H         1 <0>         0.3841
@<TRIPOS>BOND
     1    1    2 1
     2    1   26 1
     3    1   27 1
     4    1   28 1
     5    2    3 1
     6    2   29 1
     7    2   30 1
     8    3    4 1
     9    3   31 1
    10    3   32 1
    11    4    5 1
    12    4   33 1
    13    4   34 1
    14    5    6 1
    15    5   35 1
    16    5   36 1
    17    6    7 2
    18    6   37 1
    19    7    8 1
    20    7   38 1
    21    8    9 1
    22    8   39 1
    23    8   40 1
    24    9   10 2
    25    9   41 1
    26   10   11 1
    27   10   42 1
    28   11   12 1
    29   11   43 1
    30   11   44 1
    31   12   13 2
    32   12   45 1
    33   13   14 1
    34   13   46 1
    35   14   15 1
    36   14   47 1
    37   14   48 1
    38   15   16 2
    39   15   49 1
    40   16   17 1
    41   16   50 1
    42   17   18 1
    43   17   51 1
    44   17   52 1
    45   18   19 1
    46   18   53 1
    47   18   54 1
    48   19   20 1
    49   19   55 1
    50   19   56 1
    51   20   21 2
    52   20   22 am
    53   22   23 1
    54   22   57 1
    55   23   24 1
    56   23   58 1
    57   23   59 1
    58   24   25 1
    59   24   60 1
    60   24   61 1
    61   25   62 1
@<TRIPOS>MOLECULE
ZINC25783468
   58    63     0     0     0
SMALL
USER_CHARGES

@<TRIPOS>ATOM
      1 C1         -0.0374    1.5268   -0.0073 C.3       1 <0>        -0.1044
      2 C2         -0.0077    0.0201   -0.0011 C.2       1 <0>         0.1547
      3 C3          0.0066   -0.7741   -1.1268 C.2       1 <0>        -0.2554
      4 C4          0.0350   -2.1719   -0.6642 C.ar      1 <0>        -0.0233
      5 C5          0.0587   -3.4480   -1.2264 C.ar      1 <0>        -0.1048
      6 C6          0.0811   -4.5535   -0.3988 C.ar      1 <0>        -0.0978
      7 C7          0.0810   -4.4382    0.9903 C.ar      1 <0>        -0.1296
      8 C8          0.0586   -3.1921    1.5629 C.ar      1 <0>         0.1205
      9 C9          0.0360   -2.0798    0.7175 C.ar      1 <0>        -0.0026
     10 N1          0.0145   -0.7420    1.0985 N.pl3     1 <0>        -0.4650
     11 C10         0.0177   -0.4438    2.5386 C.3       1 <0>         0.1137
     12 H1         -0.6023    0.4308    2.7355 H         1 <0>         0.1113
     13 C11        -0.5557   -1.6636    3.2747 C.3       1 <0>         0.0655
     14 O1          0.0567   -2.8934    2.8886 O.3       1 <0>        -0.3019
     15 C12         1.4494   -0.1797    3.0092 C.3       1 <0>         0.0483
     16 N2          1.4330    0.2340    4.4187 N.3       1 <0>        -0.5319
     17 C13         0.7735    1.5383    4.5774 C.3       1 <0>         0.0086
     18 C14         0.7254    1.9023    6.0636 C.3       1 <0>         0.0640
     19 O2          2.0539    1.8993    6.5933 O.3       1 <0>        -0.3830
     20 C15         2.7255    0.6441    6.4561 C.3       1 <0>         0.0635
     21 C16         2.7939    0.2674    4.9738 C.3       1 <0>         0.0203
     22 C17        -0.0050   -0.3146   -2.5213 C.2       1 <0>         0.4865
     23 O3         -1.0583   -0.2315   -3.1261 O.2       1 <0>        -0.4401
     24 C18         1.2594    0.0462   -3.1892 C.ar      1 <0>        -0.1579
     25 C19         2.4789   -0.1528   -2.5542 C.ar      1 <0>        -0.0402
     26 C20         3.6674    0.1881   -3.1851 C.ar      1 <0>        -0.1396
     27 C21         3.6882    0.7244   -4.4362 C.ar      1 <0>        -0.0651
     28 C22         2.4927    0.9533   -5.1376 C.ar      1 <0>        -0.0674
     29 C23         1.2562    0.6149   -4.5351 C.ar      1 <0>        -0.0124
     30 C24         0.0629    0.8364   -5.2330 C.ar      1 <0>        -0.1198
     31 C25         0.1048    1.3695   -6.4869 C.ar      1 <0>        -0.1084
     32 C26         1.3194    1.6976   -7.0848 C.ar      1 <0>        -0.1179
     33 C27         2.4977    1.5071   -6.4296 C.ar      1 <0>        -0.1043
     34 H2          0.9829    1.9103   -0.0155 H         1 <0>         0.0860
     35 H3         -0.5640    1.8761   -0.8954 H         1 <0>         0.0890
     36 H4         -0.5525    1.8837    0.8845 H         1 <0>         0.0740
     37 H5          0.0591   -3.5706   -2.2994 H         1 <0>         0.1262
     38 H6          0.0990   -5.5383   -0.8419 H         1 <0>         0.1327
     39 H7          0.0979   -5.3223    1.6103 H         1 <0>         0.1377
     40 H8         -0.4207   -1.5222    4.3470 H         1 <0>         0.1380
     41 H9         -1.6228   -1.7318    3.0632 H         1 <0>         0.0655
     42 H10         2.0400   -1.0898    2.9045 H         1 <0>         0.0918
     43 H11         1.8909    0.6116    2.4034 H         1 <0>         0.0479
     44 H12         1.3351    2.2985    4.0344 H         1 <0>         0.0484
     45 H13        -0.2411    1.4834    4.1830 H         1 <0>         0.0852
     46 H14         0.2888    2.8940    6.1815 H         1 <0>         0.1007
     47 H15         0.1189    1.1710    6.5980 H         1 <0>         0.0624
     48 H16         3.7355    0.7260    6.8578 H         1 <0>         0.1018
     49 H17         2.1772   -0.1237    7.0019 H         1 <0>         0.0632
     50 H18         3.2541   -0.7151    4.8688 H         1 <0>         0.0909
     51 H19         3.3878    1.0073    4.4372 H         1 <0>         0.0468
     52 H20         2.5024   -0.5762   -1.5610 H         1 <0>         0.1312
     53 H21         4.6016    0.0237   -2.6688 H         1 <0>         0.1284
     54 H22         4.6333    0.9767   -4.8940 H         1 <0>         0.1308
     55 H23        -0.8854    0.5860   -4.7808 H         1 <0>         0.1584
     56 H24        -0.8164    1.5396   -7.0244 H         1 <0>         0.1255
     57 H25         1.3260    2.1188   -8.0792 H         1 <0>         0.1246
     58 H26         3.4318    1.7666   -6.9055 H         1 <0>         0.1291
@<TRIPOS>BOND
     1    1    2 1
     2    1   34 1
     3    1   35 1
     4    1   36 1
     5    2   10 1
     6    2    3 2
     7    3    4 1
     8    3   22 1
     9    4    9 ar
    10    4    5 ar
    11    5    6 ar
    12    5   37 1
    13    6    7 ar
    14    6   38 1
    15    7    8 ar
    16    7   39 1
    17    8   14 1
    18    8    9 ar
    19    9   10 1
    20   10   11 1
    21   11   12 1
    22   11   13 1
    23   11   15 1
    24   13   14 1
    25   13   40 1
    26   13   41 1
    27   15   16 1
    28   15   42 1
    29   15   43 1
    30   16   21 1
    31   16   17 1
    32   17   18 1
    33   17   44 1
    34   17   45 1
    35   18   19 1
    36   18   46 1
    37   18   47 1
    38   19   20 1
    39   20   21 1
    40   20   48 1
    41   20   49 1
    42   21   50 1
    43   21   51 1
    44   22   23 2
    45   22   24 1
    46   24   29 ar
    47   24   25 ar
    48   25   26 ar
    49   25   52 1
    50   26   27 ar
    51   26   53 1
    52   27   28 ar
    53   27   54 1
    54   28   33 ar
    55   28   29 ar
    56   29   30 ar
    57   30   31 ar
    58   30   55 1
    59   31   32 ar
    60   31   56 1
    61   32   33 ar
    62   32   57 1
    63   33   58 1
@<TRIPOS>MOLECULE
ZINC13476371
   52    56     0     0     0
SMALL
USER_CHARGES

@<TRIPOS>ATOM
      1 C1         -1.0078    1.4178    0.0275 C.3       1 <0>        -0.1176
      2 C2         -0.7719   -0.0706    0.0154 C.ar      1 <0>        -0.0682
      3 C3         -0.6991   -0.7488   -1.1885 C.ar      1 <0>        -0.1178
      4 C4         -0.4830   -2.1105   -1.2087 C.ar      1 <0>        -0.0923
      5 C5         -0.3365   -2.8113   -0.0084 C.ar      1 <0>        -0.0385
      6 C6         -0.4118   -2.1170    1.1991 C.ar      1 <0>        -0.0667
      7 C7         -0.6226   -0.7563    1.2086 C.ar      1 <0>        -0.0973
      8 C8         -0.2185   -3.1296    2.3021 C.3       1 <0>        -0.0099
      9 C9         -0.0280   -4.4538    1.6117 C.2       1 <0>        -0.1357
     10 C10        -0.1005   -4.2445    0.2663 C.2       1 <0>         0.0388
     11 N1          0.0761   -5.4657   -0.3259 N.pl3     1 <0>        -0.2205
     12 N2          0.2457   -6.3684    0.5726 N.2       1 <0>        -0.2294
     13 C11         0.1959   -5.8328    1.7786 C.2       1 <0>         0.0280
     14 C12         0.3465   -6.5475    3.0623 C.2       1 <0>         0.6236
     15 O1          0.2795   -5.9352    4.1105 O.2       1 <0>        -0.4950
     16 N3          0.5582   -7.8785    3.0717 N.am      1 <0>        -0.5717
     17 N4          0.6975   -8.5395    4.2590 N.3       1 <0>        -0.2926
     18 C13         2.0428   -9.1141    4.3867 C.3       1 <0>         0.0378
     19 C14         2.2103   -9.7187    5.7826 C.3       1 <0>        -0.1138
     20 C15         1.1498  -10.8027    5.9946 C.3       1 <0>        -0.1252
     21 C16        -0.2405  -10.1887    5.8084 C.3       1 <0>        -0.1138
     22 C17        -0.3370   -9.5705    4.4118 C.3       1 <0>         0.0383
     23 C18         0.0720   -5.6972   -1.7073 C.ar      1 <0>         0.1384
     24 C19         0.8336   -4.8972   -2.5490 C.ar      1 <0>        -0.0857
     25 C20         0.8279   -5.1274   -3.9105 C.ar      1 <0>        -0.0883
     26 C21         0.0641   -6.1546   -4.4373 C.ar      1 <0>        -0.0146
     27 C22        -0.6964   -6.9534   -3.6018 C.ar      1 <0>        -0.0896
     28 C23        -0.6897   -6.7315   -2.2375 C.ar      1 <0>        -0.0112
     29 Cl1        -1.6378   -7.7388   -1.1886 Cl        1 <0>        -0.0226
     30 Cl2         0.0597   -6.4407   -6.1496 Cl        1 <0>        -0.0384
     31 H1         -0.0503    1.9377   -0.0040 H         1 <0>         0.0749
     32 H2         -1.6024    1.6984   -0.8419 H         1 <0>         0.0696
     33 H3         -1.5414    1.6937    0.9370 H         1 <0>         0.0704
     34 H4         -0.8124   -0.2089   -2.1170 H         1 <0>         0.1295
     35 H5         -0.4274   -2.6351   -2.1511 H         1 <0>         0.1210
     36 H6         -0.6752   -0.2245    2.1471 H         1 <0>         0.1325
     37 H7          0.6650   -2.8813    2.8903 H         1 <0>         0.1106
     38 H8         -1.1004   -3.1621    2.9418 H         1 <0>         0.1104
     39 H9          0.6117   -8.3670    2.2354 H         1 <0>         0.3867
     40 H10         2.1783   -9.8921    3.6353 H         1 <0>         0.0405
     41 H11         2.7874   -8.3321    4.2379 H         1 <0>         0.0819
     42 H12         3.2035  -10.1589    5.8717 H         1 <0>         0.0739
     43 H13         2.0887   -8.9386    6.5340 H         1 <0>         0.0774
     44 H14         1.2954  -11.6018    5.2678 H         1 <0>         0.0605
     45 H15         1.2378  -11.2060    7.0034 H         1 <0>         0.0702
     46 H16        -0.9983  -10.9647    5.9160 H         1 <0>         0.0740
     47 H17        -0.4007   -9.4160    6.5603 H         1 <0>         0.0774
     48 H18        -1.3208   -9.1199    4.2813 H         1 <0>         0.0819
     49 H19        -0.1903  -10.3463    3.6603 H         1 <0>         0.0408
     50 H20         1.4297   -4.0953   -2.1390 H         1 <0>         0.1530
     51 H21         1.4199   -4.5051   -4.5652 H         1 <0>         0.1562
     52 H22        -1.2917   -7.7540   -4.0155 H         1 <0>         0.1581
@<TRIPOS>BOND
     1    1    2 1
     2    1   31 1
     3    1   32 1
     4    1   33 1
     5    2    7 ar
     6    2    3 ar
     7    3    4 ar
     8    3   34 1
     9    4    5 ar
    10    4   35 1
    11    5   10 1
    12    5    6 ar
    13    6    7 ar
    14    6    8 1
    15    7   36 1
    16    8    9 1
    17    8   37 1
    18    8   38 1
    19    9   13 1
    20    9   10 2
    21   10   11 1
    22   11   12 1
    23   11   23 1
    24   12   13 2
    25   13   14 1
    26   14   15 2
    27   14   16 am
    28   16   17 1
    29   16   39 1
    30   17   22 1
    31   17   18 1
    32   18   19 1
    33   18   40 1
    34   18   41 1
    35   19   20 1
    36   19   42 1
    37   19   43 1
    38   20   21 1
    39   20   44 1
    40   20   45 1
    41   21   22 1
    42   21   46 1
    43   21   47 1
    44   22   48 1
    45   22   49 1
    46   23   28 ar
    47   23   24 ar
    48   24   25 ar
    49   24   50 1
    50   25   26 ar
    51   25   51 1
    52   26   27 ar
    53   26   30 1
    54   27   28 ar
    55   27   52 1
    56   28   29 1
@<TRIPOS>MOLECULE
ZINC13831250
   53    57     0     0     0
SMALL
USER_CHARGES

@<TRIPOS>ATOM
      1 C1         -1.0078    1.4178    0.0275 C.3       1 <0>        -0.1175
      2 C2         -0.7719   -0.0706    0.0154 C.ar      1 <0>        -0.0685
      3 C3         -0.6991   -0.7488   -1.1885 C.ar      1 <0>        -0.1176
      4 C4         -0.4830   -2.1105   -1.2087 C.ar      1 <0>        -0.0925
      5 C5         -0.3365   -2.8113   -0.0084 C.ar      1 <0>        -0.0380
      6 C6         -0.4118   -2.1170    1.1991 C.ar      1 <0>        -0.0676
      7 C7         -0.6226   -0.7563    1.2086 C.ar      1 <0>        -0.0974
      8 C8         -0.2185   -3.1296    2.3021 C.3       1 <0>        -0.0092
      9 C9         -0.0280   -4.4538    1.6117 C.2       1 <0>        -0.1382
     10 C10        -0.1005   -4.2445    0.2663 C.2       1 <0>         0.0371
     11 N1          0.0761   -5.4657   -0.3259 N.pl3     1 <0>        -0.2211
     12 N2          0.2457   -6.3684    0.5726 N.2       1 <0>        -0.2275
     13 C11         0.1959   -5.8328    1.7786 C.2       1 <0>         0.0236
     14 C12         0.3465   -6.5475    3.0623 C.2       1 <0>         0.6073
     15 O1          0.2795   -5.9352    4.1105 O.2       1 <0>        -0.5229
     16 N3          0.5582   -7.8785    3.0717 N.am      1 <0>        -0.7143
     17 C13         0.7076   -8.5874    4.3450 C.3       1 <0>         0.1459
     18 C14         2.1628   -8.5006    4.8094 C.3       1 <0>        -0.1297
     19 C15         2.3189   -9.2410    6.1392 C.3       1 <0>        -0.1171
     20 C16         1.9292  -10.7090    5.9544 C.3       1 <0>        -0.1228
     21 C17         0.4739  -10.7958    5.4900 C.3       1 <0>        -0.1157
     22 C18         0.3179  -10.0554    4.1602 C.3       1 <0>        -0.1270
     23 C19         0.0720   -5.6972   -1.7073 C.ar      1 <0>         0.1385
     24 C20         0.8336   -4.8972   -2.5490 C.ar      1 <0>        -0.0860
     25 C21         0.8279   -5.1274   -3.9105 C.ar      1 <0>        -0.0884
     26 C22         0.0641   -6.1546   -4.4373 C.ar      1 <0>        -0.0147
     27 C23        -0.6964   -6.9534   -3.6018 C.ar      1 <0>        -0.0895
     28 C24        -0.6897   -6.7315   -2.2375 C.ar      1 <0>        -0.0112
     29 Cl1        -1.6378   -7.7388   -1.1886 Cl        1 <0>        -0.0218
     30 Cl2         0.0597   -6.4407   -6.1496 Cl        1 <0>        -0.0386
     31 H1         -0.0503    1.9377   -0.0040 H         1 <0>         0.0749
     32 H2         -1.6024    1.6984   -0.8419 H         1 <0>         0.0696
     33 H3         -1.5414    1.6937    0.9370 H         1 <0>         0.0703
     34 H4         -0.8124   -0.2089   -2.1170 H         1 <0>         0.1296
     35 H5         -0.4274   -2.6351   -2.1511 H         1 <0>         0.1211
     36 H6         -0.6752   -0.2245    2.1471 H         1 <0>         0.1322
     37 H7          0.6650   -2.8813    2.8903 H         1 <0>         0.1095
     38 H8         -1.1004   -3.1621    2.9418 H         1 <0>         0.1093
     39 H9          0.6117   -8.3670    2.2354 H         1 <0>         0.4061
     40 H10         0.0596   -8.1309    5.0933 H         1 <0>         0.0912
     41 H11         2.8108   -8.9571    4.0612 H         1 <0>         0.0640
     42 H12         2.4405   -7.4548    4.9411 H         1 <0>         0.0684
     43 H13         3.3556   -9.1792    6.4700 H         1 <0>         0.0655
     44 H14         1.6709   -8.7845    6.8874 H         1 <0>         0.0653
     45 H15         2.5772  -11.1655    5.2062 H         1 <0>         0.0627
     46 H16         2.0403  -11.2365    6.9018 H         1 <0>         0.0645
     47 H17         0.1963  -11.8416    5.3584 H         1 <0>         0.0678
     48 H18        -0.1740  -10.3393    6.2382 H         1 <0>         0.0659
     49 H19        -0.7188  -10.1172    3.8294 H         1 <0>         0.0691
     50 H20         0.9659  -10.5119    3.4120 H         1 <0>         0.0688
     51 H21         1.4297   -4.0953   -2.1390 H         1 <0>         0.1525
     52 H22         1.4199   -4.5051   -4.5652 H         1 <0>         0.1560
     53 H23        -1.2917   -7.7540   -4.0155 H         1 <0>         0.1582
@<TRIPOS>BOND
     1    1    2 1
     2    1   31 1
     3    1   32 1
     4    1   33 1
     5    2    7 ar
     6    2    3 ar
     7    3    4 ar
     8    3   34 1
     9    4    5 ar
    10    4   35 1
    11    5   10 1
    12    5    6 ar
    13    6    7 ar
    14    6    8 1
    15    7   36 1
    16    8    9 1
    17    8   37 1
    18    8   38 1
    19    9   13 1
    20    9   10 2
    21   10   11 1
    22   11   12 1
    23   11   23 1
    24   12   13 2
    25   13   14 1
    26   14   15 2
    27   14   16 am
    28   16   17 1
    29   16   39 1
    30   17   22 1
    31   17   18 1
    32   17   40 1
    33   18   19 1
    34   18   41 1
    35   18   42 1
    36   19   20 1
    37   19   43 1
    38   19   44 1
    39   20   21 1
    40   20   45 1
    41   20   46 1
    42   21   22 1
    43   21   47 1
    44   21   48 1
    45   22   49 1
    46   22   50 1
    47   23   28 ar
    48   23   24 ar
    49   24   25 ar
    50   24   51 1
    51   25   26 ar
    52   25   52 1
    53   26   27 ar
    54   26   30 1
    55   27   28 ar
    56   27   53 1
    57   28   29 1
@<TRIPOS>MOLECULE
ZINC01530487
   32    32     0     0     0
SMALL
USER_CHARGES

@<TRIPOS>ATOM
      1 C1         -0.0187    1.5258    0.0104 C.3       1 <0>        -0.1596
      2 C2          0.0021   -0.0041    0.0020 C.3       1 <0>         0.1107
      3 O1          0.6709   -0.4649   -1.1737 O.3       1 <0>        -0.7407
      4 P1          0.8773   -2.0258   -1.5102 P.3       1 <0>         2.3093
      5 O2          1.5558   -2.6897   -0.3748 O.2       1 <0>        -0.9857
      6 O3         -0.5563   -2.7158   -1.7567 O.3       1 <0>        -0.7199
      7 C3         -1.4547   -2.2974   -2.7862 C.3       1 <0>         0.0859
      8 C4         -2.7179   -3.1595   -2.7420 C.3       1 <0>        -0.1586
      9 O4          1.7794   -2.1743   -2.8355 O.3       1 <0>        -0.6320
     10 C5          2.1016   -3.4580   -3.1438 C.ar      1 <0>         0.1435
     11 C6          3.2580   -4.0267   -2.6300 C.ar      1 <0>        -0.1103
     12 C7          3.5831   -5.3320   -2.9445 C.ar      1 <0>        -0.0298
     13 C8          2.7571   -6.0716   -3.7706 C.ar      1 <0>        -0.0496
     14 C9          1.6043   -5.5069   -4.2844 C.ar      1 <0>        -0.0315
     15 C10         1.2718   -4.2039   -3.9683 C.ar      1 <0>        -0.1460
     16 N1          3.1078   -7.4698   -4.1060 N.pl3     1 <0>         0.0322
     17 O5          4.1158   -7.9644   -3.6576 O.2       1 <0>        -0.1474
     18 O6          2.3863   -8.1174   -4.8283 O.3       1 <0>        -0.1514
     19 H1          1.0039    1.9031    0.0027 H         1 <0>         0.0715
     20 H2         -0.5459    1.8868   -0.8726 H         1 <0>         0.0664
     21 H3         -0.5289    1.8773    0.9072 H         1 <0>         0.0834
     22 H4          0.5293   -0.3651    0.8851 H         1 <0>         0.0792
     23 H5         -1.0205   -0.3814    0.0098 H         1 <0>         0.0629
     24 H6         -1.7225   -1.2522   -2.6321 H         1 <0>         0.0697
     25 H7         -0.9721   -2.4095   -3.7571 H         1 <0>         0.0640
     26 H8         -3.2005   -3.0475   -1.7711 H         1 <0>         0.0729
     27 H9         -3.4032   -2.8404   -3.5273 H         1 <0>         0.0819
     28 H10        -2.4500   -4.2048   -2.8962 H         1 <0>         0.0724
     29 H11         3.9036   -3.4493   -1.9849 H         1 <0>         0.1665
     30 H12         4.4834   -5.7751   -2.5449 H         1 <0>         0.1694
     31 H13         0.9610   -6.0865   -4.9298 H         1 <0>         0.1672
     32 H14         0.3690   -3.7647   -4.3663 H         1 <0>         0.1537
@<TRIPOS>BOND
     1    1    2 1
     2    1   19 1
     3    1   20 1
     4    1   21 1
     5    2    3 1
     6    2   22 1
     7    2   23 1
     8    3    4 1
     9    4    5 2
    10    4    6 1
    11    4    9 1
    12    6    7 1
    13    7    8 1
    14    7   24 1
    15    7   25 1
    16    8   26 1
    17    8   27 1
    18    8   28 1
    19    9   10 1
    20   10   15 ar
    21   10   11 ar
    22   11   12 ar
    23   11   29 1
    24   12   13 ar
    25   12   30 1
    26   13   14 ar
    27   13   16 1
    28   14   15 ar
    29   14   31 1
    30   15   32 1
    31   16   17 2
    32   16   18 1
@<TRIPOS>MOLECULE
ZINC13766073
   64    63     0     0     0
SMALL
USER_CHARGES
(2R,5Z,8Z,11Z,14Z)-N-(2-fluoroethyl)-2-methyl-icosa-5,8,11,14-tetraenamide
@<TRIPOS>ATOM
      1 C1          0.7310    9.4206   -5.9645 C.3       1 <0>        -0.1543
      2 C2          0.7487    7.9442   -6.3658 C.3       1 <0>        -0.1260
      3 C3         -0.5620    7.2828   -5.9352 C.3       1 <0>        -0.1214
      4 C4         -0.5442    5.8065   -6.3365 C.3       1 <0>        -0.1143
      5 C5         -1.8549    5.1451   -5.9059 C.3       1 <0>        -0.1026
      6 C6         -1.8374    3.6910   -6.3011 C.2       1 <0>        -0.1578
      7 C7         -2.0773    2.7658   -5.4053 C.2       1 <0>        -0.1535
      8 C8         -2.5435    3.1552   -4.0261 C.3       1 <0>        -0.0829
      9 C9         -3.8094    2.4079   -3.6942 C.2       1 <0>        -0.1509
     10 C10        -3.8942    1.7261   -2.5788 C.2       1 <0>        -0.1525
     11 C11        -2.8088    1.8428   -1.5400 C.3       1 <0>        -0.0830
     12 C12        -3.4244    2.1773   -0.2057 C.2       1 <0>        -0.1515
     13 C13        -3.1575    1.4382    0.8425 C.2       1 <0>        -0.1517
     14 C14        -2.1025    0.3653    0.7591 C.3       1 <0>        -0.0829
     15 C15        -1.1039    0.5552    1.8717 C.2       1 <0>        -0.1520
     16 C16        -0.8307   -0.4364    2.6830 C.2       1 <0>        -0.1569
     17 C17        -1.3853   -1.8103    2.4071 C.3       1 <0>        -0.1025
     18 C18        -0.2461   -2.8316    2.4173 C.3       1 <0>        -0.0954
     19 C19        -0.8091   -4.2264    2.1372 C.3       1 <0>        -0.1097
     20 H1         -1.5995   -4.4497    2.8538 H         1 <0>         0.0999
     21 C20        -1.3798   -4.2706    0.7183 C.3       1 <0>        -0.1475
     22 C21         0.2911   -5.2478    2.2682 C.2       1 <0>         0.5187
     23 O1          1.4149   -4.8949    2.5571 O.2       1 <0>        -0.5313
     24 N1          0.0263   -6.5535    2.0643 N.am      1 <0>        -0.7325
     25 C22         1.0959   -7.5464    2.1917 C.3       1 <0>         0.0851
     26 C23         0.5328   -8.9412    1.9117 C.3       1 <0>         0.0547
     27 F1          1.5542   -9.8895    2.0333 F         1 <0>        -0.2053
     28 H2          1.6647    9.8917   -6.2713 H         1 <0>         0.0536
     29 H3         -0.1057    9.9199   -6.4533 H         1 <0>         0.0534
     30 H4          0.6211    9.5018   -4.8831 H         1 <0>         0.0534
     31 H5          1.5854    7.4449   -5.8771 H         1 <0>         0.0606
     32 H6          0.8586    7.8630   -7.4472 H         1 <0>         0.0605
     33 H7         -1.3986    7.7822   -6.4239 H         1 <0>         0.0613
     34 H8         -0.6718    7.3641   -4.8538 H         1 <0>         0.0610
     35 H9          0.2924    5.3072   -5.8478 H         1 <0>         0.0620
     36 H10        -0.4344    5.7252   -7.4179 H         1 <0>         0.0617
     37 H11        -2.6916    5.6444   -6.3946 H         1 <0>         0.0687
     38 H12        -1.9648    5.2264   -4.8245 H         1 <0>         0.0755
     39 H13        -1.6272    3.4117   -7.3230 H         1 <0>         0.1089
     40 H14        -1.9408    1.7240   -5.6551 H         1 <0>         0.1085
     41 H15        -2.7364    4.2276   -3.9971 H         1 <0>         0.0837
     42 H16        -1.7722    2.9049   -3.2977 H         1 <0>         0.0823
     43 H17        -4.6467    2.4344   -4.3759 H         1 <0>         0.1097
     44 H18        -4.7420    1.0803   -2.4038 H         1 <0>         0.1098
     45 H19        -2.2733    0.8963   -1.4660 H         1 <0>         0.0832
     46 H20        -2.1139    2.6318   -1.8275 H         1 <0>         0.0828
     47 H21        -4.0856    3.0262   -0.1137 H         1 <0>         0.1098
     48 H22        -3.6936    1.5978    1.7664 H         1 <0>         0.1098
     49 H23        -2.5717   -0.6138    0.8552 H         1 <0>         0.0830
     50 H24        -1.5925    0.4311   -0.2020 H         1 <0>         0.0830
     51 H25        -0.6136    1.5089    2.0003 H         1 <0>         0.1093
     52 H26        -0.2080   -0.2694    3.5494 H         1 <0>         0.1103
     53 H27        -2.1126   -2.0696    3.1764 H         1 <0>         0.0703
     54 H28        -1.8706   -1.8170    1.4312 H         1 <0>         0.0795
     55 H29         0.4813   -2.5722    1.6480 H         1 <0>         0.0712
     56 H30         0.2392   -2.8248    3.3932 H         1 <0>         0.0725
     57 H31        -0.5894   -4.0472    0.0017 H         1 <0>         0.0628
     58 H32        -1.7809   -5.2643    0.5188 H         1 <0>         0.0590
     59 H33        -2.1756   -3.5318    0.6236 H         1 <0>         0.0725
     60 H34        -0.8725   -6.8357    1.8333 H         1 <0>         0.4024
     61 H35         1.8862   -7.3231    1.4751 H         1 <0>         0.0802
     62 H36         1.5024   -7.5149    3.2026 H         1 <0>         0.0803
     63 H37        -0.2575   -9.1646    2.6283 H         1 <0>         0.0818
     64 H38         0.1263   -8.9728    0.9008 H         1 <0>         0.0818
@<TRIPOS>BOND
     1    1    2 1
     2    1   28 1
     3    1   29 1
     4    1   30 1
     5    2    3 1
     6    2   31 1
     7    2   32 1
     8    3    4 1
     9    3   33 1
    10    3   34 1
    11    4    5 1
    12    4   35 1
    13    4   36 1
    14    5    6 1
    15    5   37 1
    16    5   38 1
    17    6    7 2
    18    6   39 1
    19    7    8 1
    20    7   40 1
    21    8    9 1
    22    8   41 1
    23    8   42 1
    24    9   10 2
    25    9   43 1
    26   10   11 1
    27   10   44 1
    28   11   12 1
    29   11   45 1
    30   11   46 1
    31   12   13 2
    32   12   47 1
    33   13   14 1
    34   13   48 1
    35   14   15 1
    36   14   49 1
    37   14   50 1
    38   15   16 2
    39   15   51 1
    40   16   17 1
    41   16   52 1
    42   17   18 1
    43   17   53 1
    44   17   54 1
    45   18   19 1
    46   18   55 1
    47   18   56 1
    48   19   20 1
    49   19   21 1
    50   19   22 1
    51   21   57 1
    52   21   58 1
    53   21   59 1
    54   22   23 2
    55   22   24 am
    56   24   25 1
    57   24   60 1
    58   25   26 1
    59   25   61 1
    60   25   62 1
    61   26   27 1
    62   26   63 1
    63   26   64 1
@<TRIPOS>MOLECULE
ZINC13766076
   64    63     0     0     0
SMALL
USER_CHARGES
(2S,5Z,8Z,11Z,14Z)-N-(2-fluoroethyl)-2-methyl-icosa-5,8,11,14-tetraenamide
@<TRIPOS>ATOM
      1 C1         -4.4667   -2.4290  -14.2433 C.3       1 <0>        -0.1543
      2 C2         -3.2233   -2.7313  -13.4046 C.3       1 <0>        -0.1259
      3 C3         -3.5998   -3.6653  -12.2528 C.3       1 <0>        -0.1214
      4 C4         -2.3564   -3.9676  -11.4140 C.3       1 <0>        -0.1146
      5 C5         -2.7329   -4.9016  -10.2622 C.3       1 <0>        -0.1025
      6 C6         -1.5081   -5.1993   -9.4360 C.2       1 <0>        -0.1578
      7 C7         -1.5328   -5.0172   -8.1390 C.2       1 <0>        -0.1535
      8 C8         -2.8279   -4.6692   -7.4515 C.3       1 <0>        -0.0837
      9 C9         -3.0781   -5.6427   -6.3287 C.2       1 <0>        -0.1509
     10 C10        -3.3163   -5.2002   -5.1189 C.2       1 <0>        -0.1523
     11 C11        -3.5151   -3.7254   -4.8817 C.3       1 <0>        -0.0838
     12 C12        -4.8129   -3.5050   -4.1480 C.2       1 <0>        -0.1515
     13 C13        -4.8269   -2.8146   -3.0348 C.2       1 <0>        -0.1516
     14 C14        -3.5811   -2.1031   -2.5736 C.3       1 <0>        -0.0833
     15 C15        -3.9023   -0.6574   -2.2947 C.2       1 <0>        -0.1521
     16 C16        -3.6008   -0.1317   -1.1333 C.2       1 <0>        -0.1571
     17 C17        -2.7883   -0.9191   -0.1379 C.3       1 <0>        -0.1022
     18 C18        -1.5926   -0.0818    0.3206 C.3       1 <0>        -0.0954
     19 C19        -0.7677   -0.8812    1.3312 C.3       1 <0>        -0.1096
     20 H1         -0.4855   -1.8387    0.8935 H         1 <0>         0.0993
     21 C20        -1.6002   -1.1225    2.5920 C.3       1 <0>        -0.1476
     22 C21         0.4746   -0.1072    1.6900 C.2       1 <0>         0.5187
     23 O1          0.6799    0.9771    1.1869 O.2       1 <0>        -0.5312
     24 N1          1.3573   -0.6199    2.5699 N.am      1 <0>        -0.7324
     25 C22         2.5650    0.1325    2.9187 C.3       1 <0>         0.0851
     26 C23         3.3899   -0.6669    3.9293 C.3       1 <0>         0.0547
     27 F1          4.5431    0.0517    4.2624 F         1 <0>        -0.2053
     28 H2         -4.8682   -3.3590  -14.6460 H         1 <0>         0.0534
     29 H3         -5.2193   -1.9492  -13.6176 H         1 <0>         0.0534
     30 H4         -4.1985   -1.7636  -15.0639 H         1 <0>         0.0536
     31 H5         -2.8219   -1.8013  -13.0019 H         1 <0>         0.0606
     32 H6         -2.4708   -3.2111  -14.0303 H         1 <0>         0.0606
     33 H7         -4.0013   -4.5953  -12.6555 H         1 <0>         0.0613
     34 H8         -4.3524   -3.1855  -11.6270 H         1 <0>         0.0610
     35 H9         -1.9549   -3.0376  -11.0113 H         1 <0>         0.0620
     36 H10        -1.6038   -4.4474  -12.0397 H         1 <0>         0.0617
     37 H11        -3.1343   -5.8316  -10.6649 H         1 <0>         0.0688
     38 H12        -3.4854   -4.4218   -9.6364 H         1 <0>         0.0756
     39 H13        -0.6101   -5.5628   -9.9133 H         1 <0>         0.1089
     40 H14        -0.6251   -5.1165   -7.5624 H         1 <0>         0.1085
     41 H15        -3.6465   -4.7242   -8.1692 H         1 <0>         0.0839
     42 H16        -2.7652   -3.6583   -7.0487 H         1 <0>         0.0828
     43 H17        -3.0609   -6.7053   -6.5214 H         1 <0>         0.1096
     44 H18        -3.3703   -5.8924   -4.2916 H         1 <0>         0.1097
     45 H19        -3.5457   -3.2043   -5.8385 H         1 <0>         0.0834
     46 H20        -2.6896   -3.3390   -4.2838 H         1 <0>         0.0834
     47 H21        -5.7314   -3.9163   -4.5399 H         1 <0>         0.1098
     48 H22        -5.7314   -2.7552   -2.4475 H         1 <0>         0.1098
     49 H23        -2.8197   -2.1627   -3.3513 H         1 <0>         0.0830
     50 H24        -3.2090   -2.5746   -1.6640 H         1 <0>         0.0835
     51 H25        -4.3810   -0.0547   -3.0524 H         1 <0>         0.1093
     52 H26        -3.9345    0.8660   -0.8892 H         1 <0>         0.1102
     53 H27        -2.4313   -1.8369   -0.6052 H         1 <0>         0.0764
     54 H28        -3.4094   -1.1674    0.7227 H         1 <0>         0.0733
     55 H29        -1.9496    0.8360    0.7879 H         1 <0>         0.0708
     56 H30        -0.9715    0.1665   -0.5400 H         1 <0>         0.0727
     57 H31        -2.4987   -1.6823    2.3325 H         1 <0>         0.0734
     58 H32        -1.0126   -1.6920    3.3120 H         1 <0>         0.0588
     59 H33        -1.8825   -0.1649    3.0298 H         1 <0>         0.0626
     60 H34         1.1931   -1.4871    2.9723 H         1 <0>         0.4024
     61 H35         3.1581    0.3044    2.0205 H         1 <0>         0.0803
     62 H36         2.2827    1.0901    3.3565 H         1 <0>         0.0802
     63 H37         2.7968   -0.8387    4.8276 H         1 <0>         0.0818
     64 H38         3.6721   -1.6244    3.4916 H         1 <0>         0.0818
@<TRIPOS>BOND
     1    1    2 1
     2    1   28 1
     3    1   29 1
     4    1   30 1
     5    2    3 1
     6    2   31 1
     7    2   32 1
     8    3    4 1
     9    3   33 1
    10    3   34 1
    11    4    5 1
    12    4   35 1
    13    4   36 1
    14    5    6 1
    15    5   37 1
    16    5   38 1
    17    6    7 2
    18    6   39 1
    19    7    8 1
    20    7   40 1
    21    8    9 1
    22    8   41 1
    23    8   42 1
    24    9   10 2
    25    9   43 1
    26   10   11 1
    27   10   44 1
    28   11   12 1
    29   11   45 1
    30   11   46 1
    31   12   13 2
    32   12   47 1
    33   13   14 1
    34   13   48 1
    35   14   15 1
    36   14   49 1
    37   14   50 1
    38   15   16 2
    39   15   51 1
    40   16   17 1
    41   16   52 1
    42   17   18 1
    43   17   53 1
    44   17   54 1
    45   18   19 1
    46   18   55 1
    47   18   56 1
    48   19   20 1
    49   19   21 1
    50   19   22 1
    51   21   57 1
    52   21   58 1
    53   21   59 1
    54   22   23 2
    55   22   24 am
    56   24   25 1
    57   24   60 1
    58   25   26 1
    59   25   61 1
    60   25   62 1
    61   26   27 1
    62   26   63 1
    63   26   64 1
@<TRIPOS>MOLECULE
ZINC04654958
   68    67     0     0     0
SMALL
USER_CHARGES

@<TRIPOS>ATOM
      1 C1          0.6453    3.0200   -2.1184 C.3       1 <0>        -0.1543
      2 C2          0.9747    1.5406   -1.9090 C.3       1 <0>        -0.1260
      3 C3          1.2342    0.8791   -3.2640 C.3       1 <0>        -0.1214
      4 C4          1.5635   -0.6003   -3.0546 C.3       1 <0>        -0.1145
      5 C5          1.8231   -1.2617   -4.4095 C.3       1 <0>        -0.1025
      6 C6          2.1475   -2.7189   -4.2033 C.2       1 <0>        -0.1582
      7 C7          1.4879   -3.6368   -4.8654 C.2       1 <0>        -0.1534
      8 C8          0.5222   -3.2356   -5.9506 C.3       1 <0>        -0.0836
      9 C9          0.8663   -3.9645   -7.2239 C.2       1 <0>        -0.1512
     10 C10        -0.0571   -4.6399   -7.8620 C.2       1 <0>        -0.1520
     11 C11        -1.4947   -4.5556   -7.4178 C.3       1 <0>        -0.0837
     12 C12        -2.3604   -4.1684   -8.5889 C.2       1 <0>        -0.1522
     13 C13        -3.4010   -4.8991   -8.9041 C.2       1 <0>        -0.1512
     14 C14        -3.8363   -6.0212   -7.9973 C.3       1 <0>        -0.0833
     15 C15        -5.2963   -5.8582   -7.6615 C.2       1 <0>        -0.1536
     16 C16        -6.1304   -6.8470   -7.8682 C.2       1 <0>        -0.1577
     17 C17        -5.6088   -8.1980   -8.2850 C.3       1 <0>        -0.1019
     18 C18        -6.1669   -9.2713   -7.3483 C.3       1 <0>        -0.1140
     19 C19        -5.6374  -10.6430   -7.7715 C.3       1 <0>        -0.1203
     20 C20        -6.1955  -11.7163   -6.8348 C.3       1 <0>        -0.1049
     21 C21        -5.6660  -13.0880   -7.2580 C.3       1 <0>        -0.1404
     22 C22        -6.2157  -14.1452   -6.3354 C.2       1 <0>         0.5101
     23 O1         -6.9578  -13.8323   -5.4286 O.2       1 <0>        -0.5410
     24 N1         -5.8825  -15.4383   -6.5179 N.am      1 <0>        -0.7287
     25 C23        -6.4169  -16.4660   -5.6210 C.3       1 <0>         0.1176
     26 C24        -5.8874  -17.8377   -6.0442 C.3       1 <0>         0.0628
     27 O2         -4.4704  -17.8778   -5.8635 O.3       1 <0>        -0.5723
     28 H1          1.4846    3.5132   -2.6087 H         1 <0>         0.0534
     29 H2         -0.2437    3.1095   -2.7426 H         1 <0>         0.0534
     30 H3          0.4604    3.4912   -1.1531 H         1 <0>         0.0535
     31 H4          1.8637    1.4511   -1.2847 H         1 <0>         0.0605
     32 H5          0.1353    1.0474   -1.4187 H         1 <0>         0.0606
     33 H6          0.3451    0.9686   -3.8882 H         1 <0>         0.0610
     34 H7          2.0735    1.3723   -3.7542 H         1 <0>         0.0613
     35 H8          2.4526   -0.6897   -2.4303 H         1 <0>         0.0616
     36 H9          0.7242   -1.0935   -2.5643 H         1 <0>         0.0620
     37 H10         0.9340   -1.1722   -5.0338 H         1 <0>         0.0756
     38 H11         2.6624   -0.7685   -4.8998 H         1 <0>         0.0688
     39 H12         2.9237   -3.0063   -3.5096 H         1 <0>         0.1088
     40 H13         1.6361   -4.6812   -4.6336 H         1 <0>         0.1086
     41 H14        -0.4926   -3.4932   -5.6473 H         1 <0>         0.0829
     42 H15         0.5897   -2.1606   -6.1177 H         1 <0>         0.0839
     43 H16         1.8742   -3.9300   -7.6103 H         1 <0>         0.1096
     44 H17         0.2118   -5.2572   -8.7064 H         1 <0>         0.1098
     45 H18        -1.8140   -5.5248   -7.0346 H         1 <0>         0.0835
     46 H19        -1.5889   -3.8055   -6.6326 H         1 <0>         0.0833
     47 H20        -2.1230   -3.2885   -9.1684 H         1 <0>         0.1097
     48 H21        -3.9470   -4.6972   -9.8138 H         1 <0>         0.1096
     49 H22        -3.6838   -6.9756   -8.5013 H         1 <0>         0.0839
     50 H23        -3.2476   -5.9965   -7.0803 H         1 <0>         0.0827
     51 H24        -5.6550   -4.9261   -7.2504 H         1 <0>         0.1084
     52 H25        -7.1917   -6.6940   -7.7398 H         1 <0>         0.1091
     53 H26        -5.9227   -8.4090   -9.3073 H         1 <0>         0.0689
     54 H27        -4.5201   -8.1995   -8.2316 H         1 <0>         0.0756
     55 H28        -5.8530   -9.0603   -6.3260 H         1 <0>         0.0636
     56 H29        -7.2556   -9.2698   -7.4017 H         1 <0>         0.0632
     57 H30        -5.9513  -10.8540   -8.7938 H         1 <0>         0.0627
     58 H31        -4.5487  -10.6445   -7.7181 H         1 <0>         0.0625
     59 H32        -5.8816  -11.5053   -5.8125 H         1 <0>         0.0698
     60 H33        -7.2842  -11.7148   -6.8882 H         1 <0>         0.0697
     61 H34        -5.9799  -13.2990   -8.2803 H         1 <0>         0.0930
     62 H35        -4.5773  -13.0895   -7.2046 H         1 <0>         0.0937
     63 H36        -5.2889  -15.6885   -7.2431 H         1 <0>         0.4035
     64 H37        -6.1030  -16.2550   -4.5987 H         1 <0>         0.0751
     65 H38        -7.5056  -16.4645   -5.6744 H         1 <0>         0.0823
     66 H39        -6.3535  -18.6112   -5.4339 H         1 <0>         0.0647
     67 H40        -6.1248  -18.0107   -7.0939 H         1 <0>         0.0540
     68 H41        -4.0659  -18.7201   -6.1124 H         1 <0>         0.3841
@<TRIPOS>BOND
     1    1    2 1
     2    1   28 1
     3    1   29 1
     4    1   30 1
     5    2    3 1
     6    2   31 1
     7    2   32 1
     8    3    4 1
     9    3   33 1
    10    3   34 1
    11    4    5 1
    12    4   35 1
    13    4   36 1
    14    5    6 1
    15    5   37 1
    16    5   38 1
    17    6    7 2
    18    6   39 1
    19    7    8 1
    20    7   40 1
    21    8    9 1
    22    8   41 1
    23    8   42 1
    24    9   10 2
    25    9   43 1
    26   10   11 1
    27   10   44 1
    28   11   12 1
    29   11   45 1
    30   11   46 1
    31   12   13 2
    32   12   47 1
    33   13   14 1
    34   13   48 1
    35   14   15 1
    36   14   49 1
    37   14   50 1
    38   15   16 2
    39   15   51 1
    40   16   17 1
    41   16   52 1
    42   17   18 1
    43   17   53 1
    44   17   54 1
    45   18   19 1
    46   18   55 1
    47   18   56 1
    48   19   20 1
    49   19   57 1
    50   19   58 1
    51   20   21 1
    52   20   59 1
    53   20   60 1
    54   21   22 1
    55   21   61 1
    56   21   62 1
    57   22   23 2
    58   22   24 am
    59   24   25 1
    60   24   63 1
    61   25   26 1
    62   25   64 1
    63   25   65 1
    64   26   27 1
    65   26   66 1
    66   26   67 1
    67   27   68 1
@<TRIPOS>MOLECULE
ZINC36294563
   51    50     0     0     0
SMALL
USER_CHARGES

@<TRIPOS>ATOM
      1 C1         -0.0187    1.5258    0.0104 C.3       1 <0>        -0.1543
      2 C2          0.0021   -0.0041    0.0020 C.3       1 <0>        -0.1261
      3 C3          0.7421   -0.5109    1.2415 C.3       1 <0>        -0.1213
      4 C4          0.7628   -2.0407    1.2331 C.3       1 <0>        -0.1212
      5 C5          1.5028   -2.5476    2.4727 C.3       1 <0>        -0.1206
      6 C6          1.5236   -4.0774    2.4642 C.3       1 <0>        -0.1205
      7 C7          2.2636   -4.5842    3.7038 C.3       1 <0>        -0.1206
      8 C8          2.2843   -6.1141    3.6954 C.3       1 <0>        -0.1203
      9 C9          3.0243   -6.6209    4.9349 C.3       1 <0>        -0.1234
     10 C10         3.0450   -8.1508    4.9265 C.3       1 <0>        -0.1151
     11 C11         3.7850   -8.6576    6.1660 C.3       1 <0>        -0.1171
     12 C12         3.8058  -10.1874    6.1576 C.3       1 <0>        -0.7256
     13 P1          4.6875  -10.7913    7.6345 P.3       1 <0>         2.2074
     14 O1          3.9947  -10.3140    8.8521 O.2       1 <0>        -0.9842
     15 O2          4.7093  -12.4012    7.6256 O.3       1 <0>        -0.7243
     16 C13         5.3289  -13.1768    8.6535 C.3       1 <0>         0.1331
     17 C14         4.2829  -14.0774    9.3135 C.3       1 <0>        -0.1691
     18 C15         6.4344  -14.0412    8.0439 C.3       1 <0>        -0.1751
     19 F1          6.2542  -10.2133    7.6226 F         1 <0>        -0.3644
     20 H1          1.0039    1.9031    0.0027 H         1 <0>         0.0534
     21 H2         -0.5459    1.8868   -0.8726 H         1 <0>         0.0535
     22 H3         -0.5289    1.8773    0.9072 H         1 <0>         0.0535
     23 H4         -1.0205   -0.3814    0.0098 H         1 <0>         0.0602
     24 H5          0.5123   -0.3556   -0.8948 H         1 <0>         0.0601
     25 H6          1.7647   -0.1336    1.2338 H         1 <0>         0.0607
     26 H7          0.2319   -0.1594    2.1383 H         1 <0>         0.0608
     27 H8         -0.2598   -2.4180    1.2409 H         1 <0>         0.0604
     28 H9          1.2730   -2.3923    0.3363 H         1 <0>         0.0603
     29 H10         2.5254   -2.1703    2.4649 H         1 <0>         0.0609
     30 H11         0.9926   -2.1961    3.3695 H         1 <0>         0.0611
     31 H12         0.5010   -4.4547    2.4720 H         1 <0>         0.0603
     32 H13         2.0337   -4.4289    1.5675 H         1 <0>         0.0601
     33 H14         3.2861   -4.2070    3.6960 H         1 <0>         0.0617
     34 H15         1.7534   -4.2327    4.6006 H         1 <0>         0.0621
     35 H16         1.2617   -6.4914    3.7031 H         1 <0>         0.0608
     36 H17         2.7945   -6.4656    2.7986 H         1 <0>         0.0603
     37 H18         4.0469   -6.2436    4.9271 H         1 <0>         0.0648
     38 H19         2.5141   -6.2694    5.8317 H         1 <0>         0.0662
     39 H20         2.0224   -8.5280    4.9342 H         1 <0>         0.0634
     40 H21         3.5552   -8.5023    4.0297 H         1 <0>         0.0613
     41 H22         4.8076   -8.2803    6.1583 H         1 <0>         0.0735
     42 H23         3.2748   -8.3061    7.0628 H         1 <0>         0.0872
     43 H24         2.7832  -10.5647    6.1653 H         1 <0>         0.1208
     44 H25         4.3160  -10.5389    5.2608 H         1 <0>         0.1018
     45 H26         5.7592  -12.5110    9.4016 H         1 <0>         0.0721
     46 H27         3.8526  -14.7431    8.5654 H         1 <0>         0.0700
     47 H28         4.7555  -14.6690   10.0976 H         1 <0>         0.0800
     48 H29         3.4953  -13.4616    9.7478 H         1 <0>         0.0712
     49 H30         6.0041  -14.7069    7.2957 H         1 <0>         0.0728
     50 H31         7.1797  -13.3996    7.5737 H         1 <0>         0.0642
     51 H32         6.9071  -14.6328    8.8279 H         1 <0>         0.0831
@<TRIPOS>BOND
     1    1    2 1
     2    1   20 1
     3    1   21 1
     4    1   22 1
     5    2    3 1
     6    2   23 1
     7    2   24 1
     8    3    4 1
     9    3   25 1
    10    3   26 1
    11    4    5 1
    12    4   27 1
    13    4   28 1
    14    5    6 1
    15    5   29 1
    16    5   30 1
    17    6    7 1
    18    6   31 1
    19    6   32 1
    20    7    8 1
    21    7   33 1
    22    7   34 1
    23    8    9 1
    24    8   35 1
    25    8   36 1
    26    9   10 1
    27    9   37 1
    28    9   38 1
    29   10   11 1
    30   10   39 1
    31   10   40 1
    32   11   12 1
    33   11   41 1
    34   11   42 1
    35   12   13 1
    36   12   43 1
    37   12   44 1
    38   13   14 2
    39   13   15 1
    40   13   19 1
    41   15   16 1
    42   16   17 1
    43   16   18 1
    44   16   45 1
    45   17   46 1
    46   17   47 1
    47   17   48 1
    48   18   49 1
    49   18   50 1
    50   18   51 1
@<TRIPOS>MOLECULE
ZINC36294566
   51    50     0     0     0
SMALL
USER_CHARGES

@<TRIPOS>ATOM
      1 C1         -0.0187    1.5258    0.0104 C.3       1 <0>        -0.1543
      2 C2          0.0021   -0.0041    0.0020 C.3       1 <0>        -0.1261
      3 C3          0.7421   -0.5109    1.2415 C.3       1 <0>        -0.1213
      4 C4          0.7628   -2.0407    1.2331 C.3       1 <0>        -0.1212
      5 C5          1.5028   -2.5476    2.4727 C.3       1 <0>        -0.1206
      6 C6          1.5236   -4.0774    2.4642 C.3       1 <0>        -0.1205
      7 C7          2.2636   -4.5842    3.7038 C.3       1 <0>        -0.1206
      8 C8          2.2843   -6.1141    3.6954 C.3       1 <0>        -0.1203
      9 C9          3.0243   -6.6209    4.9349 C.3       1 <0>        -0.1233
     10 C10         3.0450   -8.1508    4.9265 C.3       1 <0>        -0.1151
     11 C11         3.7850   -8.6576    6.1660 C.3       1 <0>        -0.1171
     12 C12         3.8058  -10.1874    6.1576 C.3       1 <0>        -0.7256
     13 P1          4.6875  -10.7913    7.6345 P.3       1 <0>         2.2074
     14 O1          6.0760  -10.2791    7.6240 O.2       1 <0>        -0.9842
     15 O2          4.7093  -12.4012    7.6256 O.3       1 <0>        -0.7243
     16 C13         5.3289  -13.1768    8.6535 C.3       1 <0>         0.1331
     17 C14         4.2828  -14.0773    9.3136 C.3       1 <0>        -0.1751
     18 C15         6.4344  -14.0412    8.0439 C.3       1 <0>        -0.1691
     19 F1          3.9058  -10.2527    9.0085 F         1 <0>        -0.3644
     20 H1          1.0039    1.9031    0.0027 H         1 <0>         0.0535
     21 H2         -0.5459    1.8868   -0.8726 H         1 <0>         0.0535
     22 H3         -0.5289    1.8773    0.9072 H         1 <0>         0.0534
     23 H4         -1.0205   -0.3814    0.0098 H         1 <0>         0.0601
     24 H5          0.5123   -0.3556   -0.8948 H         1 <0>         0.0602
     25 H6          1.7647   -0.1336    1.2338 H         1 <0>         0.0608
     26 H7          0.2319   -0.1594    2.1383 H         1 <0>         0.0607
     27 H8         -0.2598   -2.4180    1.2409 H         1 <0>         0.0603
     28 H9          1.2730   -2.3923    0.3363 H         1 <0>         0.0604
     29 H10         2.5254   -2.1703    2.4649 H         1 <0>         0.0610
     30 H11         0.9926   -2.1961    3.3695 H         1 <0>         0.0609
     31 H12         0.5010   -4.4547    2.4720 H         1 <0>         0.0601
     32 H13         2.0337   -4.4289    1.5675 H         1 <0>         0.0603
     33 H14         3.2861   -4.2070    3.6960 H         1 <0>         0.0621
     34 H15         1.7534   -4.2327    4.6006 H         1 <0>         0.0617
     35 H16         1.2617   -6.4914    3.7031 H         1 <0>         0.0603
     36 H17         2.7945   -6.4656    2.7986 H         1 <0>         0.0608
     37 H18         4.0469   -6.2436    4.9271 H         1 <0>         0.0663
     38 H19         2.5141   -6.2694    5.8317 H         1 <0>         0.0648
     39 H20         2.0224   -8.5280    4.9342 H         1 <0>         0.0613
     40 H21         3.5552   -8.5023    4.0297 H         1 <0>         0.0634
     41 H22         4.8076   -8.2803    6.1583 H         1 <0>         0.0872
     42 H23         3.2748   -8.3061    7.0628 H         1 <0>         0.0735
     43 H24         2.7832  -10.5647    6.1653 H         1 <0>         0.1018
     44 H25         4.3160  -10.5389    5.2608 H         1 <0>         0.1208
     45 H26         5.7592  -12.5110    9.4016 H         1 <0>         0.0720
     46 H27         3.8525  -14.7431    8.5654 H         1 <0>         0.0728
     47 H28         4.7555  -14.6690   10.0976 H         1 <0>         0.0831
     48 H29         3.4953  -13.4615    9.7479 H         1 <0>         0.0642
     49 H30         6.0041  -14.7070    7.2958 H         1 <0>         0.0700
     50 H31         7.1796  -13.3996    7.5737 H         1 <0>         0.0712
     51 H32         6.9070  -14.6328    8.8279 H         1 <0>         0.0800
@<TRIPOS>BOND
     1    1    2 1
     2    1   20 1
     3    1   21 1
     4    1   22 1
     5    2    3 1
     6    2   23 1
     7    2   24 1
     8    3    4 1
     9    3   25 1
    10    3   26 1
    11    4    5 1
    12    4   27 1
    13    4   28 1
    14    5    6 1
    15    5   29 1
    16    5   30 1
    17    6    7 1
    18    6   31 1
    19    6   32 1
    20    7    8 1
    21    7   33 1
    22    7   34 1
    23    8    9 1
    24    8   35 1
    25    8   36 1
    26    9   10 1
    27    9   37 1
    28    9   38 1
    29   10   11 1
    30   10   39 1
    31   10   40 1
    32   11   12 1
    33   11   41 1
    34   11   42 1
    35   12   13 1
    36   12   43 1
    37   12   44 1
    38   13   14 2
    39   13   15 1
    40   13   19 1
    41   15   16 1
    42   16   17 1
    43   16   18 1
    44   16   45 1
    45   17   46 1
    46   17   47 1
    47   17   48 1
    48   18   49 1
    49   18   50 1
    50   18   51 1
@<TRIPOS>MOLECULE
ZINC13672828
   50    53     0     0     0
SMALL
USER_CHARGES
(2-iodophenyl)-[1-[[(2R)-1-methyl-2-piperidyl]methyl]indol-3-yl]methanone
@<TRIPOS>ATOM
      1 C1          6.1119   -0.0736   -0.8931 C.3       1 <0>        -0.0513
      2 C2          6.2590    1.3057   -2.8771 C.3       1 <0>        -0.0002
      3 C3          5.8963    2.6740   -3.4588 C.3       1 <0>        -0.1482
      4 C4          4.3725    2.8031   -3.5352 C.3       1 <0>        -0.1357
      5 C5          3.7812    2.6099   -2.1361 C.3       1 <0>        -0.1442
      6 C6          4.2049    1.2434   -1.5928 C.3       1 <0>         0.0101
      7 H1          3.8261    0.4588   -2.2477 H         1 <0>         0.1439
      8 C7          3.6326    1.0541   -0.1865 C.3       1 <0>         0.0936
      9 N1          2.1691    1.0795   -0.2474 N.pl3     1 <0>        -0.4754
     10 C8          1.4061    2.1752   -0.0244 C.2       1 <0>         0.0891
     11 C9          0.0853    1.8535   -0.1605 C.2       1 <0>        -0.2105
     12 C10         0.0383    0.4192   -0.5002 C.ar      1 <0>        -0.0699
     13 C11         1.3746   -0.0103   -0.5402 C.ar      1 <0>         0.0905
     14 C12         1.6550   -1.3390   -0.8401 C.ar      1 <0>        -0.1336
     15 C13         0.6250   -2.2188   -1.0942 C.ar      1 <0>        -0.0857
     16 C14        -0.6943   -1.7930   -1.0538 C.ar      1 <0>        -0.1277
     17 C15        -0.9924   -0.4801   -0.7589 C.ar      1 <0>        -0.0658
     18 C16        -1.0600    2.7580   -0.0055 C.2       1 <0>         0.4553
     19 O1         -1.3196    3.5660   -0.8777 O.2       1 <0>        -0.4041
     20 C17        -1.8984    2.6875    1.2101 C.ar      1 <0>        -0.1409
     21 C18        -1.5300    1.8550    2.2689 C.ar      1 <0>        -0.0601
     22 C19        -2.3135    1.7983    3.4024 C.ar      1 <0>        -0.1172
     23 C20        -3.4691    2.5555    3.4877 C.ar      1 <0>        -0.0790
     24 C21        -3.8435    3.3780    2.4407 C.ar      1 <0>        -0.0956
     25 C22        -3.0655    3.4489    1.3024 C.ar      1 <0>        -0.0612
     26 I1         -3.6347    4.6949   -0.2827 I         1 <0>         0.0010
     27 H2          5.6515   -0.9257   -1.3931 H         1 <0>         0.1251
     28 H3          7.1967   -0.1540   -0.9629 H         1 <0>         0.1287
     29 H4          5.8150   -0.0639    0.1557 H         1 <0>         0.1222
     30 H5          7.3431    1.2162   -2.8081 H         1 <0>         0.1327
     31 H6          5.8704    0.5207   -3.5259 H         1 <0>         0.1305
     32 H7          6.2965    3.4596   -2.8178 H         1 <0>         0.0887
     33 H8          6.3207    2.7685   -4.4584 H         1 <0>         0.1142
     34 H9          4.1091    3.7927   -3.9085 H         1 <0>         0.0974
     35 H10         3.9758    2.0426   -4.2078 H         1 <0>         0.0820
     36 H11         2.6937    2.6584   -2.1909 H         1 <0>         0.1142
     37 H12         4.1482    3.3943   -1.4742 H         1 <0>         0.0900
     38 H13         3.9834    1.8586    0.4598 H         1 <0>         0.1134
     39 H14         3.9630    0.0958    0.2142 H         1 <0>         0.1109
     40 H15         1.7845    3.1559    0.2236 H         1 <0>         0.1790
     41 H16         2.6788   -1.6812   -0.8735 H         1 <0>         0.1163
     42 H17         0.8473   -3.2498   -1.3267 H         1 <0>         0.1327
     43 H18        -1.4916   -2.4932   -1.2547 H         1 <0>         0.1328
     44 H19        -2.0205   -0.1508   -0.7280 H         1 <0>         0.1273
     45 H20        -0.6311    1.2602    2.2021 H         1 <0>         0.1335
     46 H21        -2.0272    1.1581    4.2237 H         1 <0>         0.1357
     47 H22        -4.0815    2.5034    4.3758 H         1 <0>         0.1388
     48 H23        -4.7466    3.9659    2.5136 H         1 <0>         0.1383
     49 N2          5.6808    1.1923   -1.5213 N.4       1 <0>        -0.3899
     50 H24         6.0139    1.9781   -0.9504 H         1 <0>         0.4282
@<TRIPOS>BOND
     1    1   27 1
     2    1   28 1
     3    1   29 1
     4    1   49 1
     5    2    3 1
     6    2   30 1
     7    2   31 1
     8    2   49 1
     9    3    4 1
    10    3   32 1
    11    3   33 1
    12    4    5 1
    13    4   34 1
    14    4   35 1
    15    5    6 1
    16    5   36 1
    17    5   37 1
    18    6    7 1
    19    6    8 1
    20    6   49 1
    21    8    9 1
    22    8   38 1
    23    8   39 1
    24    9   13 1
    25    9   10 1
    26   10   11 2
    27   10   40 1
    28   11   12 1
    29   11   18 1
    30   12   17 ar
    31   12   13 ar
    32   13   14 ar
    33   14   15 ar
    34   14   41 1
    35   15   16 ar
    36   15   42 1
    37   16   17 ar
    38   16   43 1
    39   17   44 1
    40   18   19 2
    41   18   20 1
    42   20   25 ar
    43   20   21 ar
    44   21   22 ar
    45   21   45 1
    46   22   23 ar
    47   22   46 1
    48   23   24 ar
    49   23   47 1
    50   24   25 ar
    51   24   48 1
    52   25   26 1
    53   49   50 1
@<TRIPOS>MOLECULE
ZINC13672830
   50    53     0     0     0
SMALL
USER_CHARGES
(2-iodophenyl)-[1-[[(2S)-1-methyl-2-piperidyl]methyl]indol-3-yl]methanone
@<TRIPOS>ATOM
      1 C1          0.0674    1.8083    1.7103 C.3       1 <0>        -0.0525
      2 C2          0.2500   -0.0391    0.1565 C.3       1 <0>         0.0001
      3 C3          0.6130   -0.4097   -1.2832 C.3       1 <0>        -0.1485
      4 C4          2.0976   -0.1202   -1.5208 C.3       1 <0>        -0.1350
      5 C5          2.3740    1.3578   -1.2316 C.3       1 <0>        -0.1469
      6 C6          1.9600    1.6772    0.2067 C.3       1 <0>         0.0108
      7 H1          2.5437    1.0676    0.8965 H         1 <0>         0.1440
      8 C7          2.2158    3.1581    0.4938 C.3       1 <0>         0.0889
      9 N1          3.6491    3.4378    0.3764 N.pl3     1 <0>        -0.4681
     10 C8          4.5332    3.3801    1.3999 C.2       1 <0>         0.1184
     11 C9          5.7831    3.6974    0.9486 C.2       1 <0>        -0.2208
     12 C10         5.6476    3.9762   -0.4932 C.ar      1 <0>        -0.0577
     13 C11         4.2886    3.7915   -0.7943 C.ar      1 <0>         0.0832
     14 C12         3.8478    3.9795   -2.0998 C.ar      1 <0>        -0.1328
     15 C13         4.7438    4.3401   -3.0830 C.ar      1 <0>        -0.0880
     16 C14         6.0863    4.5191   -2.7845 C.ar      1 <0>        -0.1274
     17 C15         6.5410    4.3454   -1.4950 C.ar      1 <0>        -0.0614
     18 C16         7.0167    3.7509    1.7420 C.2       1 <0>         0.4608
     19 O1          8.0747    4.0203    1.2044 O.2       1 <0>        -0.4239
     20 C17         6.9739    3.4776    3.1943 C.ar      1 <0>        -0.1153
     21 C18         7.4673    2.2714    3.6959 C.ar      1 <0>        -0.0821
     22 C19         7.4248    2.0230    5.0517 C.ar      1 <0>        -0.0983
     23 C20         6.8951    2.9661    5.9154 C.ar      1 <0>        -0.0979
     24 C21         6.4049    4.1633    5.4260 C.ar      1 <0>        -0.0852
     25 C22         6.4451    4.4270    4.0715 C.ar      1 <0>        -0.0824
     26 I1          5.7088    6.2440    3.3330 I         1 <0>        -0.0251
     27 H2          0.6420    1.2912    2.4787 H         1 <0>         0.1261
     28 H3          0.2045    2.8844    1.8166 H         1 <0>         0.1225
     29 H4         -0.9892    1.5640    1.8207 H         1 <0>         0.1288
     30 H5         -0.8097   -0.2306    0.3247 H         1 <0>         0.1327
     31 H6          0.8418   -0.6405    0.8466 H         1 <0>         0.1305
     32 H7          0.0118    0.1817   -1.9738 H         1 <0>         0.0888
     33 H8          0.4183   -1.4697   -1.4462 H         1 <0>         0.1141
     34 H9          2.3506   -0.3420   -2.5576 H         1 <0>         0.0972
     35 H10         2.7004   -0.7402   -0.8572 H         1 <0>         0.0814
     36 H11         3.4375    1.5606   -1.3578 H         1 <0>         0.1172
     37 H12         1.8006    1.9770   -1.9214 H         1 <0>         0.0905
     38 H13         1.6667    3.7675   -0.2239 H         1 <0>         0.1127
     39 H14         1.8808    3.3955    1.5035 H         1 <0>         0.1154
     40 H15         4.2876    3.1224    2.4195 H         1 <0>         0.1769
     41 H16         2.8045    3.8427   -2.3430 H         1 <0>         0.1183
     42 H17         4.3971    4.4851   -4.0955 H         1 <0>         0.1325
     43 H18         6.7774    4.8024   -3.5646 H         1 <0>         0.1327
     44 H19         7.5872    4.4836   -1.2652 H         1 <0>         0.1365
     45 H20         7.8809    1.5345    3.0234 H         1 <0>         0.1359
     46 H21         7.8062    1.0904    5.4407 H         1 <0>         0.1385
     47 H22         6.8647    2.7663    6.9763 H         1 <0>         0.1385
     48 H23         5.9933    4.8950    6.1054 H         1 <0>         0.1370
     49 N2          0.5161    1.4003    0.3630 N.4       1 <0>        -0.3902
     50 H24        -0.0042    1.9393   -0.3391 H         1 <0>         0.4285
@<TRIPOS>BOND
     1    1   27 1
     2    1   28 1
     3    1   29 1
     4    1   49 1
     5    2    3 1
     6    2   30 1
     7    2   31 1
     8    2   49 1
     9    3    4 1
    10    3   32 1
    11    3   33 1
    12    4    5 1
    13    4   34 1
    14    4   35 1
    15    5    6 1
    16    5   36 1
    17    5   37 1
    18    6    7 1
    19    6    8 1
    20    6   49 1
    21    8    9 1
    22    8   38 1
    23    8   39 1
    24    9   13 1
    25    9   10 1
    26   10   11 2
    27   10   40 1
    28   11   12 1
    29   11   18 1
    30   12   17 ar
    31   12   13 ar
    32   13   14 ar
    33   14   15 ar
    34   14   41 1
    35   15   16 ar
    36   15   42 1
    37   16   17 ar
    38   16   43 1
    39   17   44 1
    40   18   19 2
    41   18   20 1
    42   20   25 ar
    43   20   21 ar
    44   21   22 ar
    45   21   45 1
    46   22   23 ar
    47   22   46 1
    48   23   24 ar
    49   23   47 1
    50   24   25 ar
    51   24   48 1
    52   25   26 1
    53   49   50 1
@<TRIPOS>MOLECULE
ZINC06273129
   55    57     0     0     0
SMALL
USER_CHARGES
1,1-dimethylbutyl-trimethyl-BLAH
@<TRIPOS>ATOM
      1 C1         -0.8075   10.5331   -0.5308 C.3       1 <0>        -0.1539
      2 C2          0.3333    9.8975    0.2663 C.3       1 <0>        -0.1292
      3 C3          0.3235    8.3827    0.0514 C.3       1 <0>        -0.1100
      4 C4          1.4642    7.7471    0.8485 C.3       1 <0>        -0.0238
      5 C5          1.2786    8.0522    2.3363 C.3       1 <0>        -0.1413
      6 C6          2.8004    8.3210    0.3730 C.3       1 <0>        -0.1412
      7 C7          1.4546    6.2550    0.6368 C.ar      1 <0>        -0.0347
      8 C8          0.5004    5.6785   -0.1817 C.ar      1 <0>        -0.1547
      9 C9          0.4941    4.3114   -0.3768 C.ar      1 <0>        -0.0800
     10 C10         1.4397    3.5120    0.2427 C.ar      1 <0>        -0.1596
     11 C11         2.3939    4.0852    1.0674 C.ar      1 <0>         0.1427
     12 C12         2.3971    5.4635    1.2597 C.ar      1 <0>        -0.1472
     13 O1          3.3358    3.3416    1.7036 O.3       1 <0>        -0.3093
     14 C13         3.5536    2.0001    1.2620 C.3       1 <0>         0.1209
     15 C14         2.1929    1.3159    1.1160 C.3       1 <0>        -0.1087
     16 H1          1.6490    1.3727    2.0589 H         1 <0>         0.0857
     17 C15         1.4163    2.0281   -0.0006 C.3       1 <0>        -0.0383
     18 H2          1.8783    1.8075   -0.9629 H         1 <0>         0.0863
     19 C16        -0.0183    1.4990    0.0103 C.3       1 <0>        -0.0717
     20 C17         0.0021   -0.0041    0.0020 C.2       1 <0>        -0.1227
     21 C18         1.0382   -0.7191    0.3062 C.2       1 <0>        -0.1625
     22 C19         2.3690   -0.1476    0.7084 C.3       1 <0>        -0.0821
     23 C20        -1.2635   -0.7247   -0.3854 C.3       1 <0>        -0.1228
     24 C21         4.4006    1.2493    2.2914 C.3       1 <0>        -0.1414
     25 C22         4.2724    2.0120   -0.0886 C.3       1 <0>        -0.1776
     26 H3         -1.7594   10.1242   -0.1921 H         1 <0>         0.0529
     27 H4         -0.8005   11.6123   -0.3777 H         1 <0>         0.0533
     28 H5         -0.6753   10.3157   -1.5907 H         1 <0>         0.0528
     29 H6          0.2010   10.1149    1.3262 H         1 <0>         0.0649
     30 H7          1.2852   10.3064   -0.0724 H         1 <0>         0.0649
     31 H8          0.4557    8.1653   -1.0085 H         1 <0>         0.0657
     32 H9         -0.6284    7.9738    0.3901 H         1 <0>         0.0657
     33 H10         2.0913    7.5994    2.9042 H         1 <0>         0.0569
     34 H11         1.2856    9.1314    2.4894 H         1 <0>         0.0628
     35 H12         0.3267    7.6433    2.6751 H         1 <0>         0.0563
     36 H13         2.9326    8.1036   -0.6869 H         1 <0>         0.0561
     37 H14         2.8074    9.4002    0.5262 H         1 <0>         0.0628
     38 H15         3.6131    7.8682    0.9409 H         1 <0>         0.0568
     39 H16        -0.2395    6.2971   -0.6678 H         1 <0>         0.1270
     40 H17        -0.2522    3.8634   -1.0162 H         1 <0>         0.1227
     41 H18         3.1411    5.9154    1.8989 H         1 <0>         0.1267
     42 H19        -0.5454    1.8601   -0.8728 H         1 <0>         0.0760
     43 H20        -0.5285    1.8505    0.9071 H         1 <0>         0.0772
     44 H21         0.9397   -1.7940    0.2689 H         1 <0>         0.1060
     45 H22         2.7682   -0.7137    1.5500 H         1 <0>         0.0780
     46 H23         3.0602   -0.2101   -0.1321 H         1 <0>         0.0794
     47 H24        -1.2727   -0.8891   -1.4629 H         1 <0>         0.0664
     48 H25        -1.3069   -1.6848    0.1290 H         1 <0>         0.0622
     49 H26        -2.1262   -0.1216   -0.1024 H         1 <0>         0.0623
     50 H27         4.5470    0.2209    1.9609 H         1 <0>         0.0805
     51 H28         5.3688    1.7397    2.3924 H         1 <0>         0.0679
     52 H29         3.8896    1.2523    3.2541 H         1 <0>         0.0666
     53 H30         3.6704    2.5566   -0.8159 H         1 <0>         0.0648
     54 H31         5.2410    2.5001    0.0197 H         1 <0>         0.0668
     55 H32         4.4181    0.9877   -0.4317 H         1 <0>         0.0751
@<TRIPOS>BOND
     1    1    2 1
     2    1   26 1
     3    1   27 1
     4    1   28 1
     5    2    3 1
     6    2   29 1
     7    2   30 1
     8    3    4 1
     9    3   31 1
    10    3   32 1
    11    4    5 1
    12    4    6 1
    13    4    7 1
    14    5   33 1
    15    5   34 1
    16    5   35 1
    17    6   36 1
    18    6   37 1
    19    6   38 1
    20    7   12 ar
    21    7    8 ar
    22    8    9 ar
    23    8   39 1
    24    9   10 ar
    25    9   40 1
    26   10   17 1
    27   10   11 ar
    28   11   12 ar
    29   11   13 1
    30   12   41 1
    31   13   14 1
    32   14   15 1
    33   14   24 1
    34   14   25 1
    35   15   16 1
    36   15   22 1
    37   15   17 1
    38   17   18 1
    39   17   19 1
    40   19   20 1
    41   19   42 1
    42   19   43 1
    43   20   21 2
    44   20   23 1
    45   21   22 1
    46   21   44 1
    47   22   45 1
    48   22   46 1
    49   23   47 1
    50   23   48 1
    51   23   49 1
    52   24   50 1
    53   24   51 1
    54   24   52 1
    55   25   53 1
    56   25   54 1
    57   25   55 1
@<TRIPOS>MOLECULE
ZINC03816330
   55    59     0     0     0
SMALL
USER_CHARGES
chloro-(2,4-dichlorophenyl)-N-(1-piperidyl)BLAHcarboxamide
@<TRIPOS>ATOM
      1 C1         -4.5296    0.6626   -0.3188 C.ar      1 <0>        -0.1101
      2 C2         -3.1691    0.4762   -0.4796 C.ar      1 <0>        -0.0823
      3 C3         -2.5215   -0.4951    0.2696 C.ar      1 <0>        -0.0258
      4 C4         -3.2263   -1.2447    1.2194 C.ar      1 <0>        -0.0341
      5 C5         -4.5863   -1.0738    1.3459 C.ar      1 <0>        -0.1032
      6 C6         -5.2363   -0.1203    0.5781 C.ar      1 <0>        -0.0205
      7 Cl1        -6.9511    0.0944    0.7429 Cl        1 <0>        -0.0616
      8 C7         -2.4582   -2.1391    2.1438 C.3       1 <0>        -0.0875
      9 C8         -2.0825   -3.4929    1.5320 C.3       1 <0>        -0.1019
     10 C9         -1.5633   -3.2829    0.1028 C.3       1 <0>        -0.0581
     11 C10        -0.6520   -2.0960    0.0427 C.2       1 <0>        -0.1055
     12 C11        -1.0844   -0.7996    0.1042 C.2       1 <0>         0.0500
     13 N1          0.0021   -0.0041    0.0020 N.pl3     1 <0>        -0.2191
     14 N2          1.0605   -0.7351   -0.1095 N.2       1 <0>        -0.2429
     15 C12         0.7413   -2.0206   -0.0854 C.2       1 <0>         0.0084
     16 C13         1.6769   -3.1593   -0.1816 C.2       1 <0>         0.6246
     17 O1          1.2531   -4.2984   -0.1522 O.2       1 <0>        -0.4947
     18 N3          3.0005   -2.9357   -0.3020 N.am      1 <0>        -0.5718
     19 N4          3.8658   -3.9889   -0.3909 N.3       1 <0>        -0.2922
     20 C14         4.7710   -4.0254    0.7648 C.3       1 <0>         0.0382
     21 C15         5.6247   -5.2942    0.7059 C.3       1 <0>        -0.1137
     22 C16         6.4295   -5.3020   -0.5967 C.3       1 <0>        -0.1252
     23 C17         5.4657   -5.2145   -1.7834 C.3       1 <0>        -0.1137
     24 C18         4.6166   -3.9480   -1.6523 C.3       1 <0>         0.0385
     25 C19        -0.0169    1.3964    0.0097 C.ar      1 <0>         0.1365
     26 C20        -0.7374    2.0771    0.9824 C.ar      1 <0>        -0.0793
     27 C21        -0.7499    3.4579    0.9914 C.ar      1 <0>        -0.0879
     28 C22        -0.0545    4.1642    0.0252 C.ar      1 <0>        -0.0132
     29 C23         0.6598    3.4895   -0.9490 C.ar      1 <0>        -0.0910
     30 C24         0.6805    2.1075   -0.9594 C.ar      1 <0>        -0.0112
     31 Cl2         1.5763    1.2610   -2.1821 Cl        1 <0>        -0.0221
     32 Cl3        -0.0782    5.9000    0.0360 Cl        1 <0>        -0.0380
     33 H1         -5.0418    1.4197   -0.8940 H         1 <0>         0.1393
     34 H2         -2.6156    1.0814   -1.1823 H         1 <0>         0.1298
     35 H3         -5.1456   -1.6811    2.0421 H         1 <0>         0.1416
     36 H4         -1.5433   -1.6270    2.4420 H         1 <0>         0.0726
     37 H5         -3.0597   -2.3159    3.0354 H         1 <0>         0.0772
     38 H6         -1.3051   -3.9612    2.1358 H         1 <0>         0.0759
     39 H7         -2.9614   -4.1372    1.5083 H         1 <0>         0.0744
     40 H8         -1.0179   -4.1713   -0.2157 H         1 <0>         0.0978
     41 H9         -2.4083   -3.1209   -0.5664 H         1 <0>         0.0740
     42 H10         3.3387   -2.0269   -0.3254 H         1 <0>         0.3863
     43 H11         5.4199   -3.1498    0.7457 H         1 <0>         0.0402
     44 H12         4.1860   -4.0237    1.6845 H         1 <0>         0.0816
     45 H13         4.9772   -6.1704    0.7389 H         1 <0>         0.0773
     46 H14         6.3073   -5.3139    1.5555 H         1 <0>         0.0738
     47 H15         7.0061   -6.2246   -0.6631 H         1 <0>         0.0701
     48 H16         7.1060   -4.4476   -0.6132 H         1 <0>         0.0604
     49 H17         4.8157   -6.0894   -1.7895 H         1 <0>         0.0774
     50 H18         6.0347   -5.1766   -2.7123 H         1 <0>         0.0739
     51 H19         3.9194   -3.8901   -2.4882 H         1 <0>         0.0817
     52 H20         5.2664   -3.0729   -1.6600 H         1 <0>         0.0405
     53 H21        -1.2843    1.5268    1.7338 H         1 <0>         0.1511
     54 H22        -1.3065    3.9873    1.7505 H         1 <0>         0.1556
     55 H23         1.2011    4.0431   -1.7019 H         1 <0>         0.1579
@<TRIPOS>BOND
     1    1    6 ar
     2    1    2 ar
     3    1   33 1
     4    2    3 ar
     5    2   34 1
     6    3   12 1
     7    3    4 ar
     8    4    5 ar
     9    4    8 1
    10    5    6 ar
    11    5   35 1
    12    6    7 1
    13    8    9 1
    14    8   36 1
    15    8   37 1
    16    9   10 1
    17    9   38 1
    18    9   39 1
    19   10   11 1
    20   10   40 1
    21   10   41 1
    22   11   15 1
    23   11   12 2
    24   12   13 1
    25   13   14 1
    26   13   25 1
    27   14   15 2
    28   15   16 1
    29   16   17 2
    30   16   18 am
    31   18   19 1
    32   18   42 1
    33   19   24 1
    34   19   20 1
    35   20   21 1
    36   20   43 1
    37   20   44 1
    38   21   22 1
    39   21   45 1
    40   21   46 1
    41   22   23 1
    42   22   47 1
    43   22   48 1
    44   23   24 1
    45   23   49 1
    46   23   50 1
    47   24   51 1
    48   24   52 1
    49   25   30 ar
    50   25   26 ar
    51   26   27 ar
    52   26   53 1
    53   27   28 ar
    54   27   54 1
    55   28   29 ar
    56   28   32 1
    57   29   30 ar
    58   29   55 1
    59   30   31 1
@<TRIPOS>MOLECULE
ZINC33989874
   68    72     0     0     0
SMALL
USER_CHARGES

@<TRIPOS>ATOM
      1 C1         -1.9957   -7.0276    5.7432 C.3       1 <0>        -0.1197
      2 C2         -1.5434   -6.7843    4.3264 C.ar      1 <0>        -0.0677
      3 C3         -1.4083   -5.4913    3.8564 C.ar      1 <0>        -0.1215
      4 C4         -0.9935   -5.2681    2.5568 C.ar      1 <0>        -0.0824
      5 C5         -0.7133   -6.3379    1.7273 C.ar      1 <0>        -0.1099
      6 C6         -0.8476   -7.6308    2.1976 C.ar      1 <0>        -0.0843
      7 C7         -1.2583   -7.8540    3.4985 C.ar      1 <0>        -0.1212
      8 C8         -0.2621   -6.0945    0.3102 C.3       1 <0>         0.1568
      9 N1          1.2018   -6.0592    0.2631 N.pl3     1 <0>        -0.2683
     10 C9          1.9468   -6.0067   -0.8778 C.2       1 <0>         0.0445
     11 C10         3.2582   -5.9874   -0.4930 C.2       1 <0>        -0.1504
     12 C11         3.2367   -6.0311    0.9180 C.2       1 <0>        -0.0220
     13 N2          1.9726   -6.0676    1.2906 N.2       1 <0>        -0.2327
     14 C12         4.4131   -6.0310    1.8118 C.2       1 <0>         0.6055
     15 O1          5.5335   -5.9905    1.3418 O.2       1 <0>        -0.5314
     16 N3          4.2441   -6.0759    3.1482 N.am      1 <0>        -0.7050
     17 C13         5.4106   -6.0758    4.0344 C.3       1 <0>         0.1508
     18 H1          6.3085   -5.8042    3.4794 H         1 <0>         0.1040
     19 C14         5.5862   -7.4740    4.7019 C.3       1 <0>        -0.0829
     20 C15         4.1679   -7.8286    5.2442 C.3       1 <0>        -0.1173
     21 C16         3.9470   -6.8565    6.4257 C.3       1 <0>        -0.1304
     22 C17         5.2526   -6.0062    6.4859 C.3       1 <0>        -0.0915
     23 H2          5.4497   -5.5021    7.4321 H         1 <0>         0.1004
     24 C18         6.3133   -7.0707    6.0331 C.3       1 <0>        -0.1195
     25 C19         5.1910   -5.1014    5.2142 C.3       1 <0>        -0.0711
     26 C20         3.8211   -4.4291    5.1028 C.3       1 <0>        -0.1403
     27 C21         6.3014   -4.0495    5.2510 C.3       1 <0>        -0.1390
     28 C22         6.2781   -8.5398    3.8497 C.3       1 <0>        -0.1191
     29 C23         1.4340   -5.9767   -2.2658 C.ar      1 <0>        -0.0084
     30 C24         0.0977   -5.6604   -2.5119 C.ar      1 <0>        -0.1245
     31 C25        -0.3748   -5.6341   -3.8076 C.ar      1 <0>        -0.0966
     32 C26         0.4744   -5.9213   -4.8630 C.ar      1 <0>        -0.0351
     33 C27         1.8014   -6.2359   -4.6247 C.ar      1 <0>        -0.0644
     34 C28         2.2864   -6.2591   -3.3331 C.ar      1 <0>        -0.0850
     35 C29         2.7193   -6.5478   -5.7785 C.3       1 <0>        -0.1237
     36 Cl1        -0.1273   -5.8874   -6.4910 Cl        1 <0>        -0.0606
     37 H3         -1.1267   -7.0694    6.3998 H         1 <0>         0.0737
     38 H4         -2.6515   -6.2165    6.0596 H         1 <0>         0.0684
     39 H5         -2.5360   -7.9729    5.7948 H         1 <0>         0.0682
     40 H6         -1.6272   -4.6556    4.5045 H         1 <0>         0.1247
     41 H7         -0.8886   -4.2580    2.1894 H         1 <0>         0.1210
     42 H8         -0.6291   -8.4666    1.5494 H         1 <0>         0.1200
     43 H9         -1.3596   -8.8641    3.8671 H         1 <0>         0.1243
     44 H10        -0.6269   -6.8975   -0.3302 H         1 <0>         0.1079
     45 H11        -0.6599   -5.1418   -0.0393 H         1 <0>         0.1043
     46 H12         4.1272   -5.9472   -1.1330 H         1 <0>         0.1652
     47 H13         3.3501   -6.1082    3.5231 H         1 <0>         0.4072
     48 H14         3.4148   -7.6667    4.4731 H         1 <0>         0.0638
     49 H15         4.1412   -8.8613    5.5918 H         1 <0>         0.0639
     50 H16         3.0853   -6.2168    6.2354 H         1 <0>         0.0729
     51 H17         3.8118   -7.4114    7.3541 H         1 <0>         0.0634
     52 H18         6.3793   -7.9048    6.7317 H         1 <0>         0.0730
     53 H19         7.2889   -6.6219    5.8462 H         1 <0>         0.0723
     54 H20         3.0521   -5.1905    4.9730 H         1 <0>         0.0599
     55 H21         3.6203   -3.8609    6.0110 H         1 <0>         0.0587
     56 H22         3.8151   -3.7567    4.2449 H         1 <0>         0.0560
     57 H23         6.2813   -3.4676    4.3295 H         1 <0>         0.0562
     58 H24         6.1462   -3.3870    6.1025 H         1 <0>         0.0587
     59 H25         7.2677   -4.5445    5.3471 H         1 <0>         0.0592
     60 H26         7.2803   -8.2010    3.5873 H         1 <0>         0.0608
     61 H27         6.3452   -9.4696    4.4146 H         1 <0>         0.0581
     62 H28         5.7017   -8.7082    2.9400 H         1 <0>         0.0559
     63 H29        -0.5657   -5.4369   -1.6895 H         1 <0>         0.1353
     64 H30        -1.4091   -5.3893   -3.9992 H         1 <0>         0.1391
     65 H31         3.3229   -6.4999   -3.1487 H         1 <0>         0.1402
     66 H32         3.1892   -5.6284   -6.1278 H         1 <0>         0.0801
     67 H33         3.4886   -7.2476   -5.4519 H         1 <0>         0.0751
     68 H34         2.1441   -6.9930   -6.5903 H         1 <0>         0.0765
@<TRIPOS>BOND
     1    1    2 1
     2    1   37 1
     3    1   38 1
     4    1   39 1
     5    2    7 ar
     6    2    3 ar
     7    3    4 ar
     8    3   40 1
     9    4    5 ar
    10    4   41 1
    11    5    6 ar
    12    5    8 1
    13    6    7 ar
    14    6   42 1
    15    7   43 1
    16    8    9 1
    17    8   44 1
    18    8   45 1
    19    9   13 1
    20    9   10 1
    21   10   11 2
    22   10   29 1
    23   11   12 1
    24   11   46 1
    25   12   13 2
    26   12   14 1
    27   14   15 2
    28   14   16 am
    29   16   17 1
    30   16   47 1
    31   17   18 1
    32   17   25 1
    33   17   19 1
    34   19   24 1
    35   19   20 1
    36   19   28 1
    37   20   21 1
    38   20   48 1
    39   20   49 1
    40   21   22 1
    41   21   50 1
    42   21   51 1
    43   22   23 1
    44   22   24 1
    45   22   25 1
    46   24   52 1
    47   24   53 1
    48   25   26 1
    49   25   27 1
    50   26   54 1
    51   26   55 1
    52   26   56 1
    53   27   57 1
    54   27   58 1
    55   27   59 1
    56   28   60 1
    57   28   61 1
    58   28   62 1
    59   29   34 ar
    60   29   30 ar
    61   30   31 ar
    62   30   63 1
    63   31   32 ar
    64   31   64 1
    65   32   33 ar
    66   32   36 1
    67   33   34 ar
    68   33   35 1
    69   34   65 1
    70   35   66 1
    71   35   67 1
    72   35   68 1
@<TRIPOS>MOLECULE
ZINC36294905
   68    72     0     0     0
SMALL
USER_CHARGES

@<TRIPOS>ATOM
      1 C1         -1.9764   -5.5287    5.9604 C.3       1 <0>        -0.1197
      2 C2         -1.5549   -5.0949    4.5802 C.ar      1 <0>        -0.0676
      3 C3         -1.0265   -3.8327    4.3836 C.ar      1 <0>        -0.1215
      4 C4         -0.6399   -3.4347    3.1175 C.ar      1 <0>        -0.0786
      5 C5         -0.7812   -4.2991    2.0480 C.ar      1 <0>        -0.1109
      6 C6         -1.3087   -5.5616    2.2447 C.ar      1 <0>        -0.0868
      7 C7         -1.6914   -5.9611    3.5116 C.ar      1 <0>        -0.1219
      8 C8         -0.3606   -3.8648    0.6676 C.3       1 <0>         0.1567
      9 N1          1.0704   -4.1227    0.4894 N.pl3     1 <0>        -0.2685
     10 C9          1.7439   -4.0138   -0.6914 C.2       1 <0>         0.0445
     11 C10         3.0472   -4.3359   -0.4342 C.2       1 <0>        -0.1509
     12 C11         3.0955   -4.6348    0.9448 C.2       1 <0>        -0.0217
     13 N2          1.8769   -4.4794    1.4234 N.2       1 <0>        -0.2322
     14 C12         4.2915   -5.0419    1.7107 C.2       1 <0>         0.6078
     15 O1          5.3655   -5.1460    1.1509 O.2       1 <0>        -0.5297
     16 N3          4.1917   -5.2979    3.0302 N.am      1 <0>        -0.7055
     17 C13         5.3776   -5.7015    3.7898 C.3       1 <0>         0.1578
     18 H1          6.2652   -5.2027    3.4005 H         1 <0>         0.0932
     19 C14         5.1907   -5.3758    5.3031 C.3       1 <0>        -0.0818
     20 C15         6.5932   -5.6331    5.9340 C.3       1 <0>        -0.1123
     21 C16         6.7689   -7.1681    5.8834 C.3       1 <0>        -0.1313
     22 C17         5.4559   -7.6937    5.2268 C.3       1 <0>        -0.0923
     23 H2          5.2247   -8.7449    5.3989 H         1 <0>         0.0987
     24 C18         4.4181   -6.6554    5.7820 C.3       1 <0>        -0.1204
     25 C19         5.5550   -7.2362    3.7366 C.3       1 <0>        -0.0711
     26 C20         4.4389   -7.8737    2.9066 C.3       1 <0>        -0.1297
     27 C21         6.9244   -7.5951    3.1562 C.3       1 <0>        -0.1415
     28 C22         4.5344   -4.0310    5.6217 C.3       1 <0>        -0.1215
     29 C23         1.1734   -3.6227   -1.9998 C.ar      1 <0>        -0.0081
     30 C24        -0.0841   -3.0217   -2.0638 C.ar      1 <0>        -0.1252
     31 C25        -0.6110   -2.6593   -3.2859 C.ar      1 <0>        -0.0965
     32 C26         0.1055   -2.8912   -4.4480 C.ar      1 <0>        -0.0352
     33 C27         1.3538   -3.4872   -4.3905 C.ar      1 <0>        -0.0644
     34 C28         1.8932   -3.8482   -3.1729 C.ar      1 <0>        -0.0852
     35 C29         2.1272   -3.7368   -5.6595 C.3       1 <0>        -0.1237
     36 Cl1        -0.5642   -2.4335   -5.9828 Cl        1 <0>        -0.0607
     37 H3         -1.1328   -5.9972    6.4675 H         1 <0>         0.0736
     38 H4         -2.3054   -4.6595    6.5299 H         1 <0>         0.0684
     39 H5         -2.7958   -6.2433    5.8823 H         1 <0>         0.0681
     40 H6         -0.9161   -3.1574    5.2192 H         1 <0>         0.1246
     41 H7         -0.2277   -2.4483    2.9639 H         1 <0>         0.1205
     42 H8         -1.4195   -6.2367    1.4091 H         1 <0>         0.1207
     43 H9         -2.1001   -6.9488    3.6659 H         1 <0>         0.1244
     44 H10        -0.9262   -4.4245   -0.0774 H         1 <0>         0.1079
     45 H11        -0.5556   -2.7992    0.5467 H         1 <0>         0.1044
     46 H12         3.8667   -4.3572   -1.1373 H         1 <0>         0.1649
     47 H13         3.3347   -5.2148    3.4769 H         1 <0>         0.4047
     48 H14         7.3697   -5.1423    5.3471 H         1 <0>         0.0660
     49 H15         6.6162   -5.2818    6.9655 H         1 <0>         0.0683
     50 H16         7.6316   -7.4319    5.2717 H         1 <0>         0.0768
     51 H17         6.8781   -7.5714    6.8901 H         1 <0>         0.0632
     52 H18         4.3356   -6.7006    6.8679 H         1 <0>         0.0718
     53 H19         3.4458   -6.7507    5.2985 H         1 <0>         0.0679
     54 H20         4.4854   -7.4969    1.8849 H         1 <0>         0.0540
     55 H21         4.5638   -8.9565    2.9006 H         1 <0>         0.0515
     56 H22         3.4724   -7.6219    3.3431 H         1 <0>         0.0530
     57 H23         7.6983   -7.0285    3.6741 H         1 <0>         0.0610
     58 H24         7.1062   -8.6618    3.2869 H         1 <0>         0.0551
     59 H25         6.9443   -7.3505    2.0942 H         1 <0>         0.0607
     60 H26         3.5387   -3.9987    5.1793 H         1 <0>         0.0581
     61 H27         4.4558   -3.9120    6.7024 H         1 <0>         0.0620
     62 H28         5.1410   -3.2241    5.2105 H         1 <0>         0.0595
     63 H29        -0.6441   -2.8410   -1.1581 H         1 <0>         0.1356
     64 H30        -1.5843   -2.1940   -3.3366 H         1 <0>         0.1391
     65 H31         2.8692   -4.3087   -3.1287 H         1 <0>         0.1401
     66 H32         2.7518   -2.8713   -5.8806 H         1 <0>         0.0801
     67 H33         2.7576   -4.6171   -5.5336 H         1 <0>         0.0751
     68 H34         1.4317   -3.9026   -6.4823 H         1 <0>         0.0766
@<TRIPOS>BOND
     1    1    2 1
     2    1   37 1
     3    1   38 1
     4    1   39 1
     5    2    7 ar
     6    2    3 ar
     7    3    4 ar
     8    3   40 1
     9    4    5 ar
    10    4   41 1
    11    5    6 ar
    12    5    8 1
    13    6    7 ar
    14    6   42 1
    15    7   43 1
    16    8    9 1
    17    8   44 1
    18    8   45 1
    19    9   13 1
    20    9   10 1
    21   10   11 2
    22   10   29 1
    23   11   12 1
    24   11   46 1
    25   12   13 2
    26   12   14 1
    27   14   15 2
    28   14   16 am
    29   16   17 1
    30   16   47 1
    31   17   18 1
    32   17   25 1
    33   17   19 1
    34   19   24 1
    35   19   20 1
    36   19   28 1
    37   20   21 1
    38   20   48 1
    39   20   49 1
    40   21   22 1
    41   21   50 1
    42   21   51 1
    43   22   23 1
    44   22   24 1
    45   22   25 1
    46   24   52 1
    47   24   53 1
    48   25   26 1
    49   25   27 1
    50   26   54 1
    51   26   55 1
    52   26   56 1
    53   27   57 1
    54   27   58 1
    55   27   59 1
    56   28   60 1
    57   28   61 1
    58   28   62 1
    59   29   34 ar
    60   29   30 ar
    61   30   31 ar
    62   30   63 1
    63   31   32 ar
    64   31   64 1
    65   32   33 ar
    66   32   36 1
    67   33   34 ar
    68   33   35 1
    69   34   65 1
    70   35   66 1
    71   35   67 1
    72   35   68 1
@<TRIPOS>MOLECULE
ZINC02037153
   29    29     0     0     0
SMALL
USER_CHARGES

@<TRIPOS>ATOM
      1 C1         -0.0480    1.6218   -0.2657 C.3       1 <0>        -0.1580
      2 C2         -0.0462    0.0947   -0.1717 C.3       1 <0>         0.0851
      3 O1          0.6767   -0.4498   -1.2776 O.3       1 <0>        -0.7012
      4 P1          0.9802   -2.0228   -1.4378 P.3       1 <0>         2.2994
      5 O2          1.8429   -2.2408   -2.6204 O.2       1 <0>        -0.9763
      6 O3          1.7307   -2.5616   -0.1193 O.3       1 <0>        -0.7469
      7 C3          3.0359   -2.1259    0.2662 C.3       1 <0>         0.1124
      8 C4          3.4478   -2.8317    1.5596 C.3       1 <0>        -0.1574
      9 O4         -0.4055   -2.8198   -1.6301 O.3       1 <0>        -0.6091
     10 C5         -0.2504   -4.1463   -1.8714 C.ar      1 <0>         0.3364
     11 C6         -0.2460   -4.6114   -3.1811 C.ar      1 <0>        -0.0640
     12 C7         -0.0870   -5.9673   -3.4145 C.ar      1 <0>        -0.0277
     13 C8          0.0628   -6.8139   -2.3240 C.ar      1 <0>        -0.0674
     14 C9          0.0486   -6.2812   -1.0477 C.ar      1 <0>         0.2085
     15 N1         -0.0996   -4.9826   -0.8583 N.ar      1 <0>        -0.4593
     16 Cl1         0.2345   -7.3317    0.3218 Cl        1 <0>         0.0199
     17 Cl2         0.2649   -8.5218   -2.5601 Cl        1 <0>        -0.0023
     18 Cl3        -0.4379   -3.5074   -4.5070 Cl        1 <0>         0.0067
     19 H1          0.9783    1.9883   -0.2447 H         1 <0>         0.0710
     20 H2         -0.5241    1.9279   -1.1972 H         1 <0>         0.0733
     21 H3         -0.5994    2.0371    0.5778 H         1 <0>         0.0818
     22 H4          0.4299   -0.2114    0.7598 H         1 <0>         0.0664
     23 H5         -1.0725   -0.2718   -0.1927 H         1 <0>         0.0714
     24 H6          3.7477   -2.3687   -0.5228 H         1 <0>         0.0762
     25 H7          3.0261   -1.0480    0.4277 H         1 <0>         0.0608
     26 H8          2.7360   -2.5890    2.3486 H         1 <0>         0.0665
     27 H9          3.4576   -3.9097    1.3981 H         1 <0>         0.0703
     28 H10         4.4434   -2.4994    1.8537 H         1 <0>         0.0807
     29 H11        -0.0799   -6.3573   -4.4216 H         1 <0>         0.1828
@<TRIPOS>BOND
     1    1    2 1
     2    1   19 1
     3    1   20 1
     4    1   21 1
     5    2    3 1
     6    2   22 1
     7    2   23 1
     8    3    4 1
     9    4    5 2
    10    4    6 1
    11    4    9 1
    12    6    7 1
    13    7    8 1
    14    7   24 1
    15    7   25 1
    16    8   26 1
    17    8   27 1
    18    8   28 1
    19    9   10 1
    20   10   15 ar
    21   10   11 ar
    22   11   12 ar
    23   11   18 1
    24   12   13 ar
    25   12   29 1
    26   13   14 ar
    27   13   17 1
    28   14   15 ar
    29   14   16 1
@<TRIPOS>MOLECULE
ZINC44387581
   69    68     0     0     0
SMALL
USER_CHARGES

@<TRIPOS>ATOM
      1 C1         -0.0187    1.5258    0.0104 C.3       1 <0>        -0.1543
      2 C2          0.0021   -0.0041    0.0020 C.3       1 <0>        -0.1261
      3 C3         -1.4333   -0.5336    0.0129 C.3       1 <0>        -0.1213
      4 C4         -1.4126   -2.0635    0.0045 C.3       1 <0>        -0.1212
      5 C5         -2.8479   -2.5931    0.0153 C.3       1 <0>        -0.1207
      6 C6         -2.8272   -4.1229    0.0069 C.3       1 <0>        -0.1206
      7 C7         -4.2626   -4.6525    0.0178 C.3       1 <0>        -0.1206
      8 C8         -4.2418   -6.1823    0.0094 C.3       1 <0>        -0.1205
      9 C9         -5.6772   -6.7119    0.0202 C.3       1 <0>        -0.1205
     10 C10        -5.6565   -8.2417    0.0118 C.3       1 <0>        -0.1205
     11 C11        -7.0918   -8.7713    0.0227 C.3       1 <0>        -0.1206
     12 C12        -7.0711  -10.3012    0.0143 C.3       1 <0>        -0.1205
     13 C13        -8.5065  -10.8307    0.0251 C.3       1 <0>        -0.1205
     14 C14        -8.4857  -12.3606    0.0167 C.3       1 <0>        -0.1205
     15 C15        -9.9211  -12.8902    0.0276 C.3       1 <0>        -0.1206
     16 C16        -9.9004  -14.4200    0.0191 C.3       1 <0>        -0.1203
     17 C17       -11.3358  -14.9496    0.0300 C.3       1 <0>        -0.1232
     18 C18       -11.3150  -16.4794    0.0216 C.3       1 <0>        -0.1152
     19 C19       -12.7504  -17.0090    0.0325 C.3       1 <0>        -0.1171
     20 C20       -12.7296  -18.5388    0.0240 C.3       1 <0>        -0.7260
     21 P1        -14.4399  -19.1698    0.0370 P.3       1 <0>         2.2103
     22 O1        -15.1557  -18.6796   -1.1620 O.2       1 <0>        -0.9854
     23 O2        -14.4181  -20.7797    0.0281 O.3       1 <0>        -0.7307
     24 C21       -15.6058  -21.5742    0.0352 C.3       1 <0>         0.0716
     25 F1        -15.2216  -18.6312    1.4110 F         1 <0>        -0.3638
     26 H1          1.0039    1.9031    0.0027 H         1 <0>         0.0535
     27 H2         -0.5459    1.8868   -0.8726 H         1 <0>         0.0533
     28 H3         -0.5289    1.8773    0.9072 H         1 <0>         0.0533
     29 H4          0.5123   -0.3556   -0.8948 H         1 <0>         0.0602
     30 H5          0.5293   -0.3651    0.8851 H         1 <0>         0.0602
     31 H6         -1.9435   -0.1821    0.9097 H         1 <0>         0.0606
     32 H7         -1.9605   -0.1726   -0.8702 H         1 <0>         0.0606
     33 H8         -0.9024   -2.4150   -0.8923 H         1 <0>         0.0604
     34 H9         -0.8854   -2.4246    0.8875 H         1 <0>         0.0604
     35 H10        -3.3581   -2.2415    0.9121 H         1 <0>         0.0604
     36 H11        -3.3751   -2.2320   -0.8677 H         1 <0>         0.0605
     37 H12        -2.3170   -4.4744   -0.8899 H         1 <0>         0.0603
     38 H13        -2.3000   -4.4840    0.8900 H         1 <0>         0.0603
     39 H14        -4.7728   -4.3010    0.9146 H         1 <0>         0.0604
     40 H15        -4.7898   -4.2914   -0.8653 H         1 <0>         0.0604
     41 H16        -3.7316   -6.5338   -0.8874 H         1 <0>         0.0602
     42 H17        -3.7146   -6.5434    0.8924 H         1 <0>         0.0602
     43 H18        -6.1874   -6.3604    0.9170 H         1 <0>         0.0604
     44 H19        -6.2044   -6.3508   -0.8628 H         1 <0>         0.0605
     45 H20        -5.1463   -8.5933   -0.8850 H         1 <0>         0.0602
     46 H21        -5.1293   -8.6028    0.8949 H         1 <0>         0.0601
     47 H22        -7.6020   -8.4198    0.9195 H         1 <0>         0.0605
     48 H23        -7.6190   -8.4102   -0.8604 H         1 <0>         0.0606
     49 H24        -6.5609  -10.6527   -0.8825 H         1 <0>         0.0602
     50 H25        -6.5439  -10.6622    0.8973 H         1 <0>         0.0601
     51 H26        -9.0167  -10.4792    0.9219 H         1 <0>         0.0607
     52 H27        -9.0337  -10.4697   -0.8579 H         1 <0>         0.0609
     53 H28        -7.9755  -12.7121   -0.8801 H         1 <0>         0.0603
     54 H29        -7.9586  -12.7217    0.8998 H         1 <0>         0.0600
     55 H30       -10.4313  -12.5386    0.9244 H         1 <0>         0.0616
     56 H31       -10.4483  -12.5291   -0.8555 H         1 <0>         0.0621
     57 H32        -9.3902  -14.7715   -0.8776 H         1 <0>         0.0608
     58 H33        -9.3732  -14.7811    0.9022 H         1 <0>         0.0602
     59 H34       -11.8459  -14.5981    0.9268 H         1 <0>         0.0648
     60 H35       -11.8629  -14.5885   -0.8531 H         1 <0>         0.0662
     61 H36       -10.8048  -16.8309   -0.8752 H         1 <0>         0.0634
     62 H37       -10.7878  -16.8405    0.9047 H         1 <0>         0.0613
     63 H38       -13.2606  -16.6575    0.9292 H         1 <0>         0.0739
     64 H39       -13.2776  -16.6479   -0.8506 H         1 <0>         0.0874
     65 H40       -12.2195  -18.8903   -0.8727 H         1 <0>         0.1209
     66 H41       -12.2025  -18.8999    0.9071 H         1 <0>         0.1020
     67 H42       -15.3365  -22.6303    0.0270 H         1 <0>         0.1018
     68 H43       -16.1850  -21.3539    0.9320 H         1 <0>         0.0611
     69 H44       -16.2020  -21.3443   -0.8479 H         1 <0>         0.0714
@<TRIPOS>BOND
     1    1    2 1
     2    1   26 1
     3    1   27 1
     4    1   28 1
     5    2    3 1
     6    2   29 1
     7    2   30 1
     8    3    4 1
     9    3   31 1
    10    3   32 1
    11    4    5 1
    12    4   33 1
    13    4   34 1
    14    5    6 1
    15    5   35 1
    16    5   36 1
    17    6    7 1
    18    6   37 1
    19    6   38 1
    20    7    8 1
    21    7   39 1
    22    7   40 1
    23    8    9 1
    24    8   41 1
    25    8   42 1
    26    9   10 1
    27    9   43 1
    28    9   44 1
    29   10   11 1
    30   10   45 1
    31   10   46 1
    32   11   12 1
    33   11   47 1
    34   11   48 1
    35   12   13 1
    36   12   49 1
    37   12   50 1
    38   13   14 1
    39   13   51 1
    40   13   52 1
    41   14   15 1
    42   14   53 1
    43   14   54 1
    44   15   16 1
    45   15   55 1
    46   15   56 1
    47   16   17 1
    48   16   57 1
    49   16   58 1
    50   17   18 1
    51   17   59 1
    52   17   60 1
    53   18   19 1
    54   18   61 1
    55   18   62 1
    56   19   20 1
    57   19   63 1
    58   19   64 1
    59   20   21 1
    60   20   65 1
    61   20   66 1
    62   21   22 2
    63   21   23 1
    64   21   25 1
    65   23   24 1
    66   24   67 1
    67   24   68 1
    68   24   69 1
@<TRIPOS>MOLECULE
ZINC44387584
   69    68     0     0     0
SMALL
USER_CHARGES

@<TRIPOS>ATOM
      1 C1         -0.0187    1.5258    0.0104 C.3       1 <0>        -0.1543
      2 C2          0.0021   -0.0041    0.0020 C.3       1 <0>        -0.1261
      3 C3         -1.4333   -0.5336    0.0129 C.3       1 <0>        -0.1213
      4 C4         -1.4126   -2.0635    0.0045 C.3       1 <0>        -0.1212
      5 C5         -2.8479   -2.5931    0.0153 C.3       1 <0>        -0.1207
      6 C6         -2.8272   -4.1229    0.0069 C.3       1 <0>        -0.1206
      7 C7         -4.2626   -4.6525    0.0178 C.3       1 <0>        -0.1206
      8 C8         -4.2418   -6.1823    0.0094 C.3       1 <0>        -0.1205
      9 C9         -5.6772   -6.7119    0.0202 C.3       1 <0>        -0.1205
     10 C10        -5.6565   -8.2417    0.0118 C.3       1 <0>        -0.1206
     11 C11        -7.0918   -8.7713    0.0227 C.3       1 <0>        -0.1206
     12 C12        -7.0711  -10.3012    0.0143 C.3       1 <0>        -0.1205
     13 C13        -8.5065  -10.8307    0.0251 C.3       1 <0>        -0.1205
     14 C14        -8.4857  -12.3606    0.0167 C.3       1 <0>        -0.1205
     15 C15        -9.9211  -12.8902    0.0276 C.3       1 <0>        -0.1206
     16 C16        -9.9004  -14.4200    0.0191 C.3       1 <0>        -0.1202
     17 C17       -11.3358  -14.9496    0.0300 C.3       1 <0>        -0.1232
     18 C18       -11.3150  -16.4794    0.0216 C.3       1 <0>        -0.1152
     19 C19       -12.7504  -17.0090    0.0325 C.3       1 <0>        -0.1171
     20 C20       -12.7296  -18.5388    0.0240 C.3       1 <0>        -0.7260
     21 P1        -14.4399  -19.1698    0.0370 P.3       1 <0>         2.2102
     22 O1        -15.1326  -18.6925    1.2547 O.2       1 <0>        -0.9854
     23 O2        -14.4181  -20.7797    0.0281 O.3       1 <0>        -0.7306
     24 C21       -15.6058  -21.5742    0.0352 C.3       1 <0>         0.0716
     25 F1        -15.2476  -18.6166   -1.3160 F         1 <0>        -0.3637
     26 H1          1.0039    1.9031    0.0027 H         1 <0>         0.0535
     27 H2         -0.5459    1.8868   -0.8726 H         1 <0>         0.0533
     28 H3         -0.5289    1.8773    0.9072 H         1 <0>         0.0533
     29 H4          0.5123   -0.3556   -0.8948 H         1 <0>         0.0602
     30 H5          0.5293   -0.3651    0.8851 H         1 <0>         0.0602
     31 H6         -1.9435   -0.1821    0.9097 H         1 <0>         0.0606
     32 H7         -1.9605   -0.1726   -0.8702 H         1 <0>         0.0606
     33 H8         -0.9024   -2.4150   -0.8923 H         1 <0>         0.0604
     34 H9         -0.8854   -2.4246    0.8875 H         1 <0>         0.0604
     35 H10        -3.3581   -2.2415    0.9121 H         1 <0>         0.0604
     36 H11        -3.3751   -2.2320   -0.8677 H         1 <0>         0.0604
     37 H12        -2.3170   -4.4744   -0.8899 H         1 <0>         0.0603
     38 H13        -2.3000   -4.4840    0.8900 H         1 <0>         0.0603
     39 H14        -4.7728   -4.3010    0.9146 H         1 <0>         0.0604
     40 H15        -4.7898   -4.2914   -0.8653 H         1 <0>         0.0604
     41 H16        -3.7316   -6.5338   -0.8874 H         1 <0>         0.0602
     42 H17        -3.7146   -6.5434    0.8924 H         1 <0>         0.0603
     43 H18        -6.1874   -6.3604    0.9170 H         1 <0>         0.0604
     44 H19        -6.2044   -6.3508   -0.8628 H         1 <0>         0.0604
     45 H20        -5.1463   -8.5933   -0.8850 H         1 <0>         0.0601
     46 H21        -5.1293   -8.6028    0.8949 H         1 <0>         0.0602
     47 H22        -7.6020   -8.4198    0.9195 H         1 <0>         0.0606
     48 H23        -7.6190   -8.4102   -0.8604 H         1 <0>         0.0605
     49 H24        -6.5609  -10.6527   -0.8825 H         1 <0>         0.0601
     50 H25        -6.5439  -10.6622    0.8973 H         1 <0>         0.0602
     51 H26        -9.0167  -10.4792    0.9219 H         1 <0>         0.0609
     52 H27        -9.0337  -10.4697   -0.8579 H         1 <0>         0.0607
     53 H28        -7.9755  -12.7121   -0.8801 H         1 <0>         0.0600
     54 H29        -7.9586  -12.7217    0.8998 H         1 <0>         0.0602
     55 H30       -10.4313  -12.5386    0.9244 H         1 <0>         0.0621
     56 H31       -10.4483  -12.5291   -0.8555 H         1 <0>         0.0616
     57 H32        -9.3902  -14.7715   -0.8776 H         1 <0>         0.0602
     58 H33        -9.3732  -14.7811    0.9022 H         1 <0>         0.0608
     59 H34       -11.8459  -14.5981    0.9268 H         1 <0>         0.0662
     60 H35       -11.8629  -14.5885   -0.8531 H         1 <0>         0.0648
     61 H36       -10.8048  -16.8309   -0.8752 H         1 <0>         0.0613
     62 H37       -10.7878  -16.8405    0.9047 H         1 <0>         0.0634
     63 H38       -13.2606  -16.6575    0.9292 H         1 <0>         0.0874
     64 H39       -13.2776  -16.6479   -0.8506 H         1 <0>         0.0739
     65 H40       -12.2195  -18.8903   -0.8727 H         1 <0>         0.1020
     66 H41       -12.2025  -18.8999    0.9071 H         1 <0>         0.1209
     67 H42       -15.3365  -22.6303    0.0269 H         1 <0>         0.1018
     68 H43       -16.1850  -21.3539    0.9319 H         1 <0>         0.0714
     69 H44       -16.2020  -21.3443   -0.8479 H         1 <0>         0.0611
@<TRIPOS>BOND
     1    1    2 1
     2    1   26 1
     3    1   27 1
     4    1   28 1
     5    2    3 1
     6    2   29 1
     7    2   30 1
     8    3    4 1
     9    3   31 1
    10    3   32 1
    11    4    5 1
    12    4   33 1
    13    4   34 1
    14    5    6 1
    15    5   35 1
    16    5   36 1
    17    6    7 1
    18    6   37 1
    19    6   38 1
    20    7    8 1
    21    7   39 1
    22    7   40 1
    23    8    9 1
    24    8   41 1
    25    8   42 1
    26    9   10 1
    27    9   43 1
    28    9   44 1
    29   10   11 1
    30   10   45 1
    31   10   46 1
    32   11   12 1
    33   11   47 1
    34   11   48 1
    35   12   13 1
    36   12   49 1
    37   12   50 1
    38   13   14 1
    39   13   51 1
    40   13   52 1
    41   14   15 1
    42   14   53 1
    43   14   54 1
    44   15   16 1
    45   15   55 1
    46   15   56 1
    47   16   17 1
    48   16   57 1
    49   16   58 1
    50   17   18 1
    51   17   59 1
    52   17   60 1
    53   18   19 1
    54   18   61 1
    55   18   62 1
    56   19   20 1
    57   19   63 1
    58   19   64 1
    59   20   21 1
    60   20   65 1
    61   20   66 1
    62   21   22 2
    63   21   23 1
    64   21   25 1
    65   23   24 1
    66   24   67 1
    67   24   68 1
    68   24   69 1
@<TRIPOS>MOLECULE
ZINC01530625
   53    55     0     0     0
SMALL
USER_CHARGES
trimethyl-pentyl-BLAHol
@<TRIPOS>ATOM
      1 C1          1.1312    7.6661    2.8994 C.3       1 <0>        -0.1540
      2 C2          1.1487    6.1362    2.8960 C.3       1 <0>        -0.1262
      3 C3          1.1435    5.6293    1.4524 C.3       1 <0>        -0.1205
      4 C4          1.1610    4.0994    1.4490 C.3       1 <0>        -0.1146
      5 C5          1.1558    3.5925    0.0054 C.3       1 <0>        -0.0805
      6 C6          1.1731    2.0856    0.0021 C.ar      1 <0>        -0.0309
      7 C7         -0.0167    1.3825    0.0096 C.ar      1 <0>        -0.1773
      8 C8          0.0021   -0.0041    0.0020 C.ar      1 <0>         0.1493
      9 C9          1.2101   -0.6850   -0.0134 C.ar      1 <0>        -0.1821
     10 C10         2.4061    0.0193   -0.0126 C.ar      1 <0>         0.1598
     11 C11         2.3764    1.4113   -0.0090 C.ar      1 <0>        -0.1594
     12 O1          3.6146   -0.6005   -0.0010 O.3       1 <0>        -0.3086
     13 C12         3.6845   -2.0092   -0.2471 C.3       1 <0>         0.1227
     14 C13         2.5579   -2.6737    0.5379 C.3       1 <0>        -0.1116
     15 H1          2.6234   -2.3795    1.5854 H         1 <0>         0.0833
     16 C14         1.2282   -2.1827   -0.0438 C.3       1 <0>        -0.0074
     17 H2          1.1717   -2.5044   -1.0837 H         1 <0>         0.0862
     18 C15         0.0991   -2.8232    0.6943 C.2       1 <0>        -0.1575
     19 C16         0.2426   -3.9571    1.3166 C.2       1 <0>        -0.1330
     20 C17         1.5172   -4.7404    1.4011 C.3       1 <0>        -0.0831
     21 C18         2.5770   -4.1958    0.4360 C.3       1 <0>        -0.1091
     22 C19        -0.9695   -4.5278    2.0066 C.3       1 <0>        -0.1201
     23 C20         3.5073   -2.2839   -1.7418 C.3       1 <0>        -0.1757
     24 C21         5.0358   -2.5513    0.2230 C.3       1 <0>        -0.1411
     25 O2         -1.1666   -0.6976    0.0092 O.3       1 <0>        -0.4884
     26 H3          2.0130    8.0407    2.3796 H         1 <0>         0.0535
     27 H4          0.2332    8.0203    2.3932 H         1 <0>         0.0534
     28 H5          1.1349    8.0272    3.9278 H         1 <0>         0.0534
     29 H6          0.2669    5.7616    3.4158 H         1 <0>         0.0608
     30 H7          2.0467    5.7820    3.4022 H         1 <0>         0.0609
     31 H8          2.0253    6.0039    0.9326 H         1 <0>         0.0625
     32 H9          0.2455    5.9835    0.9462 H         1 <0>         0.0622
     33 H10         0.2792    3.7248    1.9688 H         1 <0>         0.0642
     34 H11         2.0590    3.7452    1.9552 H         1 <0>         0.0645
     35 H12         2.0376    3.9671   -0.5144 H         1 <0>         0.0754
     36 H13         0.2578    3.9467   -0.5008 H         1 <0>         0.0752
     37 H14        -0.9583    1.9114    0.0170 H         1 <0>         0.1293
     38 H15         3.3023    1.9672   -0.0154 H         1 <0>         0.1307
     39 H16        -0.8626   -2.3322    0.7121 H         1 <0>         0.1461
     40 H17         1.3121   -5.7820    1.1539 H         1 <0>         0.0732
     41 H18         1.9012   -4.6853    2.4197 H         1 <0>         0.0718
     42 H19         2.3403   -4.5010   -0.5833 H         1 <0>         0.0690
     43 H20         3.5606   -4.5727    0.7164 H         1 <0>         0.0748
     44 H21        -1.0093   -4.1621    3.0327 H         1 <0>         0.0632
     45 H22        -1.8695   -4.2183    1.4753 H         1 <0>         0.0622
     46 H23        -0.9063   -5.6160    2.0110 H         1 <0>         0.0592
     47 H24         4.2972   -1.7810   -2.2998 H         1 <0>         0.0681
     48 H25         3.5615   -3.3574   -1.9228 H         1 <0>         0.0755
     49 H26         2.5371   -1.9090   -2.0676 H         1 <0>         0.0640
     50 H27         5.1499   -2.3661    1.2911 H         1 <0>         0.0669
     51 H28         5.0831   -3.6236    0.0331 H         1 <0>         0.0817
     52 H29         5.8372   -2.0504   -0.3202 H         1 <0>         0.0690
     53 H30        -1.5131   -0.8936   -0.8720 H         1 <0>         0.3891
@<TRIPOS>BOND
     1    1    2 1
     2    1   26 1
     3    1   27 1
     4    1   28 1
     5    2    3 1
     6    2   29 1
     7    2   30 1
     8    3    4 1
     9    3   31 1
    10    3   32 1
    11    4    5 1
    12    4   33 1
    13    4   34 1
    14    5    6 1
    15    5   35 1
    16    5   36 1
    17    6   11 ar
    18    6    7 ar
    19    7    8 ar
    20    7   37 1
    21    8    9 ar
    22    8   25 1
    23    9   16 1
    24    9   10 ar
    25   10   11 ar
    26   10   12 1
    27   11   38 1
    28   12   13 1
    29   13   14 1
    30   13   23 1
    31   13   24 1
    32   14   15 1
    33   14   21 1
    34   14   16 1
    35   16   17 1
    36   16   18 1
    37   18   19 2
    38   18   39 1
    39   19   20 1
    40   19   22 1
    41   20   21 1
    42   20   40 1
    43   20   41 1
    44   21   42 1
    45   21   43 1
    46   22   44 1
    47   22   45 1
    48   22   46 1
    49   23   47 1
    50   23   48 1
    51   23   49 1
    52   24   50 1
    53   24   51 1
    54   24   52 1
    55   25   53 1
@<TRIPOS>MOLECULE
ZINC02568244
   67    68     0     0     0
SMALL
USER_CHARGES

@<TRIPOS>ATOM
      1 C1         -0.0187    1.5258    0.0104 C.3       1 <0>        -0.1543
      2 C2          0.0021   -0.0041    0.0020 C.3       1 <0>        -0.1261
      3 C3          0.7421   -0.5109    1.2415 C.3       1 <0>        -0.1206
      4 C4          0.7628   -2.0407    1.2331 C.3       1 <0>        -0.1209
      5 C5          1.5028   -2.5476    2.4727 C.3       1 <0>        -0.1238
      6 C6          1.5236   -4.0774    2.4642 C.3       1 <0>        -0.1105
      7 C7          2.2636   -4.5842    3.7038 C.3       1 <0>        -0.0238
      8 C8          3.6989   -4.0547    3.6929 C.3       1 <0>        -0.1411
      9 C9          1.5474   -4.0908    4.9626 C.3       1 <0>        -0.1411
     10 C10         2.2840   -6.0911    3.6955 C.ar      1 <0>        -0.0548
     11 C11         1.6895   -6.7844    2.6571 C.ar      1 <0>        -0.1266
     12 C12         1.7065   -8.1667    2.6466 C.ar      1 <0>        -0.0962
     13 C13         2.3175   -8.8590    3.6743 C.ar      1 <0>        -0.1001
     14 C14         2.9146   -8.1659    4.7171 C.ar      1 <0>         0.1097
     15 C15         2.9014   -6.7785    4.7222 C.ar      1 <0>        -0.1386
     16 O1          3.5162   -8.8447    5.7291 O.3       1 <0>        -0.4957
     17 C16         2.3349  -10.3659    3.6627 C.3       1 <0>        -0.0372
     18 H1          2.8571  -10.7300    4.5475 H         1 <0>         0.0871
     19 C17         3.0559  -10.8579    2.4062 C.3       1 <0>        -0.1028
     20 C18         3.0735  -12.3878    2.3944 C.3       1 <0>         0.1051
     21 H2          3.5958  -12.7520    3.2792 H         1 <0>         0.0544
     22 C19         1.6370  -12.9144    2.3973 C.3       1 <0>        -0.1526
     23 C20         0.9160  -12.4223    3.6539 C.3       1 <0>        -0.1149
     24 C21         0.8984  -10.8925    3.6656 C.3       1 <0>        -0.0749
     25 H3          0.3761  -10.5283    2.7809 H         1 <0>         0.0738
     26 C22         0.1773  -10.4004    4.9221 C.3       1 <0>        -0.1093
     27 C23        -1.2924  -10.8217    4.8647 C.3       1 <0>        -0.1205
     28 C24        -2.0135  -10.3296    6.1212 C.3       1 <0>         0.0744
     29 O2         -3.3862  -10.7231    6.0676 O.3       1 <0>        -0.5767
     30 O3          3.7470  -12.8474    1.2209 O.3       1 <0>        -0.5689
     31 H4          1.0039    1.9031    0.0027 H         1 <0>         0.0532
     32 H5         -0.5459    1.8868   -0.8726 H         1 <0>         0.0533
     33 H6         -0.5289    1.8773    0.9072 H         1 <0>         0.0532
     34 H7         -1.0205   -0.3814    0.0098 H         1 <0>         0.0601
     35 H8          0.5123   -0.3556   -0.8948 H         1 <0>         0.0602
     36 H9          1.7647   -0.1336    1.2338 H         1 <0>         0.0604
     37 H10         0.2319   -0.1594    2.1383 H         1 <0>         0.0603
     38 H11        -0.2598   -2.4180    1.2409 H         1 <0>         0.0603
     39 H12         1.2730   -2.3923    0.3363 H         1 <0>         0.0603
     40 H13         2.5254   -2.1703    2.4649 H         1 <0>         0.0651
     41 H14         0.9926   -2.1961    3.3695 H         1 <0>         0.0651
     42 H15         0.5010   -4.4547    2.4720 H         1 <0>         0.0656
     43 H16         2.0337   -4.4289    1.5675 H         1 <0>         0.0657
     44 H17         3.6842   -2.9648    3.6989 H         1 <0>         0.0632
     45 H18         4.2261   -4.4157    4.5760 H         1 <0>         0.0552
     46 H19         4.2091   -4.4062    2.7961 H         1 <0>         0.0563
     47 H20         0.5248   -4.4681    4.9703 H         1 <0>         0.0561
     48 H21         2.0746   -4.4519    5.8456 H         1 <0>         0.0556
     49 H22         1.5326   -3.0009    4.9686 H         1 <0>         0.0631
     50 H23         1.2107   -6.2450    1.8531 H         1 <0>         0.1280
     51 H24         1.2415   -8.7058    1.8345 H         1 <0>         0.1238
     52 H25         3.3697   -6.2365    5.5305 H         1 <0>         0.1255
     53 H26         4.4533   -9.0285    5.5768 H         1 <0>         0.3879
     54 H27         2.5337  -10.4938    1.5215 H         1 <0>         0.0717
     55 H28         4.0793  -10.4828    2.4042 H         1 <0>         0.0687
     56 H29         1.1148  -12.5502    1.5126 H         1 <0>         0.0710
     57 H30         1.6496  -14.0043    2.3890 H         1 <0>         0.0651
     58 H31        -0.1074  -12.7975    3.6559 H         1 <0>         0.0715
     59 H32         1.4382  -12.7865    4.5386 H         1 <0>         0.0650
     60 H33         0.6461  -10.8364    5.8043 H         1 <0>         0.0648
     61 H34         0.2419   -9.3136    4.9760 H         1 <0>         0.0669
     62 H35        -1.7612  -10.3856    3.9825 H         1 <0>         0.0675
     63 H36        -1.3570  -11.9084    4.8108 H         1 <0>         0.0707
     64 H37        -1.5447  -10.7656    7.0034 H         1 <0>         0.0443
     65 H38        -1.9489   -9.2428    6.1751 H         1 <0>         0.0438
     66 H39        -3.9056  -10.4440    6.8341 H         1 <0>         0.3799
     67 H40         3.7960  -13.8103    1.1472 H         1 <0>         0.3786
@<TRIPOS>BOND
     1    1    2 1
     2    1   31 1
     3    1   32 1
     4    1   33 1
     5    2    3 1
     6    2   34 1
     7    2   35 1
     8    3    4 1
     9    3   36 1
    10    3   37 1
    11    4    5 1
    12    4   38 1
    13    4   39 1
    14    5    6 1
    15    5   40 1
    16    5   41 1
    17    6    7 1
    18    6   42 1
    19    6   43 1
    20    7    8 1
    21    7    9 1
    22    7   10 1
    23    8   44 1
    24    8   45 1
    25    8   46 1
    26    9   47 1
    27    9   48 1
    28    9   49 1
    29   10   15 ar
    30   10   11 ar
    31   11   12 ar
    32   11   50 1
    33   12   13 ar
    34   12   51 1
    35   13   14 ar
    36   13   17 1
    37   14   15 ar
    38   14   16 1
    39   15   52 1
    40   16   53 1
    41   17   18 1
    42   17   24 1
    43   17   19 1
    44   19   20 1
    45   19   54 1
    46   19   55 1
    47   20   21 1
    48   20   22 1
    49   20   30 1
    50   22   23 1
    51   22   56 1
    52   22   57 1
    53   23   24 1
    54   23   58 1
    55   23   59 1
    56   24   25 1
    57   24   26 1
    58   26   27 1
    59   26   60 1
    60   26   61 1
    61   27   28 1
    62   27   62 1
    63   27   63 1
    64   28   29 1
    65   28   64 1
    66   28   65 1
    67   29   66 1
    68   30   67 1
