@<TRIPOS>MOLECULE
ZINC00004009
   34    36     0     0     0
SMALL
USER_CHARGES

@<TRIPOS>ATOM
      1 C1         -0.2191    1.3660   -0.2041 C.ar      1 <0>        -0.1551
      2 C2          0.9845    2.0428   -0.2678 C.ar      1 <0>        -0.0369
      3 C3          2.1752    1.3460   -0.1884 C.ar      1 <0>        -0.1692
      4 C4          2.1639   -0.0315   -0.0453 C.ar      1 <0>         0.1336
      5 C5          0.9595   -0.7101    0.0186 C.ar      1 <0>        -0.1850
      6 C6         -0.2328   -0.0110   -0.0606 C.ar      1 <0>         0.1421
      7 F1         -1.4093   -0.6722    0.0021 F         1 <0>        -0.1242
      8 F2          3.3282   -0.7125    0.0314 F         1 <0>        -0.1285
      9 C7          3.4866    2.0853   -0.2580 C.3       1 <0>         0.1698
     10 C8          4.2787    1.8410    1.0280 C.3       1 <0>         0.1010
     11 N1          3.4555    2.2025    2.1846 N.pl3     1 <0>        -0.3778
     12 C9          3.1192    1.4066    3.2145 C.2       1 <0>         0.2611
     13 N2          2.3782    2.1011    4.0392 N.2       1 <0>        -0.5386
     14 C10         2.2203    3.3389    3.5720 C.2       1 <0>         0.2108
     15 N3          2.8659    3.4511    2.4409 N.2       1 <0>        -0.3257
     16 C11         4.2928    1.5819   -1.4570 C.3       1 <0>         0.1440
     17 N4          5.5608    2.3117   -1.5339 N.pl3     1 <0>        -0.3820
     18 C12         6.7951    1.7805   -1.5710 C.2       1 <0>         0.2456
     19 N5          7.6576    2.7620   -1.6389 N.2       1 <0>        -0.5403
     20 C13         7.0146    3.9289   -1.6472 C.2       1 <0>         0.1885
     21 N6          5.7280    3.7050   -1.5898 N.2       1 <0>        -0.2789
     22 O1          3.2373    3.4846   -0.4053 O.3       1 <0>        -0.5172
     23 H1         -1.1491    1.9120   -0.2618 H         1 <0>         0.1491
     24 H2          0.9943    3.1169   -0.3801 H         1 <0>         0.1500
     25 H3          0.9497   -1.7843    0.1298 H         1 <0>         0.1553
     26 H4          4.5523    0.7878    1.0916 H         1 <0>         0.1145
     27 H5          5.1819    2.4512    1.0199 H         1 <0>         0.1039
     28 H6          3.4096    0.3738    3.3390 H         1 <0>         0.2163
     29 H7          1.6543    4.1235    4.0520 H         1 <0>         0.2200
     30 H8          4.4931    0.5170   -1.3389 H         1 <0>         0.1222
     31 H9          3.7235    1.7452   -2.3721 H         1 <0>         0.1082
     32 H10         7.0333    0.7273   -1.5481 H         1 <0>         0.2185
     33 H11         7.4806    4.9019   -1.6976 H         1 <0>         0.2164
     34 H12         2.7294    3.8722    0.3206 H         1 <0>         0.3882
@<TRIPOS>BOND
     1    1    6 ar
     2    1    2 ar
     3    1   23 1
     4    2    3 ar
     5    2   24 1
     6    3    4 ar
     7    3    9 1
     8    4    5 ar
     9    4    8 1
    10    5    6 ar
    11    5   25 1
    12    6    7 1
    13    9   10 1
    14    9   16 1
    15    9   22 1
    16   10   11 1
    17   10   26 1
    18   10   27 1
    19   11   15 1
    20   11   12 1
    21   12   13 2
    22   12   28 1
    23   13   14 1
    24   14   15 2
    25   14   29 1
    26   16   17 1
    27   16   30 1
    28   16   31 1
    29   17   21 1
    30   17   18 1
    31   18   19 2
    32   18   32 1
    33   19   20 1
    34   20   21 2
    35   20   33 1
    36   22   34 1
