@<TRIPOS>MOLECULE
ZINC03786387
   36    39     0     0     0
SMALL
USER_CHARGES
6-[(4-chlorophenyl)-(1,2,4-triazol-1-yl)methyl]-1-methyl-benzotriazole
@<TRIPOS>ATOM
      1 C1          6.7189    3.7099    3.4105 C.3       1 <0>         0.0958
      2 N1          6.2576    2.3767    3.8054 N.pl3     1 <0>        -0.3922
      3 C2          5.4741    1.5244    3.0644 C.ar      1 <0>         0.0853
      4 C3          4.8905    1.5980    1.8041 C.ar      1 <0>        -0.0929
      5 C4          4.1463    0.5508    1.3378 C.ar      1 <0>        -0.0575
      6 C5          3.9621   -0.5862    2.1141 C.ar      1 <0>        -0.1198
      7 C6          4.5285   -0.6855    3.3511 C.ar      1 <0>        -0.0254
      8 C7          5.2962    0.3742    3.8526 C.ar      1 <0>        -0.0076
      9 N2          5.9594    0.5650    5.0104 N.2       1 <0>        -0.2176
     10 N3          6.5286    1.7187    5.0144 N.2       1 <0>         0.0002
     11 C8          3.5150    0.6330   -0.0281 C.3       1 <0>         0.2518
     12 H1          3.6782    1.6269   -0.4447 H         1 <0>         0.1290
     13 C9          4.1380   -0.3992   -0.9323 C.ar      1 <0>        -0.1102
     14 C10         5.3990   -0.8919   -0.6527 C.ar      1 <0>        -0.0776
     15 C11         5.9685   -1.8426   -1.4785 C.ar      1 <0>        -0.1055
     16 C12         5.2810   -2.2930   -2.5915 C.ar      1 <0>        -0.0220
     17 C13         4.0214   -1.7954   -2.8740 C.ar      1 <0>        -0.1045
     18 C14         3.4505   -0.8487   -2.0443 C.ar      1 <0>        -0.0889
     19 Cl1         5.9984   -3.4824   -3.6328 Cl        1 <0>        -0.0589
     20 N4          2.0762    0.3803    0.0829 N.pl3     1 <0>        -0.3757
     21 C15         1.4689   -0.8186    0.1152 C.2       1 <0>         0.2616
     22 N5          0.1803   -0.6182    0.2204 N.2       1 <0>        -0.5386
     23 C16        -0.0721    0.6896    0.2580 C.2       1 <0>         0.2033
     24 N6          1.0574    1.3424    0.1769 N.2       1 <0>        -0.3124
     25 H2          5.9896    4.4554    3.7275 H         1 <0>         0.0856
     26 H3          7.6791    3.9170    3.8832 H         1 <0>         0.1009
     27 H4          6.8313    3.7493    2.3270 H         1 <0>         0.0935
     28 H5          5.0247    2.4803    1.1958 H         1 <0>         0.1380
     29 H6          3.3674   -1.4028    1.7321 H         1 <0>         0.1337
     30 H7          4.3821   -1.5763    3.9440 H         1 <0>         0.1449
     31 H8          5.9373   -0.5370    0.2137 H         1 <0>         0.1381
     32 H9          6.9519   -2.2307   -1.2575 H         1 <0>         0.1404
     33 H10         3.4844   -2.1463   -3.7428 H         1 <0>         0.1401
     34 H11         2.4674   -0.4600   -2.2649 H         1 <0>         0.1322
     35 H12         1.9591   -1.7795    0.0630 H         1 <0>         0.2138
     36 H13        -1.0516    1.1376    0.3378 H         1 <0>         0.2193
@<TRIPOS>BOND
     1    1    2 1
     2    1   25 1
     3    1   26 1
     4    1   27 1
     5    2   10 1
     6    2    3 1
     7    3    8 ar
     8    3    4 ar
     9    4    5 ar
    10    4   28 1
    11    5    6 ar
    12    5   11 1
    13    6    7 ar
    14    6   29 1
    15    7    8 ar
    16    7   30 1
    17    8    9 1
    18    9   10 2
    19   11   12 1
    20   11   13 1
    21   11   20 1
    22   13   18 ar
    23   13   14 ar
    24   14   15 ar
    25   14   31 1
    26   15   16 ar
    27   15   32 1
    28   16   17 ar
    29   16   19 1
    30   17   18 ar
    31   17   33 1
    32   18   34 1
    33   20   24 1
    34   20   21 1
    35   21   22 2
    36   21   35 1
    37   22   23 1
    38   23   24 2
    39   23   36 1
@<TRIPOS>MOLECULE
ZINC03791538
   36    39     0     0     0
SMALL
USER_CHARGES
6-[(4-chlorophenyl)-(1,2,4-triazol-1-yl)methyl]-1-methyl-benzotriazole
@<TRIPOS>ATOM
      1 C1          4.2786   -1.2032   -4.8424 C.3       1 <0>         0.0958
      2 N1          4.4046    0.2346   -4.5914 N.pl3     1 <0>        -0.3922
      3 C2          4.0101    0.9099   -3.4609 C.ar      1 <0>         0.0851
      4 C3          3.4158    0.5256   -2.2636 C.ar      1 <0>        -0.0926
      5 C4          3.1388    1.4650   -1.3105 C.ar      1 <0>        -0.0576
      6 C5          3.4551    2.8010   -1.5220 C.ar      1 <0>        -0.1198
      7 C6          4.0431    3.2028   -2.6855 C.ar      1 <0>        -0.0256
      8 C7          4.3328    2.2602   -3.6812 C.ar      1 <0>        -0.0075
      9 N2          4.8953    2.3525   -4.9026 N.2       1 <0>        -0.2176
     10 N3          4.9516    1.1932   -5.4573 N.2       1 <0>         0.0003
     11 C8          2.4901    1.0470   -0.0161 C.3       1 <0>         0.2517
     12 H1          2.4011   -0.0390    0.0116 H         1 <0>         0.1290
     13 C9          1.1195    1.6659    0.0818 C.ar      1 <0>        -0.1102
     14 C10         0.5244    1.8349    1.3180 C.ar      1 <0>        -0.0890
     15 C11        -0.7350    2.3973    1.4080 C.ar      1 <0>        -0.1045
     16 C12        -1.3954    2.8012    0.2613 C.ar      1 <0>        -0.0220
     17 C13        -0.7991    2.6322   -0.9756 C.ar      1 <0>        -0.1055
     18 C14         0.4581    2.0649   -1.0647 C.ar      1 <0>        -0.0776
     19 Cl1        -2.9747    3.5131    0.3739 Cl        1 <0>        -0.0589
     20 N4          3.3113    1.4986    1.1099 N.pl3     1 <0>        -0.3757
     21 C15         3.2949    2.7147    1.6824 C.2       1 <0>         0.2617
     22 N5          4.1718    2.7182    2.6534 N.2       1 <0>        -0.5387
     23 C16         4.7650    1.5277    2.7309 C.2       1 <0>         0.2033
     24 N6          4.2679    0.7450    1.8096 N.2       1 <0>        -0.3126
     25 H2          5.1748   -1.7136   -4.4897 H         1 <0>         0.0856
     26 H3          3.4080   -1.5897   -4.3125 H         1 <0>         0.0935
     27 H4          4.1592   -1.3762   -5.9120 H         1 <0>         0.1008
     28 H5          3.1702   -0.5115   -2.0893 H         1 <0>         0.1380
     29 H6          3.2334    3.5297   -0.7564 H         1 <0>         0.1338
     30 H7          4.2842    4.2443   -2.8390 H         1 <0>         0.1449
     31 H8          1.0417    1.5233    2.2134 H         1 <0>         0.1322
     32 H9         -1.2018    2.5248    2.3735 H         1 <0>         0.1401
     33 H10        -1.3160    2.9432   -1.8714 H         1 <0>         0.1404
     34 H11         0.9237    1.9330   -2.0302 H         1 <0>         0.1382
     35 H12         2.6670    3.5440    1.3919 H         1 <0>         0.2138
     36 H13         5.5295    1.2526    3.4424 H         1 <0>         0.2193
@<TRIPOS>BOND
     1    1    2 1
     2    1   25 1
     3    1   26 1
     4    1   27 1
     5    2   10 1
     6    2    3 1
     7    3    8 ar
     8    3    4 ar
     9    4    5 ar
    10    4   28 1
    11    5    6 ar
    12    5   11 1
    13    6    7 ar
    14    6   29 1
    15    7    8 ar
    16    7   30 1
    17    8    9 1
    18    9   10 2
    19   11   12 1
    20   11   13 1
    21   11   20 1
    22   13   18 ar
    23   13   14 ar
    24   14   15 ar
    25   14   31 1
    26   15   16 ar
    27   15   32 1
    28   16   17 ar
    29   16   19 1
    30   17   18 ar
    31   17   33 1
    32   18   34 1
    33   20   24 1
    34   20   21 1
    35   21   22 2
    36   21   35 1
    37   22   23 1
    38   23   24 2
    39   23   36 1
@<TRIPOS>MOLECULE
ZINC06321960
   32    34     0     0     0
SMALL
USER_CHARGES
bis(4-chlorophenyl)-isothiazol-5-yl-methanol
@<TRIPOS>ATOM
      1 C1          3.9075    1.7968   -2.0743 C.ar      1 <0>        -0.0877
      2 C2          5.0798    1.7199   -2.8024 C.ar      1 <0>        -0.1047
      3 C3          6.1823    1.0741   -2.2718 C.ar      1 <0>        -0.0262
      4 C4          6.1122    0.5104   -1.0102 C.ar      1 <0>        -0.1012
      5 C5          4.9411    0.5929   -0.2808 C.ar      1 <0>        -0.0965
      6 C6          3.8399    1.2383   -0.8116 C.ar      1 <0>        -0.1180
      7 C7          2.5633    1.3279   -0.0158 C.3       1 <0>         0.3121
      8 C8          2.0888   -0.0600    0.3305 C.ar      1 <0>        -0.1057
      9 C9          2.7649   -0.8048    1.2787 C.ar      1 <0>        -0.0962
     10 C10         2.3269   -2.0756    1.6007 C.ar      1 <0>        -0.1034
     11 C11         1.2182   -2.6064    0.9658 C.ar      1 <0>        -0.0277
     12 C12         0.5453   -1.8626    0.0128 C.ar      1 <0>        -0.1036
     13 C13         0.9810   -0.5898   -0.3043 C.ar      1 <0>        -0.0899
     14 Cl1         0.6713   -4.2049    1.3650 Cl        1 <0>        -0.0617
     15 C14         2.8147    2.1035    1.2516 C.2       1 <0>        -0.1410
     16 C15         1.9557    2.8838    1.9613 C.2       1 <0>        -0.1799
     17 C16         2.4621    3.4860    3.0916 C.2       1 <0>         0.0765
     18 N1          3.7127    3.2680    3.4171 N.2       1 <0>        -0.4245
     19 S1          4.2726    2.2315    2.1793 S.3       1 <0>         0.2338
     20 O1          1.5643    1.9932   -0.7912 O.3       1 <0>        -0.5327
     21 Cl2         7.6530    0.9714   -3.1883 Cl        1 <0>        -0.0614
     22 H1          3.0455    2.2971   -2.4903 H         1 <0>         0.1415
     23 H2          5.1339    2.1601   -3.7872 H         1 <0>         0.1396
     24 H3          6.9726    0.0064   -0.5953 H         1 <0>         0.1405
     25 H4          4.8865    0.1532    0.7042 H         1 <0>         0.1347
     26 H5          3.6330   -0.3920    1.7711 H         1 <0>         0.1319
     27 H6          2.8526   -2.6557    2.3447 H         1 <0>         0.1395
     28 H7         -0.3204   -2.2763   -0.4830 H         1 <0>         0.1397
     29 H8          0.4556   -0.0090   -1.0480 H         1 <0>         0.1379
     30 H9          0.9309    3.0273    1.6520 H         1 <0>         0.1615
     31 H10         1.8385    4.1229    3.7014 H         1 <0>         0.1845
     32 H11         1.3513    1.5486   -1.6231 H         1 <0>         0.3881
@<TRIPOS>BOND
     1    1    6 ar
     2    1    2 ar
     3    1   22 1
     4    2    3 ar
     5    2   23 1
     6    3    4 ar
     7    3   21 1
     8    4    5 ar
     9    4   24 1
    10    5    6 ar
    11    5   25 1
    12    6    7 1
    13    7    8 1
    14    7   15 1
    15    7   20 1
    16    8   13 ar
    17    8    9 ar
    18    9   10 ar
    19    9   26 1
    20   10   11 ar
    21   10   27 1
    22   11   12 ar
    23   11   14 1
    24   12   13 ar
    25   12   28 1
    26   13   29 1
    27   15   19 1
    28   15   16 2
    29   16   17 1
    30   16   30 1
    31   17   18 2
    32   17   31 1
    33   18   19 1
    34   20   32 1
@<TRIPOS>MOLECULE
ZINC04716437
   35    37     0     0     0
SMALL
USER_CHARGES

@<TRIPOS>ATOM
      1 C1         -0.0755    2.0157    0.0789 C.ar      1 <0>        -0.1730
      2 C2          1.2269    2.4918    0.0943 C.ar      1 <0>        -0.0414
      3 C3          2.2640    1.5807   -0.0331 C.ar      1 <0>        -0.1285
      4 C4          1.9675    0.2376   -0.1703 C.ar      1 <0>         0.1077
      5 N1          0.7167   -0.1793   -0.1811 N.ar      1 <0>        -0.4794
      6 C5         -0.2947    0.6587   -0.0619 C.ar      1 <0>         0.1026
      7 C6          3.6964    2.0488   -0.0227 C.3       1 <0>         0.2728
      8 C7          4.5744    0.9665    0.5506 C.ar      1 <0>        -0.1147
      9 C8          5.0162   -0.0649   -0.2569 C.ar      1 <0>        -0.0992
     10 C9          5.8214   -1.0579    0.2684 C.ar      1 <0>        -0.1070
     11 C10         6.1854   -1.0194    1.6027 C.ar      1 <0>        -0.0271
     12 C11         5.7429    0.0131    2.4103 C.ar      1 <0>        -0.1076
     13 C12         4.9423    1.0085    1.8825 C.ar      1 <0>        -0.0855
     14 Cl1         7.1963   -2.2665    2.2633 Cl        1 <0>        -0.0636
     15 C13         4.1343    2.3573   -1.4313 C.ar      1 <0>        -0.1031
     16 C14         3.6869    1.5764   -2.4806 C.ar      1 <0>        -0.0974
     17 C15         4.0881    1.8588   -3.7727 C.ar      1 <0>        -0.1049
     18 C16         4.9378    2.9233   -4.0159 C.ar      1 <0>        -0.0298
     19 C17         5.3853    3.7045   -2.9653 C.ar      1 <0>        -0.1036
     20 C18         4.9788    3.4245   -1.6743 C.ar      1 <0>        -0.0926
     21 Cl2         5.4427    3.2783   -5.6384 Cl        1 <0>        -0.0633
     22 O1          3.8069    3.2265    0.7791 O.3       1 <0>        -0.5381
     23 H1         -0.9078    2.6964    0.1802 H         1 <0>         0.1393
     24 H2          1.4284    3.5473    0.2026 H         1 <0>         0.1421
     25 H3          2.7698   -0.4785   -0.2701 H         1 <0>         0.1557
     26 H4         -1.3060    0.2799   -0.0745 H         1 <0>         0.1592
     27 H5          4.7317   -0.0950   -1.2983 H         1 <0>         0.1361
     28 H6          6.1662   -1.8638   -0.3624 H         1 <0>         0.1382
     29 H7          6.0264    0.0435    3.4520 H         1 <0>         0.1377
     30 H8          4.6008    1.8171    2.5117 H         1 <0>         0.1413
     31 H9          3.0239    0.7452   -2.2907 H         1 <0>         0.1326
     32 H10         3.7388    1.2484   -4.5924 H         1 <0>         0.1379
     33 H11         6.0488    4.5353   -3.1544 H         1 <0>         0.1381
     34 H12         5.3242    4.0371   -0.8546 H         1 <0>         0.1338
     35 H13         4.7037    3.5843    0.8310 H         1 <0>         0.3846
@<TRIPOS>BOND
     1    1    6 ar
     2    1    2 ar
     3    1   23 1
     4    2    3 ar
     5    2   24 1
     6    3    4 ar
     7    3    7 1
     8    4    5 ar
     9    4   25 1
    10    5    6 ar
    11    6   26 1
    12    7    8 1
    13    7   15 1
    14    7   22 1
    15    8   13 ar
    16    8    9 ar
    17    9   10 ar
    18    9   27 1
    19   10   11 ar
    20   10   28 1
    21   11   12 ar
    22   11   14 1
    23   12   13 ar
    24   12   29 1
    25   13   30 1
    26   15   20 ar
    27   15   16 ar
    28   16   17 ar
    29   16   31 1
    30   17   18 ar
    31   17   32 1
    32   18   19 ar
    33   18   21 1
    34   19   20 ar
    35   19   33 1
    36   20   34 1
    37   22   35 1
@<TRIPOS>MOLECULE
ZINC04099030
   34    36     0     0     0
SMALL
USER_CHARGES

@<TRIPOS>ATOM
      1 C1          2.9344    0.0753   -2.5177 C.ar      1 <0>        -0.1084
      2 C2          2.0743    1.1576   -2.5436 C.ar      1 <0>        -0.0988
      3 C3          0.9406    1.1586   -1.7534 C.ar      1 <0>        -0.1063
      4 C4          0.6660    0.0759   -0.9365 C.ar      1 <0>        -0.0146
      5 C5          1.5266   -1.0067   -0.9115 C.ar      1 <0>        -0.0987
      6 C6          2.6607   -1.0063   -1.7020 C.ar      1 <0>        -0.0951
      7 C7          1.2286   -2.1860   -0.0218 C.3       1 <0>         0.2753
      8 C8          0.5801   -3.2770   -0.8343 C.ar      1 <0>        -0.1152
      9 C9          1.2691   -3.8619   -1.8803 C.ar      1 <0>        -0.0942
     10 C10         0.6749   -4.8626   -2.6259 C.ar      1 <0>        -0.1027
     11 C11        -0.6097   -5.2789   -2.3251 C.ar      1 <0>        -0.0272
     12 C12        -1.2988   -4.6932   -1.2781 C.ar      1 <0>        -0.0996
     13 C13        -0.7015   -3.6965   -0.5297 C.ar      1 <0>        -0.0974
     14 Cl1        -1.3570   -6.5354   -3.2615 Cl        1 <0>        -0.0597
     15 C14         2.5122   -2.7008    0.5768 C.ar      1 <0>        -0.1866
     16 C15         3.3797   -1.8460    1.2383 C.ar      1 <0>         0.1844
     17 N1          4.4978   -2.3340    1.7512 N.ar      1 <0>        -0.5170
     18 C16         4.7898   -3.6143    1.6387 C.ar      1 <0>         0.3000
     19 N2          3.9891   -4.4563    1.0167 N.ar      1 <0>        -0.5160
     20 C17         2.8509   -4.0416    0.4839 C.ar      1 <0>         0.1639
     21 O1          0.3436   -1.7815    1.0248 O.3       1 <0>        -0.5425
     22 Cl2        -0.7577    0.0767    0.0568 Cl        1 <0>        -0.0501
     23 H1          3.8181    0.0733   -3.1385 H         1 <0>         0.1338
     24 H2          2.2887    2.0025   -3.1811 H         1 <0>         0.1370
     25 H3          0.2692    2.0043   -1.7731 H         1 <0>         0.1388
     26 H4          3.3329   -1.8514   -1.6822 H         1 <0>         0.1270
     27 H5          2.2718   -3.5366   -2.1152 H         1 <0>         0.1335
     28 H6          1.2132   -5.3192   -3.4433 H         1 <0>         0.1406
     29 H7         -2.3018   -5.0176   -1.0431 H         1 <0>         0.1410
     30 H8         -1.2375   -3.2425    0.2906 H         1 <0>         0.1350
     31 H9          3.1466   -0.7958    1.3337 H         1 <0>         0.1680
     32 H10         5.7099   -3.9832    2.0673 H         1 <0>         0.2007
     33 H11         2.1969   -4.7377   -0.0201 H         1 <0>         0.1700
     34 H12        -0.5879   -1.7608    0.7661 H         1 <0>         0.3809
@<TRIPOS>BOND
     1    1    6 ar
     2    1    2 ar
     3    1   23 1
     4    2    3 ar
     5    2   24 1
     6    3    4 ar
     7    3   25 1
     8    4    5 ar
     9    4   22 1
    10    5    6 ar
    11    5    7 1
    12    6   26 1
    13    7    8 1
    14    7   15 1
    15    7   21 1
    16    8   13 ar
    17    8    9 ar
    18    9   10 ar
    19    9   27 1
    20   10   11 ar
    21   10   28 1
    22   11   12 ar
    23   11   14 1
    24   12   13 ar
    25   12   29 1
    26   13   30 1
    27   15   20 ar
    28   15   16 ar
    29   16   17 ar
    30   16   31 1
    31   17   18 ar
    32   18   19 ar
    33   18   32 1
    34   19   20 ar
    35   20   33 1
    36   21   34 1
@<TRIPOS>MOLECULE
ZINC04099031
   34    36     0     0     0
SMALL
USER_CHARGES

@<TRIPOS>ATOM
      1 C1          2.7097   -5.4365   -1.2440 C.ar      1 <0>        -0.1154
      2 C2          1.6021   -6.0565   -1.7922 C.ar      1 <0>        -0.0951
      3 C3          0.3735   -5.4243   -1.7681 C.ar      1 <0>        -0.1142
      4 C4          0.2518   -4.1709   -1.1947 C.ar      1 <0>        -0.0096
      5 C5          1.3602   -3.5513   -0.6460 C.ar      1 <0>        -0.1193
      6 C6          2.5888   -4.1844   -0.6712 C.ar      1 <0>        -0.1032
      7 C7          1.2286   -2.1860   -0.0218 C.3       1 <0>         0.2801
      8 C8          2.5973   -1.5811    0.1566 C.ar      1 <0>        -0.1080
      9 C9          2.9795   -0.4979   -0.6126 C.ar      1 <0>        -0.0927
     10 C10         4.2347    0.0573   -0.4495 C.ar      1 <0>        -0.1022
     11 C11         5.1086   -0.4713    0.4838 C.ar      1 <0>        -0.0288
     12 C12         4.7255   -1.5554    1.2533 C.ar      1 <0>        -0.1055
     13 C13         3.4680   -2.1061    1.0932 C.ar      1 <0>        -0.0999
     14 Cl1         6.6855    0.2251    0.6889 Cl        1 <0>        -0.0616
     15 C14         0.5554   -2.3102    1.3208 C.ar      1 <0>        -0.1761
     16 C15         0.8489   -3.3682    2.1666 C.ar      1 <0>         0.1597
     17 N1          0.2380   -3.4444    3.3380 N.ar      1 <0>        -0.5142
     18 C16        -0.6390   -2.5307    3.7029 C.ar      1 <0>         0.2958
     19 N2         -0.9428   -1.5112    2.9249 N.ar      1 <0>        -0.5168
     20 C17        -0.3678   -1.3661    1.7419 C.ar      1 <0>         0.1844
     21 O1          0.4442   -1.3471   -0.8721 O.3       1 <0>        -0.5293
     22 Cl2        -1.2912   -3.3759   -1.1645 Cl        1 <0>        -0.0448
     23 H1          3.6689   -5.9326   -1.2594 H         1 <0>         0.1331
     24 H2          1.6972   -7.0348   -2.2397 H         1 <0>         0.1352
     25 H3         -0.4915   -5.9084   -2.1969 H         1 <0>         0.1364
     26 H4          3.4543   -3.7006   -0.2432 H         1 <0>         0.1406
     27 H5          2.2974   -0.0856   -1.3413 H         1 <0>         0.1390
     28 H6          4.5334    0.9033   -1.0507 H         1 <0>         0.1395
     29 H7          5.4074   -1.9686    1.9818 H         1 <0>         0.1391
     30 H8          3.1670   -2.9494    1.6972 H         1 <0>         0.1326
     31 H9          1.5662   -4.1205    1.8735 H         1 <0>         0.1625
     32 H10        -1.1216   -2.6200    4.6649 H         1 <0>         0.1991
     33 H11        -0.6176   -0.5257    1.1113 H         1 <0>         0.1749
     34 H12         0.8754   -1.1206   -1.7074 H         1 <0>         0.3847
@<TRIPOS>BOND
     1    1    6 ar
     2    1    2 ar
     3    1   23 1
     4    2    3 ar
     5    2   24 1
     6    3    4 ar
     7    3   25 1
     8    4    5 ar
     9    4   22 1
    10    5    6 ar
    11    5    7 1
    12    6   26 1
    13    7    8 1
    14    7   15 1
    15    7   21 1
    16    8   13 ar
    17    8    9 ar
    18    9   10 ar
    19    9   27 1
    20   10   11 ar
    21   10   28 1
    22   11   12 ar
    23   11   14 1
    24   12   13 ar
    25   12   29 1
    26   13   30 1
    27   15   20 ar
    28   15   16 ar
    29   16   17 ar
    30   16   31 1
    31   17   18 ar
    32   18   19 ar
    33   18   32 1
    34   19   20 ar
    35   20   33 1
    36   21   34 1
@<TRIPOS>MOLECULE
ZINC05882972
   33    35     0     0     0
SMALL
USER_CHARGES
5-[bis(4-chlorophenyl)methyl]pyrimidine
@<TRIPOS>ATOM
      1 C1          1.8862   -1.4579   -2.3457 C.ar      1 <0>        -0.0981
      2 C2          2.5778   -1.6360   -3.5290 C.ar      1 <0>        -0.1058
      3 C3          3.4120   -2.7287   -3.6847 C.ar      1 <0>        -0.0317
      4 C4          3.5578   -3.6395   -2.6536 C.ar      1 <0>        -0.1060
      5 C5          2.8700   -3.4573   -1.4686 C.ar      1 <0>        -0.0921
      6 C6          2.0366   -2.3653   -1.3136 C.ar      1 <0>        -0.0791
      7 C7          1.2870   -2.1672   -0.0214 C.3       1 <0>         0.0447
      8 C8          2.0938   -2.7326    1.1190 C.ar      1 <0>        -0.0770
      9 C9          3.4114   -2.3505    1.2894 C.ar      1 <0>        -0.0970
     10 C10         4.1502   -2.8643    2.3384 C.ar      1 <0>        -0.1056
     11 C11         3.5741   -3.7699    3.2115 C.ar      1 <0>        -0.0319
     12 C12         2.2571   -4.1562    3.0372 C.ar      1 <0>        -0.1064
     13 C13         1.5177   -3.6373    1.9911 C.ar      1 <0>        -0.0966
     14 Cl1         4.5033   -4.4207    4.5256 Cl        1 <0>        -0.0651
     15 C14         1.0585   -0.6952    0.2063 C.ar      1 <0>        -0.1844
     16 C15        -0.2146   -0.2038    0.4489 C.ar      1 <0>         0.1569
     17 N1         -0.3768    1.0949    0.6446 N.ar      1 <0>        -0.5147
     18 C16         0.6531    1.9166    0.6110 C.ar      1 <0>         0.2940
     19 N2          1.8774    1.4853    0.3831 N.ar      1 <0>        -0.5143
     20 C17         2.1163    0.1999    0.1785 C.ar      1 <0>         0.1615
     21 Cl2         4.2760   -2.9565   -5.1732 Cl        1 <0>        -0.0657
     22 H1          1.2316   -0.6073   -2.2256 H         1 <0>         0.1262
     23 H2          2.4636   -0.9246   -4.3337 H         1 <0>         0.1350
     24 H3          4.2091   -4.4925   -2.7744 H         1 <0>         0.1361
     25 H4          2.9840   -4.1680   -0.6635 H         1 <0>         0.1348
     26 H5          0.3267   -2.6798   -0.0762 H         1 <0>         0.1114
     27 H6          3.8623   -1.6470    0.6051 H         1 <0>         0.1304
     28 H7          5.1782   -2.5624    2.4740 H         1 <0>         0.1363
     29 H8          1.8068   -4.8628    3.7187 H         1 <0>         0.1368
     30 H9          0.4895   -3.9386    1.8552 H         1 <0>         0.1358
     31 H10        -1.0627   -0.8718    0.4781 H         1 <0>         0.1695
     32 H11         0.4893    2.9715    0.7745 H         1 <0>         0.1985
     33 H12         3.1221   -0.1470   -0.0073 H         1 <0>         0.1638
@<TRIPOS>BOND
     1    1    6 ar
     2    1    2 ar
     3    1   22 1
     4    2    3 ar
     5    2   23 1
     6    3    4 ar
     7    3   21 1
     8    4    5 ar
     9    4   24 1
    10    5    6 ar
    11    5   25 1
    12    6    7 1
    13    7    8 1
    14    7   15 1
    15    7   26 1
    16    8   13 ar
    17    8    9 ar
    18    9   10 ar
    19    9   27 1
    20   10   11 ar
    21   10   28 1
    22   11   12 ar
    23   11   14 1
    24   12   13 ar
    25   12   29 1
    26   13   30 1
    27   15   20 ar
    28   15   16 ar
    29   16   17 ar
    30   16   31 1
    31   17   18 ar
    32   18   19 ar
    33   18   32 1
    34   19   20 ar
    35   20   33 1
@<TRIPOS>MOLECULE
ZINC04716448
   35    37     0     0     0
SMALL
USER_CHARGES
bis(4-chlorophenyl)-(4-pyridyl)methanol
@<TRIPOS>ATOM
      1 C1          0.6458   -0.5791    1.1256 C.ar      1 <0>        -0.0975
      2 C2          0.3482   -1.3128    2.2585 C.ar      1 <0>        -0.1086
      3 C3          0.3499   -0.7004    3.4991 C.ar      1 <0>        -0.0271
      4 C4          0.6549    0.6449    3.6055 C.ar      1 <0>        -0.1077
      5 C5          0.9578    1.3762    2.4725 C.ar      1 <0>        -0.0858
      6 C6          0.9560    0.7638    1.2331 C.ar      1 <0>        -0.1130
      7 C7          1.2864    1.5618   -0.0018 C.3       1 <0>         0.2662
      8 C8          0.4096    1.1100   -1.1413 C.ar      1 <0>        -0.1038
      9 C9          0.7457   -0.0181   -1.8663 C.ar      1 <0>        -0.0978
     10 C10        -0.0611   -0.4361   -2.9079 C.ar      1 <0>        -0.1052
     11 C11        -1.1990    0.2810   -3.2320 C.ar      1 <0>        -0.0292
     12 C12        -1.5317    1.4131   -2.5096 C.ar      1 <0>        -0.1036
     13 C13        -0.7272    1.8269   -1.4646 C.ar      1 <0>        -0.0920
     14 Cl1        -2.2092   -0.2398   -4.5442 Cl        1 <0>        -0.0627
     15 C14         2.7330    1.3481   -0.3659 C.ar      1 <0>        -0.0287
     16 C15         3.3721    0.1552   -0.0644 C.ar      1 <0>        -0.1669
     17 C16         4.6985   -0.0062   -0.4174 C.ar      1 <0>         0.1008
     18 N1          5.3573    0.9612   -1.0249 N.ar      1 <0>        -0.4790
     19 C17         4.7832    2.1103   -1.3229 C.ar      1 <0>         0.0994
     20 C18         3.4583    2.3420   -1.0051 C.ar      1 <0>        -0.1397
     21 O1          1.0591    2.9494    0.2528 O.3       1 <0>        -0.5366
     22 Cl2        -0.0301   -1.6198    4.9218 Cl        1 <0>        -0.0634
     23 H1          0.6402   -1.0560    0.1566 H         1 <0>         0.1361
     24 H2          0.1102   -2.3629    2.1748 H         1 <0>         0.1377
     25 H3          0.6567    1.1234    4.5737 H         1 <0>         0.1378
     26 H4          1.1963    2.4263    2.5554 H         1 <0>         0.1414
     27 H5          1.6363   -0.5753   -1.6161 H         1 <0>         0.1343
     28 H6          0.1992   -1.3199   -3.4714 H         1 <0>         0.1381
     29 H7         -2.4200    1.9731   -2.7619 H         1 <0>         0.1385
     30 H8         -0.9870    2.7104   -0.9004 H         1 <0>         0.1342
     31 H9          2.8391   -0.6391    0.4371 H         1 <0>         0.1377
     32 H10         5.2025   -0.9337   -0.1891 H         1 <0>         0.1591
     33 H11         5.3550    2.8794   -1.8209 H         1 <0>         0.1593
     34 H12         2.9938    3.2855   -1.2512 H         1 <0>         0.1425
     35 H13         0.1468    3.1609    0.4935 H         1 <0>         0.3853
@<TRIPOS>BOND
     1    1    6 ar
     2    1    2 ar
     3    1   23 1
     4    2    3 ar
     5    2   24 1
     6    3    4 ar
     7    3   22 1
     8    4    5 ar
     9    4   25 1
    10    5    6 ar
    11    5   26 1
    12    6    7 1
    13    7    8 1
    14    7   15 1
    15    7   21 1
    16    8   13 ar
    17    8    9 ar
    18    9   10 ar
    19    9   27 1
    20   10   11 ar
    21   10   28 1
    22   11   12 ar
    23   11   14 1
    24   12   13 ar
    25   12   29 1
    26   13   30 1
    27   15   20 ar
    28   15   16 ar
    29   16   17 ar
    30   16   31 1
    31   17   18 ar
    32   17   32 1
    33   18   19 ar
    34   19   20 ar
    35   19   33 1
    36   20   34 1
    37   21   35 1
@<TRIPOS>MOLECULE
ZINC04984210
   32    34     0     0     0
SMALL
USER_CHARGES
1-benzhydrylimidazole
@<TRIPOS>ATOM
      1 C1          3.7487    3.5595   -3.5329 C.ar      1 <0>        -0.1102
      2 C2          4.5749    3.5100   -2.4257 C.ar      1 <0>        -0.1182
      3 C3          4.1649    2.8427   -1.2867 C.ar      1 <0>        -0.0955
      4 C4          2.9286    2.2250   -1.2548 C.ar      1 <0>        -0.1093
      5 C5          2.1046    2.2700   -2.3638 C.ar      1 <0>        -0.1014
      6 C6          2.5125    2.9418   -3.5010 C.ar      1 <0>        -0.1167
      7 C7          2.4818    1.4971   -0.0131 C.3       1 <0>         0.2244
      8 C8          2.9612    2.2423    1.2059 C.ar      1 <0>        -0.1065
      9 C9          2.6799    3.5882    1.3482 C.ar      1 <0>        -0.0943
     10 C10         3.1155    4.2706    2.4687 C.ar      1 <0>        -0.1171
     11 C11         3.8413    3.6095    3.4418 C.ar      1 <0>        -0.1072
     12 C12         4.1271    2.2648    3.2970 C.ar      1 <0>        -0.1183
     13 C13         3.6870    1.5812    2.1790 C.ar      1 <0>        -0.1001
     14 N1          1.0190    1.4180    0.0067 N.pl3     1 <0>        -0.4502
     15 C14         0.2677    0.2740    0.0247 C.2       1 <0>        -0.0565
     16 C15        -1.0236    0.6560    0.0337 C.2       1 <0>        -0.0276
     17 N2         -1.0597    1.9968    0.0302 N.2       1 <0>        -0.4925
     18 C16         0.1602    2.4601    0.0108 C.2       1 <0>         0.1904
     19 H1          4.0693    4.0805   -4.4230 H         1 <0>         0.1252
     20 H2          5.5409    3.9923   -2.4507 H         1 <0>         0.1262
     21 H3          4.8105    2.8037   -0.4217 H         1 <0>         0.1252
     22 H4          1.1407    1.7836   -2.3404 H         1 <0>         0.1224
     23 H5          1.8672    2.9801   -4.3662 H         1 <0>         0.1253
     24 H6          2.9001    0.4906   -0.0116 H         1 <0>         0.1165
     25 H7          2.1166    4.1058    0.5858 H         1 <0>         0.1211
     26 H8          2.8925    5.3213    2.5817 H         1 <0>         0.1270
     27 H9          4.1854    4.1437    4.3151 H         1 <0>         0.1260
     28 H10         4.6944    1.7484    4.0571 H         1 <0>         0.1270
     29 H11         3.9105    0.5307    2.0657 H         1 <0>         0.1246
     30 H12         0.6390   -0.7402    0.0266 H         1 <0>         0.1739
     31 H13        -1.8801   -0.0019    0.0445 H         1 <0>         0.1699
     32 H14         0.4369    3.5040    0.0001 H         1 <0>         0.1964
@<TRIPOS>BOND
     1    1    6 ar
     2    1    2 ar
     3    1   19 1
     4    2    3 ar
     5    2   20 1
     6    3    4 ar
     7    3   21 1
     8    4    5 ar
     9    4    7 1
    10    5    6 ar
    11    5   22 1
    12    6   23 1
    13    7    8 1
    14    7   14 1
    15    7   24 1
    16    8   13 ar
    17    8    9 ar
    18    9   10 ar
    19    9   25 1
    20   10   11 ar
    21   10   26 1
    22   11   12 ar
    23   11   27 1
    24   12   13 ar
    25   12   28 1
    26   13   29 1
    27   14   18 1
    28   14   15 1
    29   15   16 2
    30   15   30 1
    31   16   17 1
    32   16   31 1
    33   17   18 2
    34   18   32 1
@<TRIPOS>MOLECULE
ZINC06321961
   31    33     0     0     0
SMALL
USER_CHARGES
1-[bis(4-chlorophenyl)methyl]-1,2,4-triazole
@<TRIPOS>ATOM
      1 C1          3.6998    1.6878   -2.3550 C.ar      1 <0>        -0.0847
      2 C2          4.1237    1.5842   -3.6664 C.ar      1 <0>        -0.1071
      3 C3          4.8086    0.4573   -4.0847 C.ar      1 <0>        -0.0233
      4 C4          5.0738   -0.5628   -3.1885 C.ar      1 <0>        -0.1076
      5 C5          4.6543   -0.4556   -1.8759 C.ar      1 <0>        -0.0823
      6 C6          3.9700    0.6707   -1.4585 C.ar      1 <0>        -0.1064
      7 C7          3.5129    0.7870   -0.0273 C.3       1 <0>         0.2504
      8 C8          4.2459    1.9200    0.6436 C.ar      1 <0>        -0.1099
      9 C9          5.4630    2.3465    0.1457 C.ar      1 <0>        -0.0783
     10 C10         6.1330    3.3893    0.7572 C.ar      1 <0>        -0.1059
     11 C11         5.5909    3.9988    1.8746 C.ar      1 <0>        -0.0227
     12 C12         4.3755    3.5679    2.3759 C.ar      1 <0>        -0.1048
     13 C13         3.7037    2.5287    1.7601 C.ar      1 <0>        -0.0902
     14 Cl1         6.4350    5.3044    2.6472 Cl        1 <0>        -0.0593
     15 N1          2.0721    1.0503    0.0054 N.pl3     1 <0>        -0.3746
     16 C14         1.4685    2.2453   -0.1162 C.2       1 <0>         0.2590
     17 N2          0.1763    2.0576   -0.0341 N.2       1 <0>        -0.5394
     18 C15        -0.0821    0.7620    0.1393 C.2       1 <0>         0.2019
     19 N3          1.0471    0.1044    0.1700 N.2       1 <0>        -0.3117
     20 Cl2         5.3357    0.3235   -5.7334 Cl        1 <0>        -0.0603
     21 H1          3.1612    2.5655   -2.0294 H         1 <0>         0.1288
     22 H2          3.9164    2.3808   -4.3656 H         1 <0>         0.1389
     23 H3          5.6087   -1.4426   -3.5144 H         1 <0>         0.1403
     24 H4          4.8616   -1.2517   -1.1762 H         1 <0>         0.1387
     25 H5          3.7241   -0.1442    0.4984 H         1 <0>         0.1282
     26 H6          5.8882    1.8676   -0.7239 H         1 <0>         0.1388
     27 H7          7.0818    3.7252    0.3655 H         1 <0>         0.1405
     28 H8          3.9516    4.0436    3.2479 H         1 <0>         0.1399
     29 H9          2.7547    2.1924    2.1511 H         1 <0>         0.1315
     30 H10         1.9637    3.1945   -0.2575 H         1 <0>         0.2121
     31 H11        -1.0652    0.3260    0.2388 H         1 <0>         0.2194
@<TRIPOS>BOND
     1    1    6 ar
     2    1    2 ar
     3    1   21 1
     4    2    3 ar
     5    2   22 1
     6    3    4 ar
     7    3   20 1
     8    4    5 ar
     9    4   23 1
    10    5    6 ar
    11    5   24 1
    12    6    7 1
    13    7    8 1
    14    7   15 1
    15    7   25 1
    16    8   13 ar
    17    8    9 ar
    18    9   10 ar
    19    9   26 1
    20   10   11 ar
    21   10   27 1
    22   11   12 ar
    23   11   14 1
    24   12   13 ar
    25   12   28 1
    26   13   29 1
    27   15   19 1
    28   15   16 1
    29   16   17 2
    30   16   30 1
    31   17   18 1
    32   18   19 2
    33   18   31 1
@<TRIPOS>MOLECULE
ZINC19366603
   40    42     0     0     0
SMALL
USER_CHARGES
1-[bis(4-chlorophenyl)methyl]piperazine
@<TRIPOS>ATOM
      1 C1          3.7075    3.1331   -0.7728 C.ar      1 <0>        -0.0828
      2 C2          5.0511    3.4549   -0.8137 C.ar      1 <0>        -0.1118
      3 C3          5.5400    4.4833   -0.0279 C.ar      1 <0>        -0.0258
      4 C4          4.6826    5.1927    0.7941 C.ar      1 <0>        -0.1065
      5 C5          3.3383    4.8737    0.8299 C.ar      1 <0>        -0.0955
      6 C6          2.8503    3.8461    0.0445 C.ar      1 <0>        -0.0926
      7 C7          1.3844    3.4988    0.0839 C.3       1 <0>         0.1800
      8 C8          0.7097    4.0262   -1.1561 C.ar      1 <0>        -0.0925
      9 C9          0.8831    3.3792   -2.3654 C.ar      1 <0>        -0.0814
     10 C10         0.2600    3.8592   -3.5019 C.ar      1 <0>        -0.1123
     11 C11        -0.5283    4.9939   -3.4313 C.ar      1 <0>        -0.0255
     12 C12        -0.6969    5.6443   -2.2219 C.ar      1 <0>        -0.1069
     13 C13        -0.0779    5.1601   -1.0850 C.ar      1 <0>        -0.0954
     14 Cl1        -1.3060    5.6012   -4.8597 Cl        1 <0>        -0.0557
     15 N1          1.2284    2.0393    0.1431 N.3       1 <0>        -0.5336
     16 C14         1.9301    1.4814    1.3076 C.3       1 <0>         0.0193
     17 C15         1.8106   -0.0443    1.2892 C.3       1 <0>         0.0039
     18 N2          0.3904   -0.4220    1.3031 N.4       1 <0>        -0.5384
     19 C16        -0.3113    0.1359    0.1386 C.3       1 <0>         0.0020
     20 C17        -0.1918    1.6616    0.1570 C.3       1 <0>         0.0200
     21 Cl2         7.2286    4.8837   -0.0737 Cl        1 <0>        -0.0555
     22 H1          3.3265    2.3275   -1.3829 H         1 <0>         0.1367
     23 H2          5.7199    2.9007   -1.4555 H         1 <0>         0.1371
     24 H3          5.0637    5.9958    1.4075 H         1 <0>         0.1386
     25 H4          2.6688    5.4277    1.4713 H         1 <0>         0.1318
     26 H5          0.9170    3.9292    0.9818 H         1 <0>         0.0714
     27 H6          1.5021    2.4959   -2.4212 H         1 <0>         0.1365
     28 H7          0.3920    3.3510   -4.4457 H         1 <0>         0.1370
     29 H8         -1.3125    6.5300   -2.1661 H         1 <0>         0.1385
     30 H9         -0.2097    5.6675   -0.1407 H         1 <0>         0.1317
     31 H10         2.9915    1.7675    1.2678 H         1 <0>         0.1255
     32 H11         1.4788    1.8744    2.2306 H         1 <0>         0.0624
     33 H12         2.2870   -0.4384    0.3794 H         1 <0>         0.1364
     34 H13         2.3108   -0.4620    2.1754 H         1 <0>         0.1377
     35 H14         0.3023   -1.5182    1.2776 H         1 <0>         0.4570
     36 H15         0.1401   -0.2571   -0.7844 H         1 <0>         0.1362
     37 H16        -1.3727   -0.1502    0.1783 H         1 <0>         0.1379
     38 H17        -0.6674    2.0567    1.0668 H         1 <0>         0.0624
     39 H18        -0.6913    2.0802   -0.7292 H         1 <0>         0.1250
     40 H19        -0.0824   -0.0374    2.2188 H         1 <0>         0.4475
@<TRIPOS>BOND
     1    1    6 ar
     2    1    2 ar
     3    1   22 1
     4    2    3 ar
     5    2   23 1
     6    3    4 ar
     7    3   21 1
     8    4    5 ar
     9    4   24 1
    10    5    6 ar
    11    5   25 1
    12    6    7 1
    13    7    8 1
    14    7   15 1
    15    7   26 1
    16    8   13 ar
    17    8    9 ar
    18    9   10 ar
    19    9   27 1
    20   10   11 ar
    21   10   28 1
    22   11   12 ar
    23   11   14 1
    24   12   13 ar
    25   12   29 1
    26   13   30 1
    27   15   20 1
    28   15   16 1
    29   16   17 1
    30   16   31 1
    31   16   32 1
    32   17   18 1
    33   17   33 1
    34   17   34 1
    35   18   19 1
    36   18   35 1
    37   18   40 1
    38   19   20 1
    39   19   36 1
    40   19   37 1
    41   20   38 1
    42   20   39 1
@<TRIPOS>MOLECULE
ZINC01530855
   33    34     0     0     0
SMALL
USER_CHARGES

@<TRIPOS>ATOM
      1 C1          0.7065   -0.4906    1.2416 C.3       1 <0>        -0.1510
      2 C2         -0.0063    0.0218   -0.0115 C.3       1 <0>        -0.1103
      3 C3          0.7857   -0.3913   -1.2537 C.3       1 <0>        -0.0239
      4 C4          0.8014   -1.9195   -1.3662 C.3       1 <0>        -0.1228
      5 C5         -0.6343   -2.4072   -1.5886 C.3       1 <0>        -0.1455
      6 C6         -1.2085   -1.7182   -2.7983 C.2       1 <0>         0.5238
      7 O1         -2.0536   -2.2831   -3.4588 O.2       1 <0>        -0.5024
      8 N1         -0.8032   -0.4913   -3.1589 N.am      1 <0>        -0.6755
      9 C7          0.1344    0.1880   -2.4816 C.2       1 <0>         0.5304
     10 O2          0.4637    1.2898   -2.8654 O.2       1 <0>        -0.4858
     11 C8          2.1986    0.1213   -1.1437 C.ar      1 <0>        -0.1351
     12 C9          3.2620   -0.7510   -1.2867 C.ar      1 <0>        -0.0634
     13 C10         4.5581   -0.2845   -1.1864 C.ar      1 <0>        -0.2014
     14 C11         4.7927    1.0626   -0.9417 C.ar      1 <0>         0.2224
     15 C12         3.7221    1.9361   -0.7986 C.ar      1 <0>        -0.2000
     16 C13         2.4287    1.4639   -0.9056 C.ar      1 <0>        -0.0326
     17 N2          6.1022    1.5376   -0.8393 N.pl3     1 <0>        -0.8781
     18 H1          0.6986   -1.5806    1.2439 H         1 <0>         0.0596
     19 H2          1.7367   -0.1347    1.2447 H         1 <0>         0.0661
     20 H3          0.1919   -0.1217    2.1288 H         1 <0>         0.0602
     21 H4         -1.0077   -0.4057   -0.0604 H         1 <0>         0.0707
     22 H5         -0.0768    1.1088    0.0295 H         1 <0>         0.0753
     23 H6          1.4241   -2.2181   -2.2095 H         1 <0>         0.0834
     24 H7          1.1957   -2.3503   -0.4459 H         1 <0>         0.1036
     25 H8         -0.6319   -3.4851   -1.7503 H         1 <0>         0.1176
     26 H9         -1.2391   -2.1705   -0.7133 H         1 <0>         0.1153
     27 H10        -1.2040   -0.0792   -3.9403 H         1 <0>         0.4123
     28 H11         3.0789   -1.7983   -1.4766 H         1 <0>         0.1258
     29 H12         5.3882   -0.9664   -1.2978 H         1 <0>         0.1206
     30 H13         3.9011    2.9839   -0.6079 H         1 <0>         0.1204
     31 H14         1.5960    2.1433   -0.7988 H         1 <0>         0.1228
     32 H15         6.8490    0.9266   -0.9391 H         1 <0>         0.3985
     33 H16         6.2648    2.4785   -0.6683 H         1 <0>         0.3988
@<TRIPOS>BOND
     1    1    2 1
     2    1   18 1
     3    1   19 1
     4    1   20 1
     5    2    3 1
     6    2   21 1
     7    2   22 1
     8    3    9 1
     9    3    4 1
    10    3   11 1
    11    4    5 1
    12    4   23 1
    13    4   24 1
    14    5    6 1
    15    5   25 1
    16    5   26 1
    17    6    7 2
    18    6    8 am
    19    8    9 am
    20    8   27 1
    21    9   10 2
    22   11   16 ar
    23   11   12 ar
    24   12   13 ar
    25   12   28 1
    26   13   14 ar
    27   13   29 1
    28   14   15 ar
    29   14   17 1
    30   15   16 ar
    31   15   30 1
    32   16   31 1
    33   17   32 1
    34   17   33 1
@<TRIPOS>MOLECULE
ZINC01530856
   33    34     0     0     0
SMALL
USER_CHARGES

@<TRIPOS>ATOM
      1 C1         -1.3428    0.0161    0.0193 C.3       1 <0>        -0.1510
      2 C2          0.1775    0.1857   -0.0097 C.3       1 <0>        -0.1101
      3 C3          0.7556   -0.5974   -1.1901 C.3       1 <0>        -0.0238
      4 C4          0.4515   -2.0889   -1.0132 C.3       1 <0>        -0.1233
      5 C5          1.1825   -2.5911    0.2365 C.3       1 <0>        -0.1455
      6 C6          2.6512   -2.2853    0.1064 C.2       1 <0>         0.5239
      7 O1          3.4589   -3.0053    0.6529 O.2       1 <0>        -0.5024
      8 N1          3.0831   -1.2319   -0.6029 N.am      1 <0>        -0.6755
      9 C7          2.2476   -0.4000   -1.2426 C.2       1 <0>         0.5306
     10 O2          2.7023    0.5287   -1.8753 O.2       1 <0>        -0.4858
     11 C8          0.1369   -0.1046   -2.4728 C.ar      1 <0>        -0.1355
     12 C9         -0.4869   -0.9971   -3.3252 C.ar      1 <0>        -0.0632
     13 C10        -1.0549   -0.5488   -4.5016 C.ar      1 <0>        -0.2015
     14 C11        -0.9991    0.8002   -4.8280 C.ar      1 <0>         0.2223
     15 C12        -0.3717    1.6940   -3.9695 C.ar      1 <0>        -0.1999
     16 C13         0.1894    1.2399   -2.7920 C.ar      1 <0>        -0.0327
     17 N2         -1.5721    1.2569   -6.0171 N.pl3     1 <0>        -0.8781
     18 H1         -1.7663    0.3745   -0.9189 H         1 <0>         0.0652
     19 H2         -1.5884   -1.0378    0.1498 H         1 <0>         0.0604
     20 H3         -1.7568    0.5909    0.8478 H         1 <0>         0.0604
     21 H4          0.4232    1.2420   -0.1192 H         1 <0>         0.0758
     22 H5          0.6030   -0.1918    0.9201 H         1 <0>         0.0701
     23 H6         -0.6222   -2.2316   -0.8913 H         1 <0>         0.1041
     24 H7          0.7997   -2.6396   -1.8870 H         1 <0>         0.0834
     25 H8          0.7828   -2.0902    1.1182 H         1 <0>         0.1152
     26 H9          1.0417   -3.6677    0.3329 H         1 <0>         0.1176
     27 H10         4.0372   -1.0651   -0.6554 H         1 <0>         0.4123
     28 H11        -0.5297   -2.0458   -3.0710 H         1 <0>         0.1258
     29 H12        -1.5417   -1.2464   -5.1670 H         1 <0>         0.1206
     30 H13        -0.3262    2.7434   -4.2205 H         1 <0>         0.1204
     31 H14         0.6735    1.9349   -2.1219 H         1 <0>         0.1231
     32 H15        -2.0097    0.6318   -6.6160 H         1 <0>         0.3985
     33 H16        -1.5325    2.1992   -6.2440 H         1 <0>         0.3988
@<TRIPOS>BOND
     1    1    2 1
     2    1   18 1
     3    1   19 1
     4    1   20 1
     5    2    3 1
     6    2   21 1
     7    2   22 1
     8    3    9 1
     9    3    4 1
    10    3   11 1
    11    4    5 1
    12    4   23 1
    13    4   24 1
    14    5    6 1
    15    5   25 1
    16    5   26 1
    17    6    7 2
    18    6    8 am
    19    8    9 am
    20    8   27 1
    21    9   10 2
    22   11   16 ar
    23   11   12 ar
    24   12   13 ar
    25   12   28 1
    26   13   14 ar
    27   13   29 1
    28   14   15 ar
    29   14   17 1
    30   15   16 ar
    31   15   30 1
    32   16   31 1
    33   17   32 1
    34   17   33 1
@<TRIPOS>MOLECULE
ZINC00607971
   40    42     0     0     0
SMALL
USER_CHARGES

@<TRIPOS>ATOM
      1 C1         -0.0167    1.3792    0.0096 C.ar      1 <0>        -0.1007
      2 C2          1.1708    2.0869    0.0021 C.ar      1 <0>        -0.0710
      3 C3          2.3773    1.4131   -0.0135 C.ar      1 <0>        -0.0906
      4 C4          2.3974    0.0294   -0.0212 C.ar      1 <0>        -0.0206
      5 C5          1.2096   -0.6792   -0.0132 C.ar      1 <0>        -0.0973
      6 C6          0.0021   -0.0041    0.0020 C.ar      1 <0>        -0.0177
      7 Cl1        -1.4893   -0.8926    0.0121 Cl        1 <0>        -0.0399
      8 Cl2         3.9130   -0.8168   -0.0414 Cl        1 <0>        -0.0570
      9 C7          3.6714    2.1853   -0.0227 C.3       1 <0>         0.0967
     10 O1          3.3901    3.5863   -0.0128 O.3       1 <0>        -0.3585
     11 C8          4.5556    4.4132   -0.0205 C.3       1 <0>         0.1220
     12 H1          5.3616    3.9002   -0.5451 H         1 <0>         0.0957
     13 C9          4.9861    4.7010    1.4192 C.3       1 <0>         0.0716
     14 N1          5.4009    3.4525    2.0638 N.pl3     1 <0>        -0.4117
     15 C10         4.5959    2.5906    2.7585 C.2       1 <0>         0.0302
     16 C11         5.3789    1.5784    3.1778 C.2       1 <0>         0.0054
     17 N2          6.6280    1.8158    2.7507 N.pl3     1 <0>        -0.4718
     18 C12         6.6478    2.9340    2.0784 C.cat     1 <0>         0.2862
     19 C13         4.2462    5.7110   -0.7212 C.ar      1 <0>        -0.1000
     20 C14         2.9457    6.1775   -0.7692 C.ar      1 <0>        -0.0580
     21 C15         2.6612    7.3675   -1.4116 C.ar      1 <0>        -0.1019
     22 C16         3.6781    8.0931   -2.0070 C.ar      1 <0>        -0.0089
     23 C17         4.9794    7.6271   -1.9589 C.ar      1 <0>        -0.0983
     24 C18         5.2644    6.4381   -1.3114 C.ar      1 <0>        -0.0131
     25 Cl3         6.8983    5.8554   -1.2454 Cl        1 <0>        -0.0545
     26 Cl4         3.3204    9.5877   -2.8144 Cl        1 <0>        -0.0347
     27 H2         -0.9592    1.9062    0.0260 H         1 <0>         0.1470
     28 H3          1.1557    3.1667    0.0080 H         1 <0>         0.1515
     29 H4          1.2248   -1.7590   -0.0191 H         1 <0>         0.1506
     30 H5          4.2557    1.9258    0.8601 H         1 <0>         0.0625
     31 H6          4.2377    1.9347   -0.9198 H         1 <0>         0.0786
     32 H7          5.8203    5.4026    1.4156 H         1 <0>         0.1341
     33 H8          4.1501    5.1334    1.9689 H         1 <0>         0.1404
     34 H9          3.5364    2.7013    2.9365 H         1 <0>         0.2241
     35 H10         5.0575    0.7251    3.7566 H         1 <0>         0.2262
     36 H11         7.5177    3.3735    1.6130 H         1 <0>         0.2599
     37 H12         2.1518    5.6116   -0.3047 H         1 <0>         0.1528
     38 H13         1.6450    7.7312   -1.4494 H         1 <0>         0.1501
     39 H14         5.7734    8.1930   -2.4234 H         1 <0>         0.1537
     40 H15         7.3950    1.2444    2.9128 H         1 <0>         0.4669
@<TRIPOS>BOND
     1    1    6 ar
     2    1    2 ar
     3    1   27 1
     4    2    3 ar
     5    2   28 1
     6    3    4 ar
     7    3    9 1
     8    4    5 ar
     9    4    8 1
    10    5    6 ar
    11    5   29 1
    12    6    7 1
    13    9   10 1
    14    9   30 1
    15    9   31 1
    16   10   11 1
    17   11   12 1
    18   11   13 1
    19   11   19 1
    20   13   14 1
    21   13   32 1
    22   13   33 1
    23   14   18 1
    24   14   15 1
    25   15   16 2
    26   15   34 1
    27   16   17 1
    28   16   35 1
    29   17   18 2
    30   17   40 1
    31   18   36 1
    32   19   24 ar
    33   19   20 ar
    34   20   21 ar
    35   20   37 1
    36   21   22 ar
    37   21   38 1
    38   22   23 ar
    39   22   26 1
    40   23   24 ar
    41   23   39 1
    42   24   25 1
@<TRIPOS>MOLECULE
ZINC00607971
   39    41     0     0     0
SMALL
USER_CHARGES

@<TRIPOS>ATOM
      1 C1         -0.0167    1.3792    0.0096 C.ar      1 <0>        -0.1048
      2 C2          1.1708    2.0869    0.0021 C.ar      1 <0>        -0.0750
      3 C3          2.3773    1.4131   -0.0135 C.ar      1 <0>        -0.0723
      4 C4          2.3974    0.0294   -0.0212 C.ar      1 <0>        -0.0216
      5 C5          1.2096   -0.6792   -0.0132 C.ar      1 <0>        -0.0995
      6 C6          0.0021   -0.0041    0.0020 C.ar      1 <0>        -0.0247
      7 Cl1        -1.4893   -0.8926    0.0121 Cl        1 <0>        -0.0542
      8 Cl2         3.9130   -0.8168   -0.0414 Cl        1 <0>        -0.0471
      9 C7          3.6714    2.1853   -0.0227 C.3       1 <0>         0.0868
     10 O1          3.3901    3.5863   -0.0128 O.3       1 <0>        -0.3671
     11 C8          4.5556    4.4132   -0.0205 C.3       1 <0>         0.1203
     12 H1          5.3616    3.9002   -0.5451 H         1 <0>         0.0900
     13 C9          4.9861    4.7010    1.4192 C.3       1 <0>         0.0882
     14 N1          5.4009    3.4525    2.0638 N.pl3     1 <0>        -0.4624
     15 C10         4.5960    2.5909    2.7589 C.2       1 <0>        -0.0515
     16 C11         5.3790    1.5786    3.1781 C.2       1 <0>        -0.0235
     17 N2          6.6280    1.8156    2.7505 N.2       1 <0>        -0.4865
     18 C12         6.6477    2.9338    2.0780 C.2       1 <0>         0.1814
     19 C13         4.2462    5.7110   -0.7212 C.ar      1 <0>        -0.0826
     20 C14         2.9457    6.1775   -0.7692 C.ar      1 <0>        -0.0629
     21 C15         2.6612    7.3675   -1.4116 C.ar      1 <0>        -0.1048
     22 C16         3.6781    8.0931   -2.0070 C.ar      1 <0>        -0.0174
     23 C17         4.9794    7.6271   -1.9589 C.ar      1 <0>        -0.1007
     24 C18         5.2644    6.4381   -1.3114 C.ar      1 <0>        -0.0164
     25 Cl3         6.8983    5.8554   -1.2454 Cl        1 <0>        -0.0493
     26 Cl4         3.3204    9.5877   -2.8144 Cl        1 <0>        -0.0490
     27 H2         -0.9592    1.9062    0.0260 H         1 <0>         0.1420
     28 H3          1.1557    3.1667    0.0080 H         1 <0>         0.1492
     29 H4          1.2248   -1.7590   -0.0191 H         1 <0>         0.1470
     30 H5          4.2557    1.9258    0.8601 H         1 <0>         0.0957
     31 H6          4.2377    1.9347   -0.9198 H         1 <0>         0.0696
     32 H7          5.8203    5.4026    1.4156 H         1 <0>         0.1070
     33 H8          4.1501    5.1334    1.9689 H         1 <0>         0.1064
     34 H9          3.5366    2.7018    2.9373 H         1 <0>         0.1730
     35 H10         5.0576    0.7254    3.7570 H         1 <0>         0.1693
     36 H11         7.5175    3.3730    1.6123 H         1 <0>         0.2021
     37 H12         2.1518    5.6116   -0.3047 H         1 <0>         0.1508
     38 H13         1.6450    7.7312   -1.4494 H         1 <0>         0.1451
     39 H14         5.7734    8.1930   -2.4234 H         1 <0>         0.1494
@<TRIPOS>BOND
     1    1    6 ar
     2    1    2 ar
     3    1   27 1
     4    2    3 ar
     5    2   28 1
     6    3    4 ar
     7    3    9 1
     8    4    5 ar
     9    4    8 1
    10    5    6 ar
    11    5   29 1
    12    6    7 1
    13    9   10 1
    14    9   30 1
    15    9   31 1
    16   10   11 1
    17   11   12 1
    18   11   13 1
    19   11   19 1
    20   13   14 1
    21   13   32 1
    22   13   33 1
    23   14   18 1
    24   14   15 1
    25   15   16 2
    26   15   34 1
    27   16   17 1
    28   16   35 1
    29   17   18 2
    30   18   36 1
    31   19   24 ar
    32   19   20 ar
    33   20   21 ar
    34   20   37 1
    35   21   22 ar
    36   21   38 1
    37   22   23 ar
    38   22   26 1
    39   23   24 ar
    40   23   39 1
    41   24   25 1
@<TRIPOS>MOLECULE
ZINC00896740
   40    42     0     0     0
SMALL
USER_CHARGES

@<TRIPOS>ATOM
      1 C1         -0.0167    1.3792    0.0096 C.ar      1 <0>        -0.1004
      2 C2          1.1708    2.0869    0.0021 C.ar      1 <0>        -0.0703
      3 C3          2.3773    1.4131   -0.0135 C.ar      1 <0>        -0.0961
      4 C4          2.3974    0.0294   -0.0212 C.ar      1 <0>        -0.0232
      5 C5          1.2096   -0.6792   -0.0132 C.ar      1 <0>        -0.0971
      6 C6          0.0021   -0.0041    0.0020 C.ar      1 <0>        -0.0168
      7 Cl1        -1.4893   -0.8926    0.0121 Cl        1 <0>        -0.0380
      8 Cl2         3.9130   -0.8168   -0.0414 Cl        1 <0>        -0.0546
      9 C7          3.6714    2.1853   -0.0227 C.3       1 <0>         0.1018
     10 O1          3.3901    3.5863   -0.0128 O.3       1 <0>        -0.3602
     11 C8          4.5556    4.4132   -0.0205 C.3       1 <0>         0.1211
     12 H1          5.3720    3.8950    0.4825 H         1 <0>         0.0990
     13 C9          4.9569    4.7156   -1.4656 C.3       1 <0>         0.0723
     14 N1          5.3585    3.4737   -2.1309 N.pl3     1 <0>        -0.4122
     15 C10         6.6206    2.9454   -2.1716 C.2       1 <0>         0.0243
     16 C11         6.5424    1.8038   -2.8816 C.2       1 <0>         0.0093
     17 N2          5.2674    1.6394   -3.2640 N.pl3     1 <0>        -0.4746
     18 C12         4.5515    2.6333   -2.8137 C.cat     1 <0>         0.2904
     19 C13         4.2606    5.7038    0.6995 C.ar      1 <0>        -0.1005
     20 C14         2.9600    6.1639    0.7884 C.ar      1 <0>        -0.0587
     21 C15         2.6886    7.3473    1.4484 C.ar      1 <0>        -0.1027
     22 C16         3.7188    8.0723    2.0212 C.ar      1 <0>        -0.0086
     23 C17         5.0201    7.6123    1.9331 C.ar      1 <0>        -0.0985
     24 C18         5.2906    6.4250    1.2763 C.ar      1 <0>        -0.0132
     25 Cl3         6.9229    5.8437    1.1703 Cl        1 <0>        -0.0508
     26 Cl4         3.3778    9.5592    2.8499 Cl        1 <0>        -0.0349
     27 H2         -0.9592    1.9062    0.0260 H         1 <0>         0.1480
     28 H3          1.1557    3.1667    0.0080 H         1 <0>         0.1529
     29 H4          1.2248   -1.7590   -0.0191 H         1 <0>         0.1512
     30 H5          4.2557    1.9258    0.8601 H         1 <0>         0.0836
     31 H6          4.2377    1.9347   -0.9198 H         1 <0>         0.0506
     32 H7          4.1099    5.1534   -1.9939 H         1 <0>         0.1372
     33 H8          5.7910    5.4172   -1.4718 H         1 <0>         0.1376
     34 H9          7.5085    3.3639   -1.7212 H         1 <0>         0.2241
     35 H10         7.3626    1.1373   -3.1041 H         1 <0>         0.2266
     36 H11         3.4900    2.7635   -2.9643 H         1 <0>         0.2586
     37 H12         2.1557    5.5984    0.3415 H         1 <0>         0.1524
     38 H13         1.6724    7.7066    1.5169 H         1 <0>         0.1499
     39 H14         5.8245    8.1778    2.3799 H         1 <0>         0.1538
     40 H15         4.9299    0.8970   -3.7893 H         1 <0>         0.4666
@<TRIPOS>BOND
     1    1    6 ar
     2    1    2 ar
     3    1   27 1
     4    2    3 ar
     5    2   28 1
     6    3    4 ar
     7    3    9 1
     8    4    5 ar
     9    4    8 1
    10    5    6 ar
    11    5   29 1
    12    6    7 1
    13    9   10 1
    14    9   30 1
    15    9   31 1
    16   10   11 1
    17   11   12 1
    18   11   13 1
    19   11   19 1
    20   13   14 1
    21   13   32 1
    22   13   33 1
    23   14   18 1
    24   14   15 1
    25   15   16 2
    26   15   34 1
    27   16   17 1
    28   16   35 1
    29   17   18 2
    30   17   40 1
    31   18   36 1
    32   19   24 ar
    33   19   20 ar
    34   20   21 ar
    35   20   37 1
    36   21   22 ar
    37   21   38 1
    38   22   23 ar
    39   22   26 1
    40   23   24 ar
    41   23   39 1
    42   24   25 1
@<TRIPOS>MOLECULE
ZINC00896740
   39    41     0     0     0
SMALL
USER_CHARGES

@<TRIPOS>ATOM
      1 C1         -0.0167    1.3792    0.0096 C.ar      1 <0>        -0.1052
      2 C2          1.1708    2.0869    0.0021 C.ar      1 <0>        -0.0748
      3 C3          2.3773    1.4131   -0.0135 C.ar      1 <0>        -0.0741
      4 C4          2.3974    0.0294   -0.0212 C.ar      1 <0>        -0.0187
      5 C5          1.2096   -0.6792   -0.0132 C.ar      1 <0>        -0.0996
      6 C6          0.0021   -0.0041    0.0020 C.ar      1 <0>        -0.0239
      7 Cl1        -1.4893   -0.8926    0.0121 Cl        1 <0>        -0.0543
      8 Cl2         3.9130   -0.8168   -0.0414 Cl        1 <0>        -0.0473
      9 C7          3.6714    2.1853   -0.0227 C.3       1 <0>         0.0894
     10 O1          3.3901    3.5863   -0.0128 O.3       1 <0>        -0.3675
     11 C8          4.5556    4.4132   -0.0205 C.3       1 <0>         0.1203
     12 H1          5.3720    3.8950    0.4825 H         1 <0>         0.0901
     13 C9          4.9569    4.7156   -1.4656 C.3       1 <0>         0.0880
     14 N1          5.3585    3.4737   -2.1309 N.pl3     1 <0>        -0.4630
     15 C10         6.6207    2.9457   -2.1720 C.2       1 <0>        -0.0578
     16 C11         6.5425    1.8039   -2.8819 C.2       1 <0>        -0.0235
     17 N2          5.2673    1.6393   -3.2638 N.2       1 <0>        -0.4848
     18 C12         4.5514    2.6330   -2.8133 C.2       1 <0>         0.1858
     19 C13         4.2606    5.7038    0.6995 C.ar      1 <0>        -0.0827
     20 C14         2.9600    6.1639    0.7884 C.ar      1 <0>        -0.0627
     21 C15         2.6886    7.3473    1.4484 C.ar      1 <0>        -0.1047
     22 C16         3.7188    8.0723    2.0212 C.ar      1 <0>        -0.0173
     23 C17         5.0201    7.6123    1.9331 C.ar      1 <0>        -0.1010
     24 C18         5.2906    6.4250    1.2763 C.ar      1 <0>        -0.0164
     25 Cl3         6.9229    5.8437    1.1703 Cl        1 <0>        -0.0500
     26 Cl4         3.3778    9.5592    2.8499 Cl        1 <0>        -0.0491
     27 H2         -0.9592    1.9062    0.0260 H         1 <0>         0.1422
     28 H3          1.1557    3.1667    0.0080 H         1 <0>         0.1496
     29 H4          1.2248   -1.7590   -0.0191 H         1 <0>         0.1469
     30 H5          4.2557    1.9258    0.8601 H         1 <0>         0.0703
     31 H6          4.2377    1.9347   -0.9198 H         1 <0>         0.0923
     32 H7          4.1099    5.1534   -1.9939 H         1 <0>         0.1081
     33 H8          5.7910    5.4172   -1.4718 H         1 <0>         0.1055
     34 H9          7.5086    3.3644   -1.7220 H         1 <0>         0.1730
     35 H10         7.3627    1.1376   -3.1046 H         1 <0>         0.1698
     36 H11         3.4898    2.7630   -2.9636 H         1 <0>         0.2009
     37 H12         2.1557    5.5984    0.3415 H         1 <0>         0.1516
     38 H13         1.6724    7.7066    1.5169 H         1 <0>         0.1454
     39 H14         5.8245    8.1778    2.3799 H         1 <0>         0.1491
@<TRIPOS>BOND
     1    1    6 ar
     2    1    2 ar
     3    1   27 1
     4    2    3 ar
     5    2   28 1
     6    3    4 ar
     7    3    9 1
     8    4    5 ar
     9    4    8 1
    10    5    6 ar
    11    5   29 1
    12    6    7 1
    13    9   10 1
    14    9   30 1
    15    9   31 1
    16   10   11 1
    17   11   12 1
    18   11   13 1
    19   11   19 1
    20   13   14 1
    21   13   32 1
    22   13   33 1
    23   14   18 1
    24   14   15 1
    25   15   16 2
    26   15   34 1
    27   16   17 1
    28   16   35 1
    29   17   18 2
    30   18   36 1
    31   19   24 ar
    32   19   20 ar
    33   20   21 ar
    34   20   37 1
    35   21   22 ar
    36   21   38 1
    37   22   23 ar
    38   22   26 1
    39   23   24 ar
    40   23   39 1
    41   24   25 1
