@<TRIPOS>MOLECULE
ZINC03872070
   29    31     0     0     0
SMALL
USER_CHARGES

@<TRIPOS>ATOM
      1 C1         -0.0167    1.3795    0.0096 C.ar      1 <0>        -0.0927
      2 C2          1.1683    2.0940    0.0021 C.ar      1 <0>        -0.1229
      3 C3          2.3774    1.4303   -0.0130 C.ar      1 <0>        -0.0794
      4 C4          2.4038    0.0341   -0.0208 C.ar      1 <0>        -0.0750
      5 C5          1.2040   -0.6806   -0.0131 C.ar      1 <0>        -0.0800
      6 C6          0.0021   -0.0041    0.0020 C.ar      1 <0>        -0.1206
      7 C7          3.6945   -0.6834   -0.0374 C.2       1 <0>         0.2076
      8 C8          3.6865   -2.0422   -0.0503 C.2       1 <0>        -0.3115
      9 C9          4.9147   -2.7475   -0.0669 C.2       1 <0>         0.4227
     10 O1          4.9453   -3.9673   -0.0791 O.2       1 <0>        -0.4538
     11 C10         6.1531   -1.9509   -0.0693 C.ar      1 <0>        -0.2663
     12 C11         7.4124   -2.5640   -0.0858 C.ar      1 <0>         0.2193
     13 C12         8.5511   -1.7802   -0.0879 C.ar      1 <0>        -0.2051
     14 C13         8.4449   -0.3935   -0.0739 C.ar      1 <0>         0.1922
     15 C14         7.2019    0.2199   -0.0571 C.ar      1 <0>        -0.1832
     16 C15         6.0486   -0.5493   -0.0551 C.ar      1 <0>         0.1831
     17 O2          4.8303    0.0319   -0.0449 O.3       1 <0>        -0.2180
     18 O3          9.5695    0.3668   -0.0761 O.3       1 <0>        -0.4872
     19 O4          7.5139   -3.9173   -0.0990 O.3       1 <0>        -0.4722
     20 H1         -0.9606    1.9042    0.0260 H         1 <0>         0.1309
     21 H2          1.1464    3.1738    0.0078 H         1 <0>         0.1326
     22 H3          3.3016    1.9892   -0.0192 H         1 <0>         0.1349
     23 H4          1.2173   -1.7605   -0.0194 H         1 <0>         0.1361
     24 H5         -0.9265   -0.5555    0.0079 H         1 <0>         0.1347
     25 H6          2.7503   -2.5805   -0.0475 H         1 <0>         0.1636
     26 H7          9.5256   -2.2457   -0.1002 H         1 <0>         0.1502
     27 H8          7.1320    1.2975   -0.0459 H         1 <0>         0.1533
     28 H9          9.8879    0.5955   -0.9601 H         1 <0>         0.4037
     29 H10         7.5357   -4.3014   -0.9862 H         1 <0>         0.4030
@<TRIPOS>BOND
     1    1    6 ar
     2    1    2 ar
     3    1   20 1
     4    2    3 ar
     5    2   21 1
     6    3    4 ar
     7    3   22 1
     8    4    5 ar
     9    4    7 1
    10    5    6 ar
    11    5   23 1
    12    6   24 1
    13    7   17 1
    14    7    8 2
    15    8    9 1
    16    8   25 1
    17    9   10 2
    18    9   11 1
    19   11   16 ar
    20   11   12 ar
    21   12   13 ar
    22   12   19 1
    23   13   14 ar
    24   13   26 1
    25   14   15 ar
    26   14   18 1
    27   15   16 ar
    28   15   27 1
    29   16   17 1
    30   18   28 1
    31   19   29 1
@<TRIPOS>MOLECULE
ZINC03872070
   28    30     0     0     0
SMALL
USER_CHARGES

@<TRIPOS>ATOM
      1 C1         -0.0167    1.3797    0.0096 C.ar      1 <0>        -0.1070
      2 C2          1.1682    2.0946    0.0022 C.ar      1 <0>        -0.1239
      3 C3          2.3774    1.4315   -0.0129 C.ar      1 <0>        -0.0844
      4 C4          2.4042    0.0344   -0.0206 C.ar      1 <0>        -0.0523
      5 C5          1.2037   -0.6807   -0.0130 C.ar      1 <0>        -0.0872
      6 C6          0.0021   -0.0041    0.0020 C.ar      1 <0>        -0.1230
      7 C7          3.6938   -0.6822   -0.0372 C.2       1 <0>         0.1725
      8 C8          3.6987   -2.0599   -0.0503 C.2       1 <0>        -0.2684
      9 C9          4.9147   -2.7500   -0.0661 C.2       1 <0>         0.3652
     10 C10         6.1116   -2.0009   -0.0682 C.2       1 <0>        -0.3412
     11 C11         7.3668   -2.6443   -0.0844 C.2       1 <0>         0.2654
     12 C12         8.5111   -1.9002   -0.0865 C.2       1 <0>        -0.3783
     13 C13         8.4435   -0.4975   -0.0722 C.2       1 <0>         0.3617
     14 O1          9.5678    0.2204   -0.0740 O.2       1 <0>        -0.6670
     15 C14         7.2040    0.1518   -0.0566 C.2       1 <0>        -0.3151
     16 C15         6.0392   -0.5896   -0.0543 C.2       1 <0>         0.2114
     17 O2          4.8365    0.0229   -0.0448 O.3       1 <0>        -0.2195
     18 O3          7.4365   -3.9993   -0.0974 O.3       1 <0>        -0.4477
     19 O4          4.9436   -4.1007   -0.0786 O.3       1 <0>        -0.5790
     20 H1         -0.9606    1.9042    0.0260 H         1 <0>         0.1247
     21 H2          1.1460    3.1743    0.0078 H         1 <0>         0.1280
     22 H3          3.3014    1.9906   -0.0191 H         1 <0>         0.1359
     23 H4          1.2169   -1.7606   -0.0192 H         1 <0>         0.1351
     24 H5         -0.9266   -0.5554    0.0079 H         1 <0>         0.1291
     25 H6          2.7663   -2.6050   -0.0479 H         1 <0>         0.1462
     26 H7          9.4725   -2.3921   -0.0990 H         1 <0>         0.1160
     27 H8          7.1585    1.2308   -0.0456 H         1 <0>         0.1202
     28 H9          8.3389   -4.3466   -0.1079 H         1 <0>         0.3827
@<TRIPOS>BOND
     1    1    6 ar
     2    1    2 ar
     3    1   20 1
     4    2    3 ar
     5    2   21 1
     6    3    4 ar
     7    3   22 1
     8    4    5 ar
     9    4    7 1
    10    5    6 ar
    11    5   23 1
    12    6   24 1
    13    7   17 1
    14    7    8 2
    15    8    9 1
    16    8   25 1
    17    9   10 2
    18    9   19 1
    19   10   16 1
    20   10   11 1
    21   11   12 2
    22   11   18 1
    23   12   13 1
    24   12   26 1
    25   13   14 2
    26   13   15 1
    27   15   16 2
    28   15   27 1
    29   16   17 1
    30   18   28 1
@<TRIPOS>MOLECULE
ZINC03869768
   31    33     0     0     0
SMALL
USER_CHARGES

@<TRIPOS>ATOM
      1 C1          0.9745   -0.2752   -0.9649 C.ar      1 <0>        -0.0474
      2 C2          2.1550    0.4346   -0.9693 C.ar      1 <0>        -0.1488
      3 C3          2.3800    1.4188   -0.0145 C.ar      1 <0>         0.1280
      4 C4          1.4162    1.6917    0.9485 C.ar      1 <0>        -0.1504
      5 C5          0.2327    0.9869    0.9606 C.ar      1 <0>        -0.0665
      6 C6          0.0021   -0.0041    0.0020 C.ar      1 <0>        -0.0625
      7 C7         -1.2634   -0.7608    0.0105 C.2       1 <0>         0.1356
      8 C8         -1.2167   -2.1184   -0.0957 C.2       1 <0>        -0.0454
      9 C9         -2.4259   -2.8610   -0.0886 C.2       1 <0>         0.4007
     10 O1         -2.4232   -4.0781   -0.1814 O.2       1 <0>        -0.4492
     11 C10        -3.6832   -2.1065    0.0355 C.ar      1 <0>        -0.2689
     12 C11        -4.9234   -2.7585    0.0517 C.ar      1 <0>         0.2243
     13 C12        -6.0821   -2.0144    0.1703 C.ar      1 <0>        -0.2086
     14 C13        -6.0155   -0.6287    0.2722 C.ar      1 <0>         0.1994
     15 C14        -4.7926    0.0230    0.2564 C.ar      1 <0>        -0.1859
     16 C15        -3.6188   -0.7060    0.1392 C.ar      1 <0>         0.1873
     17 O2         -2.4200   -0.0864    0.1283 O.3       1 <0>        -0.1981
     18 O3         -7.1599    0.0925    0.3877 O.3       1 <0>        -0.4869
     19 O4         -4.9864   -4.1104   -0.0487 O.3       1 <0>        -0.4727
     20 O5         -0.0202   -2.7570   -0.2082 O.3       1 <0>        -0.4492
     21 O6          3.5454    2.1157   -0.0224 O.3       1 <0>        -0.4978
     22 H1          0.7987   -1.0369   -1.7101 H         1 <0>         0.1366
     23 H2          2.9071    0.2256   -1.7157 H         1 <0>         0.1375
     24 H3          1.5954    2.4572    1.6889 H         1 <0>         0.1366
     25 H4         -0.5157    1.1995    1.7097 H         1 <0>         0.1340
     26 H5         -7.0416   -2.5100    0.1835 H         1 <0>         0.1512
     27 H6         -4.7536    1.0994    0.3359 H         1 <0>         0.1553
     28 H7         -7.4448    0.2345    1.3008 H         1 <0>         0.4049
     29 H8         -4.9577   -4.5698    0.8018 H         1 <0>         0.4037
     30 H9         -0.0926   -3.7187   -0.2778 H         1 <0>         0.4073
     31 H10         3.5195    2.9194   -0.5594 H         1 <0>         0.3958
@<TRIPOS>BOND
     1    1    6 ar
     2    1    2 ar
     3    1   22 1
     4    2    3 ar
     5    2   23 1
     6    3    4 ar
     7    3   21 1
     8    4    5 ar
     9    4   24 1
    10    5    6 ar
    11    5   25 1
    12    6    7 1
    13    7   17 1
    14    7    8 2
    15    8    9 1
    16    8   20 1
    17    9   10 2
    18    9   11 1
    19   11   16 ar
    20   11   12 ar
    21   12   13 ar
    22   12   19 1
    23   13   14 ar
    24   13   26 1
    25   14   15 ar
    26   14   18 1
    27   15   16 ar
    28   15   27 1
    29   16   17 1
    30   18   28 1
    31   19   29 1
    32   20   30 1
    33   21   31 1
@<TRIPOS>MOLECULE
ZINC03869768
   30    32     0     0     0
SMALL
USER_CHARGES

@<TRIPOS>ATOM
      1 C1          0.1387    1.1253   -0.8121 C.ar      1 <0>        -0.0723
      2 C2          1.3222    1.8291   -0.8163 C.ar      1 <0>        -0.1492
      3 C3          2.3802    1.4188   -0.0136 C.ar      1 <0>         0.1107
      4 C4          2.2493    0.2973    0.7970 C.ar      1 <0>        -0.1487
      5 C5          1.0698   -0.4131    0.8081 C.ar      1 <0>        -0.0549
      6 C6          0.0021   -0.0041    0.0020 C.ar      1 <0>        -0.0373
      7 C7         -1.2618   -0.7600    0.0105 C.2       1 <0>         0.1024
      8 C8         -1.2272   -2.1382   -0.0967 C.2       1 <0>        -0.0073
      9 C9         -2.4246   -2.8649   -0.0894 C.2       1 <0>         0.3353
     10 C10        -3.6396   -2.1555    0.0286 C.2       1 <0>        -0.3335
     11 C11        -4.8747   -2.8371    0.0419 C.2       1 <0>         0.2665
     12 C12        -6.0380   -2.1324    0.1573 C.2       1 <0>        -0.3754
     13 C13        -6.0102   -0.7324    0.2627 C.2       1 <0>         0.3645
     14 O1         -7.1532   -0.0530    0.3751 O.2       1 <0>        -0.6613
     15 C14        -4.7917   -0.0455    0.2513 C.2       1 <0>        -0.3154
     16 C15        -3.6071   -0.7470    0.1346 C.2       1 <0>         0.2120
     17 O2         -2.4247   -0.0966    0.1278 O.3       1 <0>        -0.2026
     18 O3         -4.9062   -4.1898   -0.0602 O.3       1 <0>        -0.4482
     19 O4         -2.4171   -4.2129   -0.1933 O.3       1 <0>        -0.5752
     20 O5         -0.0356   -2.7853   -0.2091 O.3       1 <0>        -0.4646
     21 O6          3.5454    2.1154   -0.0218 O.3       1 <0>        -0.5000
     22 H1         -0.6842    1.4472   -1.4330 H         1 <0>         0.1347
     23 H2          1.4286    2.7011   -1.4445 H         1 <0>         0.1321
     24 H3          3.0741   -0.0177    1.4190 H         1 <0>         0.1323
     25 H4          0.9692   -1.2847    1.4377 H         1 <0>         0.1358
     26 H5         -6.9838   -2.6538    0.1671 H         1 <0>         0.1177
     27 H6         -4.7769    1.0313    0.3327 H         1 <0>         0.1225
     28 H7         -5.7973   -4.5650   -0.0417 H         1 <0>         0.3845
     29 H8         -0.1151   -3.7466   -0.2784 H         1 <0>         0.4051
     30 H9          3.5829    2.8269    0.6320 H         1 <0>         0.3897
@<TRIPOS>BOND
     1    1    6 ar
     2    1    2 ar
     3    1   22 1
     4    2    3 ar
     5    2   23 1
     6    3    4 ar
     7    3   21 1
     8    4    5 ar
     9    4   24 1
    10    5    6 ar
    11    5   25 1
    12    6    7 1
    13    7   17 1
    14    7    8 2
    15    8    9 1
    16    8   20 1
    17    9   10 2
    18    9   19 1
    19   10   16 1
    20   10   11 1
    21   11   12 2
    22   11   18 1
    23   12   13 1
    24   12   26 1
    25   13   14 2
    26   13   15 1
    27   15   16 2
    28   15   27 1
    29   16   17 1
    30   18   28 1
    31   20   29 1
    32   21   30 1
@<TRIPOS>MOLECULE
ZINC18185774
   31    33     0     0     0
SMALL
USER_CHARGES

@<TRIPOS>ATOM
      1 C1         -0.0169    1.3929    0.0097 C.ar      1 <0>        -0.0705
      2 C2          1.1675    2.0983    0.0022 C.ar      1 <0>        -0.1309
      3 C3          2.3803    1.4240   -0.0135 C.ar      1 <0>         0.1099
      4 C4          2.4067    0.0300   -0.0212 C.ar      1 <0>         0.0792
      5 C5          1.2240   -0.6832   -0.0138 C.ar      1 <0>        -0.0904
      6 C6          0.0021   -0.0041    0.0020 C.ar      1 <0>        -0.0661
      7 C7         -1.2642   -0.7606    0.0105 C.2       1 <0>         0.2069
      8 C8         -2.4374   -0.0724    0.0203 C.2       1 <0>        -0.3067
      9 C9         -3.6620   -0.7813    0.0286 C.2       1 <0>         0.4226
     10 O1         -4.7331   -0.1964    0.0371 O.2       1 <0>        -0.4521
     11 C10        -3.5935   -2.2524    0.0260 C.ar      1 <0>        -0.2661
     12 C11        -4.7554   -3.0344    0.0332 C.ar      1 <0>         0.2196
     13 C12        -4.6484   -4.4128    0.0300 C.ar      1 <0>        -0.2046
     14 C13        -3.3955   -5.0163    0.0203 C.ar      1 <0>         0.1928
     15 C14        -2.2415   -4.2483    0.0131 C.ar      1 <0>        -0.1829
     16 C15        -2.3286   -2.8648    0.0157 C.ar      1 <0>         0.1832
     17 O2         -1.2147   -2.1022    0.0028 O.3       1 <0>        -0.2181
     18 O3         -3.3016   -6.3705    0.0182 O.3       1 <0>        -0.4872
     19 O4         -5.9771   -2.4436    0.0436 O.3       1 <0>        -0.4722
     20 O5          3.5971   -0.6274   -0.0366 O.3       1 <0>        -0.4831
     21 O6          3.5446    2.1239   -0.0217 O.3       1 <0>        -0.4848
     22 H1         -0.9593    1.9201    0.0260 H         1 <0>         0.1451
     23 H2          1.1515    3.1781    0.0081 H         1 <0>         0.1468
     24 H3          1.2430   -1.7630   -0.0205 H         1 <0>         0.1466
     25 H4         -2.4342    1.0076    0.0222 H         1 <0>         0.1649
     26 H5         -5.5400   -5.0224    0.0355 H         1 <0>         0.1504
     27 H6         -1.2739   -4.7281    0.0059 H         1 <0>         0.1535
     28 H7         -3.2809   -6.7620   -0.8658 H         1 <0>         0.4041
     29 H8         -6.3379   -2.2705   -0.8367 H         1 <0>         0.4034
     30 H9          3.9502   -0.8223    0.8423 H         1 <0>         0.3919
     31 H10         3.8907    2.3221    0.8592 H         1 <0>         0.3948
@<TRIPOS>BOND
     1    1    6 ar
     2    1    2 ar
     3    1   22 1
     4    2    3 ar
     5    2   23 1
     6    3    4 ar
     7    3   21 1
     8    4    5 ar
     9    4   20 1
    10    5    6 ar
    11    5   24 1
    12    6    7 1
    13    7   17 1
    14    7    8 2
    15    8    9 1
    16    8   25 1
    17    9   10 2
    18    9   11 1
    19   11   16 ar
    20   11   12 ar
    21   12   13 ar
    22   12   19 1
    23   13   14 ar
    24   13   26 1
    25   14   15 ar
    26   14   18 1
    27   15   16 ar
    28   15   27 1
    29   16   17 1
    30   18   28 1
    31   19   29 1
    32   20   30 1
    33   21   31 1
@<TRIPOS>MOLECULE
ZINC00519621
   34    36     0     0     0
SMALL
USER_CHARGES

@<TRIPOS>ATOM
      1 C1         -0.0173    1.4248    0.0099 C.3       1 <0>         0.0215
      2 O1          0.0021   -0.0041    0.0020 O.3       1 <0>        -0.3033
      3 C2         -1.2011   -0.6379    0.0101 C.ar      1 <0>         0.1011
      4 C3         -2.3699    0.0987    0.0194 C.ar      1 <0>        -0.1581
      5 C4         -3.6047   -0.5560    0.0273 C.ar      1 <0>        -0.0428
      6 C5         -3.6513   -1.9527    0.0256 C.ar      1 <0>        -0.0984
      7 C6         -2.4814   -2.6811    0.0163 C.ar      1 <0>        -0.1078
      8 C7         -1.2552   -2.0307    0.0031 C.ar      1 <0>         0.1046
      9 O2         -0.1050   -2.7534   -0.0113 O.3       1 <0>        -0.4830
     10 C8         -4.8557    0.2255    0.0378 C.2       1 <0>         0.2049
     11 C9         -6.0423   -0.4395    0.0508 C.2       1 <0>        -0.3041
     12 C10        -7.2526    0.2935    0.0610 C.2       1 <0>         0.4222
     13 O3         -8.3351   -0.2701    0.0731 O.2       1 <0>        -0.4515
     14 C11        -7.1551    1.7630    0.0568 C.ar      1 <0>        -0.2659
     15 C12        -8.3014    2.5678    0.0668 C.ar      1 <0>         0.2200
     16 C13        -8.1672    3.9438    0.0629 C.ar      1 <0>        -0.2048
     17 C14        -6.9026    4.5224    0.0488 C.ar      1 <0>         0.1928
     18 C15        -5.7640    3.7318    0.0385 C.ar      1 <0>        -0.1837
     19 C16        -5.8784    2.3502    0.0431 C.ar      1 <0>         0.1830
     20 O4         -4.7797    1.5659    0.0396 O.3       1 <0>        -0.2192
     21 O5         -6.7820    5.8745    0.0447 O.3       1 <0>        -0.4871
     22 O6         -9.5345    2.0012    0.0796 O.3       1 <0>        -0.4719
     23 H1          1.0053    1.8021    0.0021 H         1 <0>         0.1060
     24 H2         -0.5445    1.7859   -0.8732 H         1 <0>         0.0588
     25 H3         -0.5275    1.7763    0.9067 H         1 <0>         0.0581
     26 H4         -2.3295    1.1780    0.0211 H         1 <0>         0.1453
     27 H5         -4.6041   -2.4612    0.0320 H         1 <0>         0.1440
     28 H6         -2.5188   -3.7604    0.0154 H         1 <0>         0.1496
     29 H7          0.2362   -2.9674    0.8679 H         1 <0>         0.3939
     30 H8         -6.0605   -1.5193    0.0529 H         1 <0>         0.1658
     31 H9         -9.0465    4.5708    0.0705 H         1 <0>         0.1505
     32 H10        -4.7872    4.1924    0.0272 H         1 <0>         0.1526
     33 H11        -6.7381    6.2682    0.9269 H         1 <0>         0.4038
     34 H12        -9.8833    1.8383    0.9667 H         1 <0>         0.4033
@<TRIPOS>BOND
     1    1    2 1
     2    1   23 1
     3    1   24 1
     4    1   25 1
     5    2    3 1
     6    3    8 ar
     7    3    4 ar
     8    4    5 ar
     9    4   26 1
    10    5    6 ar
    11    5   10 1
    12    6    7 ar
    13    6   27 1
    14    7    8 ar
    15    7   28 1
    16    8    9 1
    17    9   29 1
    18   10   20 1
    19   10   11 2
    20   11   12 1
    21   11   30 1
    22   12   13 2
    23   12   14 1
    24   14   19 ar
    25   14   15 ar
    26   15   16 ar
    27   15   22 1
    28   16   17 ar
    29   16   31 1
    30   17   18 ar
    31   17   21 1
    32   18   19 ar
    33   18   32 1
    34   19   20 1
    35   21   33 1
    36   22   34 1
@<TRIPOS>MOLECULE
ZINC06484604
   35    37     0     0     0
SMALL
USER_CHARGES
3,5,7-trihydroxy-2-(3-hydroxy-4-methoxy-phenyl)chromen-4-one
@<TRIPOS>ATOM
      1 C1          0.8738    1.6551    7.0480 C.3       1 <0>         0.0205
      2 O1          0.0375    2.1554    6.0028 O.3       1 <0>        -0.3036
      3 C2          0.0329    1.4647    4.8326 C.ar      1 <0>         0.1078
      4 C3          0.8185    0.3288    4.6961 C.ar      1 <0>        -0.1763
      5 C4          0.8179   -0.3753    3.5111 C.ar      1 <0>        -0.0864
      6 C5          0.0244    0.0542    2.4437 C.ar      1 <0>        -0.0427
      7 C6         -0.7630    1.2010    2.5799 C.ar      1 <0>        -0.1273
      8 C7         -0.7605    1.8991    3.7723 C.ar      1 <0>         0.1269
      9 O2         -1.5290    3.0127    3.9098 O.3       1 <0>        -0.4975
     10 C8          0.0226   -0.6972    1.1749 C.2       1 <0>         0.1156
     11 C9          0.1753   -0.0126    0.0068 C.2       1 <0>        -0.0218
     12 C10         0.1698   -0.7207   -1.2228 C.2       1 <0>         0.4035
     13 O3          0.2991   -0.1407   -2.2892 O.2       1 <0>        -0.4550
     14 C11         0.0069   -2.1819   -1.1621 C.ar      1 <0>        -0.3108
     15 C12        -0.0057   -2.9607   -2.3269 C.ar      1 <0>         0.2904
     16 C13        -0.1663   -4.3300   -2.2286 C.ar      1 <0>        -0.2991
     17 C14        -0.3150   -4.9285   -0.9818 C.ar      1 <0>         0.2677
     18 C15        -0.3034   -4.1647    0.1745 C.ar      1 <0>        -0.2901
     19 C16        -0.1430   -2.7894    0.0968 C.ar      1 <0>         0.2314
     20 O4         -0.1300   -2.0320    1.2136 O.3       1 <0>        -0.1991
     21 O5         -0.4725   -6.2742   -0.8968 O.3       1 <0>        -0.4948
     22 O6          0.1396   -2.3749   -3.5425 O.3       1 <0>        -0.4691
     23 O7          0.3261    1.3399    0.0190 O.3       1 <0>        -0.4813
     24 H1          0.7831    2.3033    7.9321 H         1 <0>         0.1038
     25 H2          1.9196    1.6440    6.7072 H         1 <0>         0.0575
     26 H3          0.5624    0.6330    7.3092 H         1 <0>         0.0575
     27 H4          1.4320   -0.0041    5.5202 H         1 <0>         0.1407
     28 H5          1.4307   -1.2585    3.4074 H         1 <0>         0.1323
     29 H6         -1.3741    1.5390    1.7560 H         1 <0>         0.1417
     30 H7         -2.1552    3.3556    3.0730 H         1 <0>         0.4334
     31 H8         -0.1767   -4.9366   -3.1221 H         1 <0>         0.1455
     32 H9         -0.4191   -4.6409    1.1369 H         1 <0>         0.1487
     33 H10        -0.5905   -6.7531    0.0864 H         1 <0>         0.4463
     34 H11         0.1291   -2.9901   -4.4543 H         1 <0>         0.4417
     35 H12         0.4491    1.8882   -0.9267 H         1 <0>         0.4422
@<TRIPOS>BOND
     1    1    2 1
     2    1   24 1
     3    1   25 1
     4    1   26 1
     5    2    3 1
     6    3    8 ar
     7    3    4 ar
     8    4    5 ar
     9    4   27 1
    10    5    6 ar
    11    5   28 1
    12    6    7 ar
    13    6   10 1
    14    7    8 ar
    15    7   29 1
    16    8    9 1
    17    9   30 1
    18   10   20 1
    19   10   11 2
    20   11   12 1
    21   11   23 1
    22   12   13 2
    23   12   14 1
    24   14   19 ar
    25   14   15 ar
    26   15   16 ar
    27   15   22 1
    28   16   17 ar
    29   16   31 1
    30   17   18 ar
    31   17   21 1
    32   18   19 ar
    33   18   32 1
    34   19   20 1
    35   21   33 1
    36   22   34 1
    37   23   35 1
@<TRIPOS>MOLECULE
ZINC03871358
   33    35     0     0     0
SMALL
USER_CHARGES

@<TRIPOS>ATOM
      1 C1         -0.0173    1.4248    0.0099 C.3       1 <0>         0.0229
      2 O1          0.0021   -0.0041    0.0020 O.3       1 <0>        -0.3105
      3 C2         -1.1990   -0.6368    0.0101 C.ar      1 <0>         0.1576
      4 C3         -2.3735    0.1061    0.0195 C.ar      1 <0>        -0.2143
      5 C4         -3.5941   -0.5317    0.0277 C.ar      1 <0>        -0.0345
      6 C5         -3.6506   -1.9283    0.0261 C.ar      1 <0>        -0.1167
      7 C6         -2.4669   -2.6716    0.0162 C.ar      1 <0>        -0.0367
      8 C7         -1.2506   -2.0256    0.0031 C.ar      1 <0>        -0.1538
      9 C8         -4.9556   -2.6157    0.0353 C.2       1 <0>         0.2164
     10 C9         -4.9785   -3.9758    0.0391 C.2       1 <0>        -0.3192
     11 C10        -6.2212   -4.6525    0.0485 C.2       1 <0>         0.4230
     12 O2         -6.2792   -5.8716    0.0525 O.2       1 <0>        -0.4560
     13 C11        -7.4417   -3.8284    0.0537 C.ar      1 <0>        -0.2654
     14 C12        -8.7142   -4.4135    0.0635 C.ar      1 <0>         0.2188
     15 C13        -9.8354   -3.6048    0.0686 C.ar      1 <0>        -0.2053
     16 C14        -9.6986   -2.2208    0.0640 C.ar      1 <0>         0.1914
     17 C15        -8.4423   -1.6351    0.0539 C.ar      1 <0>        -0.1836
     18 C16        -7.3063   -2.4295    0.0491 C.ar      1 <0>         0.1830
     19 O3         -6.0754   -1.8752    0.0452 O.3       1 <0>        -0.2193
     20 O4        -10.8061   -1.4358    0.0690 O.3       1 <0>        -0.4875
     21 O5         -8.8455   -5.7643    0.0675 O.3       1 <0>        -0.4722
     22 H1          1.0053    1.8021    0.0021 H         1 <0>         0.1054
     23 H2         -0.5445    1.7859   -0.8732 H         1 <0>         0.0601
     24 H3         -0.5275    1.7763    0.9067 H         1 <0>         0.0600
     25 H4         -2.3289    1.1852    0.0207 H         1 <0>         0.1383
     26 H5         -4.5063    0.0465    0.0357 H         1 <0>         0.1385
     27 H6         -2.5061   -3.7508    0.0152 H         1 <0>         0.1442
     28 H7         -0.3355   -2.5991   -0.0083 H         1 <0>         0.1437
     29 H8         -4.0547   -4.5352    0.0347 H         1 <0>         0.1630
     30 H9        -10.8199   -4.0488    0.0758 H         1 <0>         0.1498
     31 H10        -8.3484   -0.5591    0.0496 H         1 <0>         0.1527
     32 H11       -11.1213   -1.2060    0.9539 H         1 <0>         0.4034
     33 H12        -8.8777   -6.1537    0.9521 H         1 <0>         0.4029
@<TRIPOS>BOND
     1    1    2 1
     2    1   22 1
     3    1   23 1
     4    1   24 1
     5    2    3 1
     6    3    8 ar
     7    3    4 ar
     8    4    5 ar
     9    4   25 1
    10    5    6 ar
    11    5   26 1
    12    6    7 ar
    13    6    9 1
    14    7    8 ar
    15    7   27 1
    16    8   28 1
    17    9   19 1
    18    9   10 2
    19   10   11 1
    20   10   29 1
    21   11   12 2
    22   11   13 1
    23   13   18 ar
    24   13   14 ar
    25   14   15 ar
    26   14   21 1
    27   15   16 ar
    28   15   30 1
    29   16   17 ar
    30   16   20 1
    31   17   18 ar
    32   17   31 1
    33   18   19 1
    34   20   32 1
    35   21   33 1
@<TRIPOS>MOLECULE
ZINC03871576
   30    32     0     0     0
SMALL
USER_CHARGES

@<TRIPOS>ATOM
      1 C1         -0.0169    1.3935    0.0097 C.ar      1 <0>        -0.0604
      2 C2          1.1676    2.0963    0.0022 C.ar      1 <0>        -0.1497
      3 C3          2.3803    1.4179   -0.0135 C.ar      1 <0>         0.1360
      4 C4          2.4038    0.0284   -0.0212 C.ar      1 <0>        -0.1474
      5 C5          1.2241   -0.6823   -0.0133 C.ar      1 <0>        -0.0612
      6 C6          0.0021   -0.0041    0.0020 C.ar      1 <0>        -0.0853
      7 C7         -1.2639   -0.7610    0.0105 C.2       1 <0>         0.2092
      8 C8         -1.2134   -2.1203    0.0083 C.2       1 <0>        -0.3116
      9 C9         -2.4177   -2.8631    0.0169 C.2       1 <0>         0.4226
     10 O1         -2.4099   -4.0836    0.0156 O.2       1 <0>        -0.4538
     11 C10        -3.6809   -2.1061    0.0279 C.ar      1 <0>        -0.2659
     12 C11        -4.9199   -2.7591    0.0374 C.ar      1 <0>         0.2192
     13 C12        -6.0832   -2.0121    0.0480 C.ar      1 <0>        -0.2049
     14 C13        -6.0212   -0.6227    0.0493 C.ar      1 <0>         0.1922
     15 C14        -4.7984    0.0300    0.0400 C.ar      1 <0>        -0.1830
     16 C15        -3.6212   -0.7020    0.0293 C.ar      1 <0>         0.1830
     17 O2         -2.4220   -0.0821    0.0257 O.3       1 <0>        -0.2182
     18 O3         -7.1695    0.1013    0.0593 O.3       1 <0>        -0.4872
     19 O4         -4.9782   -4.1150    0.0356 O.3       1 <0>        -0.4722
     20 O5          3.5455    2.1145   -0.0218 O.3       1 <0>        -0.4965
     21 H1         -0.9589    1.9215    0.0260 H         1 <0>         0.1404
     22 H2          1.1538    3.1762    0.0081 H         1 <0>         0.1393
     23 H3          3.3485   -0.4949   -0.0338 H         1 <0>         0.1414
     24 H4          1.2432   -1.7622   -0.0196 H         1 <0>         0.1415
     25 H5         -0.2608   -2.6290   -0.0002 H         1 <0>         0.1637
     26 H6         -7.0423   -2.5086    0.0550 H         1 <0>         0.1502
     27 H7         -4.7627    1.1094    0.0411 H         1 <0>         0.1534
     28 H8         -7.4952    0.3100    0.9456 H         1 <0>         0.4037
     29 H9         -4.9875   -4.5094    0.9185 H         1 <0>         0.4031
     30 H10         3.8920    2.3119    0.8591 H         1 <0>         0.3984
@<TRIPOS>BOND
     1    1    6 ar
     2    1    2 ar
     3    1   21 1
     4    2    3 ar
     5    2   22 1
     6    3    4 ar
     7    3   20 1
     8    4    5 ar
     9    4   23 1
    10    5    6 ar
    11    5   24 1
    12    6    7 1
    13    7   17 1
    14    7    8 2
    15    8    9 1
    16    8   25 1
    17    9   10 2
    18    9   11 1
    19   11   16 ar
    20   11   12 ar
    21   12   13 ar
    22   12   19 1
    23   13   14 ar
    24   13   26 1
    25   14   15 ar
    26   14   18 1
    27   15   16 ar
    28   15   27 1
    29   16   17 1
    30   18   28 1
    31   19   29 1
    32   20   30 1
@<TRIPOS>MOLECULE
ZINC03871576
   29    31     0     0     0
SMALL
USER_CHARGES

@<TRIPOS>ATOM
      1 C1         -0.0169    1.3945    0.0097 C.ar      1 <0>        -0.0666
      2 C2          1.1672    2.0969    0.0022 C.ar      1 <0>        -0.1480
      3 C3          2.3804    1.4183   -0.0135 C.ar      1 <0>         0.1175
      4 C4          2.4042    0.0284   -0.0212 C.ar      1 <0>        -0.1471
      5 C5          1.2251   -0.6825   -0.0138 C.ar      1 <0>        -0.0696
      6 C6          0.0021   -0.0041    0.0020 C.ar      1 <0>        -0.0607
      7 C7         -1.2623   -0.7603    0.0105 C.2       1 <0>         0.1733
      8 C8         -1.2238   -2.1392    0.0085 C.2       1 <0>        -0.2675
      9 C9         -2.4161   -2.8666    0.0170 C.2       1 <0>         0.3649
     10 C10        -3.6370   -2.1554    0.0275 C.2       1 <0>        -0.3407
     11 C11        -4.8707   -2.8387    0.0369 C.2       1 <0>         0.2653
     12 C12        -6.0384   -2.1317    0.0475 C.2       1 <0>        -0.3780
     13 C13        -6.0158   -0.7277    0.0485 C.2       1 <0>         0.3615
     14 O1         -7.1627   -0.0461    0.0589 O.2       1 <0>        -0.6669
     15 C14        -4.7977   -0.0391    0.0393 C.2       1 <0>        -0.3147
     16 C15        -3.6098   -0.7430    0.0291 C.2       1 <0>         0.2111
     17 O2         -2.4272   -0.0920    0.0257 O.3       1 <0>        -0.2196
     18 O3         -4.8969   -4.1953    0.0351 O.3       1 <0>        -0.4477
     19 O4         -2.4024   -4.2178    0.0147 O.3       1 <0>        -0.5784
     20 O5          3.5452    2.1149   -0.0218 O.3       1 <0>        -0.4988
     21 H1         -0.9589    1.9225    0.0260 H         1 <0>         0.1416
     22 H2          1.1536    3.1768    0.0081 H         1 <0>         0.1349
     23 H3          3.3490   -0.4946   -0.0334 H         1 <0>         0.1360
     24 H4          1.2446   -1.7623   -0.0201 H         1 <0>         0.1407
     25 H5         -0.2747   -2.6546   -0.0001 H         1 <0>         0.1464
     26 H6         -6.9835   -2.6543    0.0547 H         1 <0>         0.1160
     27 H7         -4.7867    1.0408    0.0398 H         1 <0>         0.1203
     28 H8         -5.7877   -4.5715    0.0420 H         1 <0>         0.3828
     29 H9          3.8917    2.3124    0.8591 H         1 <0>         0.3921
@<TRIPOS>BOND
     1    1    6 ar
     2    1    2 ar
     3    1   21 1
     4    2    3 ar
     5    2   22 1
     6    3    4 ar
     7    3   20 1
     8    4    5 ar
     9    4   23 1
    10    5    6 ar
    11    5   24 1
    12    6    7 1
    13    7   17 1
    14    7    8 2
    15    8    9 1
    16    8   25 1
    17    9   10 2
    18    9   19 1
    19   10   16 1
    20   10   11 1
    21   11   12 2
    22   11   18 1
    23   12   13 1
    24   12   26 1
    25   13   14 2
    26   13   15 1
    27   15   16 2
    28   15   27 1
    29   16   17 1
    30   18   28 1
    31   20   29 1
@<TRIPOS>MOLECULE
ZINC00120273
   30    32     0     0     0
SMALL
USER_CHARGES

@<TRIPOS>ATOM
      1 C1         -0.0163    1.3802    0.0111 C.ar      1 <0>        -0.0990
      2 C2          0.2374    0.3974    0.9516 C.ar      1 <0>        -0.1230
      3 C3          1.4405   -0.2770    0.9418 C.ar      1 <0>        -0.0655
      4 C4          2.4040    0.0343   -0.0206 C.ar      1 <0>        -0.0531
      5 C5          2.1410    1.0276   -0.9670 C.ar      1 <0>        -0.0849
      6 C6          0.9335    1.6938   -0.9452 C.ar      1 <0>        -0.1245
      7 C7          3.6939   -0.6826   -0.0372 C.2       1 <0>         0.1351
      8 C8          3.6900   -2.0410    0.0540 C.2       1 <0>        -0.0465
      9 C9          4.9235   -2.7456    0.0389 C.2       1 <0>         0.4008
     10 O1          4.9595   -3.9630    0.1183 O.2       1 <0>        -0.4497
     11 C10         6.1558   -1.9502   -0.0767 C.ar      1 <0>        -0.2692
     12 C11         7.4165   -2.5618   -0.0999 C.ar      1 <0>         0.2242
     13 C12         8.5506   -1.7796   -0.2100 C.ar      1 <0>        -0.2087
     14 C13         8.4394   -0.3957   -0.2971 C.ar      1 <0>         0.1994
     15 C14         7.1961    0.2162   -0.2748 C.ar      1 <0>        -0.1861
     16 C15         6.0463   -0.5513   -0.1648 C.ar      1 <0>         0.1875
     17 O2          4.8285    0.0294   -0.1473 O.3       1 <0>        -0.1979
     18 O3          9.5600    0.3630   -0.4045 O.3       1 <0>        -0.4868
     19 O4          7.5229   -3.9121   -0.0144 O.3       1 <0>        -0.4727
     20 O5          2.5145   -2.7180    0.1592 O.3       1 <0>        -0.4489
     21 H1         -0.9619    1.9019    0.0207 H         1 <0>         0.1278
     22 H2         -0.5083    0.1581    1.6953 H         1 <0>         0.1307
     23 H3          1.6374   -1.0436    1.6767 H         1 <0>         0.1313
     24 H4          2.8815    1.2735   -1.7137 H         1 <0>         0.1284
     25 H5          0.7287    2.4620   -1.6762 H         1 <0>         0.1298
     26 H6          9.5255   -2.2439   -0.2282 H         1 <0>         0.1512
     27 H7          7.1227    1.2915   -0.3431 H         1 <0>         0.1553
     28 H8          9.8402    0.5239   -1.3159 H         1 <0>         0.4048
     29 H9          7.5088   -4.3627   -0.8698 H         1 <0>         0.4035
     30 H10         2.6173   -3.6777    0.2183 H         1 <0>         0.4067
@<TRIPOS>BOND
     1    1    6 ar
     2    1    2 ar
     3    1   21 1
     4    2    3 ar
     5    2   22 1
     6    3    4 ar
     7    3   23 1
     8    4    5 ar
     9    4    7 1
    10    5    6 ar
    11    5   24 1
    12    6   25 1
    13    7   17 1
    14    7    8 2
    15    8    9 1
    16    8   20 1
    17    9   10 2
    18    9   11 1
    19   11   16 ar
    20   11   12 ar
    21   12   13 ar
    22   12   19 1
    23   13   14 ar
    24   13   26 1
    25   14   15 ar
    26   14   18 1
    27   15   16 ar
    28   15   27 1
    29   16   17 1
    30   18   28 1
    31   19   29 1
    32   20   30 1
@<TRIPOS>MOLECULE
ZINC00517261
   35    37     0     0     0
SMALL
USER_CHARGES

@<TRIPOS>ATOM
      1 C1          2.3589    0.6470    0.7586 C.3       1 <0>         0.0223
      2 O1          1.5806   -0.5228    0.4979 O.3       1 <0>        -0.3046
      3 C2          1.4050   -0.8698   -0.8053 C.ar      1 <0>         0.0999
      4 C3          1.9734   -0.1054   -1.8063 C.ar      1 <0>        -0.1620
      5 C4          1.7913   -0.4653   -3.1446 C.ar      1 <0>        -0.0203
      6 C5          1.0351   -1.5966   -3.4638 C.ar      1 <0>        -0.0846
      7 C6          0.4712   -2.3541   -2.4598 C.ar      1 <0>        -0.1098
      8 C7          0.6567   -1.9995   -1.1308 C.ar      1 <0>         0.0974
      9 O2          0.1029   -2.7528   -0.1448 O.3       1 <0>        -0.4841
     10 C8          2.3950    0.3469   -4.2171 C.2       1 <0>         0.1312
     11 C9          3.0776   -0.2846   -5.2130 C.2       1 <0>        -0.0399
     12 C10         3.6640    0.4829   -6.2526 C.2       1 <0>         0.4007
     13 O3          4.2823   -0.0479   -7.1614 O.2       1 <0>        -0.4475
     14 C11         3.4970    1.9438   -6.1925 C.ar      1 <0>        -0.2690
     15 C12         4.0422    2.7786   -7.1770 C.ar      1 <0>         0.2248
     16 C13         3.8632    4.1461   -7.0855 C.ar      1 <0>        -0.2084
     17 C14         3.1468    4.6876   -6.0232 C.ar      1 <0>         0.1999
     18 C15         2.6052    3.8681   -5.0455 C.ar      1 <0>        -0.1864
     19 C16         2.7735    2.4937   -5.1200 C.ar      1 <0>         0.1873
     20 O4          2.2470    1.6822   -4.1790 O.3       1 <0>        -0.1984
     21 O5          2.9770    6.0321   -5.9430 O.3       1 <0>        -0.4869
     22 O6          4.7412    2.2485   -8.2125 O.3       1 <0>        -0.4726
     23 O7          3.1964   -1.6403   -5.2106 O.3       1 <0>        -0.4473
     24 H1          3.3619    0.5138    0.3533 H         1 <0>         0.0571
     25 H2          1.8879    1.5094    0.2868 H         1 <0>         0.0576
     26 H3          2.4205    0.8101    1.8345 H         1 <0>         0.1047
     27 H4          2.5567    0.7682   -1.5552 H         1 <0>         0.1392
     28 H5          0.8923   -1.8769   -4.4970 H         1 <0>         0.1391
     29 H6         -0.1129   -3.2281   -2.7077 H         1 <0>         0.1457
     30 H7         -0.7889   -2.4767    0.1073 H         1 <0>         0.3912
     31 H8          4.2808    4.7958   -7.8404 H         1 <0>         0.1515
     32 H9          2.0512    4.3003   -4.2253 H         1 <0>         0.1549
     33 H10         2.1822    6.3554   -6.3888 H         1 <0>         0.4051
     34 H11         4.1983    2.0283   -8.9819 H         1 <0>         0.4039
     35 H12         3.6982   -1.9925   -5.9584 H         1 <0>         0.4078
@<TRIPOS>BOND
     1    1    2 1
     2    1   24 1
     3    1   25 1
     4    1   26 1
     5    2    3 1
     6    3    8 ar
     7    3    4 ar
     8    4    5 ar
     9    4   27 1
    10    5    6 ar
    11    5   10 1
    12    6    7 ar
    13    6   28 1
    14    7    8 ar
    15    7   29 1
    16    8    9 1
    17    9   30 1
    18   10   20 1
    19   10   11 2
    20   11   12 1
    21   11   23 1
    22   12   13 2
    23   12   14 1
    24   14   19 ar
    25   14   15 ar
    26   15   16 ar
    27   15   22 1
    28   16   17 ar
    29   16   31 1
    30   17   18 ar
    31   17   21 1
    32   18   19 ar
    33   18   32 1
    34   19   20 1
    35   21   33 1
    36   22   34 1
    37   23   35 1
@<TRIPOS>MOLECULE
ZINC00039092
   36    38     0     0     0
SMALL
USER_CHARGES

@<TRIPOS>ATOM
      1 C1         -0.0173    1.4248    0.0099 C.3       1 <0>         0.0230
      2 O1          0.0021   -0.0041    0.0020 O.3       1 <0>        -0.3058
      3 C2          0.6062   -0.6075   -1.0564 C.ar      1 <0>         0.1145
      4 C3          1.1729    0.1590   -2.0621 C.ar      1 <0>        -0.1954
      5 C4          1.7870   -0.4560   -3.1371 C.ar      1 <0>        -0.0562
      6 C5          1.8372   -1.8356   -3.2121 C.ar      1 <0>        -0.1160
      7 C6          1.2734   -2.6062   -2.2124 C.ar      1 <0>        -0.0882
      8 C7          0.6617   -1.9961   -1.1290 C.ar      1 <0>         0.0765
      9 O2          0.1119   -2.7526   -0.1417 O.3       1 <0>        -0.4835
     10 C8          2.5075   -2.5009   -4.3865 C.3       1 <0>         0.1514
     11 H1          2.0922   -3.4991   -4.5248 H         1 <0>         0.0912
     12 C9          4.0168   -2.6057   -4.1233 C.3       1 <0>        -0.1938
     13 C10         4.6428   -3.2488   -5.3478 C.2       1 <0>         0.4030
     14 O3          5.5277   -4.0740   -5.2529 O.2       1 <0>        -0.4312
     15 C11         4.1229   -2.8220   -6.6515 C.ar      1 <0>        -0.2938
     16 C12         4.7968   -3.1582   -7.8363 C.ar      1 <0>         0.2227
     17 C13         4.2786   -2.7534   -9.0533 C.ar      1 <0>        -0.2202
     18 C14         3.1007   -2.0176   -9.0982 C.ar      1 <0>         0.1978
     19 C15         2.4327   -1.6770   -7.9290 C.ar      1 <0>        -0.2012
     20 C16         2.9347   -2.0699   -6.7008 C.ar      1 <0>         0.2146
     21 O4          2.2854   -1.7251   -5.5640 O.3       1 <0>        -0.2976
     22 O5          2.5981   -1.6273  -10.2965 O.3       1 <0>        -0.4902
     23 O6          5.9476   -3.8742   -7.7880 O.3       1 <0>        -0.4788
     24 H2          1.0053    1.8021    0.0021 H         1 <0>         0.0582
     25 H3         -0.5445    1.7859   -0.8732 H         1 <0>         0.0579
     26 H4         -0.5275    1.7763    0.9067 H         1 <0>         0.1040
     27 H5          1.1344    1.2368   -2.0063 H         1 <0>         0.1376
     28 H6          2.2283    0.1425   -3.9203 H         1 <0>         0.1356
     29 H7          1.3136   -3.6837   -2.2735 H         1 <0>         0.1407
     30 H8         -0.8162   -2.9794   -0.2906 H         1 <0>         0.3892
     31 H9          4.4368   -1.6115   -3.9705 H         1 <0>         0.1164
     32 H10         4.1982   -3.2253   -3.2450 H         1 <0>         0.1163
     33 H11         4.7902   -3.0091   -9.9694 H         1 <0>         0.1461
     34 H12         1.5189   -1.1036   -7.9786 H         1 <0>         0.1487
     35 H13         1.9864   -2.2632  -10.6923 H         1 <0>         0.4028
     36 H14         5.8169   -4.8316   -7.8253 H         1 <0>         0.4036
@<TRIPOS>BOND
     1    1    2 1
     2    1   24 1
     3    1   25 1
     4    1   26 1
     5    2    3 1
     6    3    8 ar
     7    3    4 ar
     8    4    5 ar
     9    4   27 1
    10    5    6 ar
    11    5   28 1
    12    6    7 ar
    13    6   10 1
    14    7    8 ar
    15    7   29 1
    16    8    9 1
    17    9   30 1
    18   10   11 1
    19   10   21 1
    20   10   12 1
    21   12   13 1
    22   12   31 1
    23   12   32 1
    24   13   14 2
    25   13   15 1
    26   15   20 ar
    27   15   16 ar
    28   16   17 ar
    29   16   23 1
    30   17   18 ar
    31   17   33 1
    32   18   19 ar
    33   18   22 1
    34   19   20 ar
    35   19   34 1
    36   20   21 1
    37   22   35 1
    38   23   36 1
@<TRIPOS>MOLECULE
ZINC00073693
   31    33     0     0     0
SMALL
USER_CHARGES

@<TRIPOS>ATOM
      1 C1         -0.0167    1.3781    0.0096 C.ar      1 <0>        -0.1097
      2 C2          1.1709    2.0855    0.0021 C.ar      1 <0>        -0.1184
      3 C3          2.3773    1.4107   -0.0130 C.ar      1 <0>        -0.1028
      4 C4          2.3960    0.0285   -0.0201 C.ar      1 <0>        -0.0941
      5 C5          1.2084   -0.6789   -0.0117 C.ar      1 <0>        -0.0911
      6 C6          0.0021   -0.0041    0.0020 C.ar      1 <0>        -0.1198
      7 C7          3.7112   -0.7071   -0.0376 C.3       1 <0>         0.1458
      8 H1          4.4878   -0.0741    0.3917 H         1 <0>         0.0903
      9 C8          4.0810   -1.0615   -1.4853 C.3       1 <0>        -0.1927
     10 C9          5.3906   -1.8281   -1.4397 C.2       1 <0>         0.4032
     11 O1          6.2658   -1.6451   -2.2605 O.2       1 <0>        -0.4319
     12 C10         5.5442   -2.8009   -0.3525 C.ar      1 <0>        -0.2945
     13 C11         6.5946   -3.7322   -0.3677 C.ar      1 <0>         0.2226
     14 C12         6.7237   -4.6308    0.6761 C.ar      1 <0>        -0.2205
     15 C13         5.8168   -4.6099    1.7288 C.ar      1 <0>         0.1982
     16 C14         4.7723   -3.6947    1.7464 C.ar      1 <0>        -0.2013
     17 C15         4.6233   -2.7883    0.7114 C.ar      1 <0>         0.2147
     18 O2          3.5965   -1.9062    0.7284 O.3       1 <0>        -0.2970
     19 O3          5.9529   -5.4930    2.7497 O.3       1 <0>        -0.4901
     20 O4          7.4760   -3.7510   -1.3982 O.3       1 <0>        -0.4788
     21 H2         -0.9591    1.9053    0.0259 H         1 <0>         0.1256
     22 H3          1.1563    3.1654    0.0076 H         1 <0>         0.1277
     23 H4          3.3051    1.9634   -0.0196 H         1 <0>         0.1260
     24 H5          1.2231   -1.7588   -0.0176 H         1 <0>         0.1286
     25 H6         -0.9258   -0.5567    0.0082 H         1 <0>         0.1267
     26 H7          3.3019   -1.6836   -1.9257 H         1 <0>         0.1162
     27 H8          4.2046   -0.1502   -2.0705 H         1 <0>         0.1155
     28 H9          7.5298   -5.3496    0.6726 H         1 <0>         0.1462
     29 H10         4.0740   -3.6906    2.5702 H         1 <0>         0.1488
     30 H11         6.5051   -5.1725    3.4760 H         1 <0>         0.4028
     31 H12         8.2469   -3.1823   -1.2668 H         1 <0>         0.4035
@<TRIPOS>BOND
     1    1    6 ar
     2    1    2 ar
     3    1   21 1
     4    2    3 ar
     5    2   22 1
     6    3    4 ar
     7    3   23 1
     8    4    5 ar
     9    4    7 1
    10    5    6 ar
    11    5   24 1
    12    6   25 1
    13    7    8 1
    14    7   18 1
    15    7    9 1
    16    9   10 1
    17    9   26 1
    18    9   27 1
    19   10   11 2
    20   10   12 1
    21   12   17 ar
    22   12   13 ar
    23   13   14 ar
    24   13   20 1
    25   14   15 ar
    26   14   28 1
    27   15   16 ar
    28   15   19 1
    29   16   17 ar
    30   16   29 1
    31   17   18 1
    32   19   30 1
    33   20   31 1
@<TRIPOS>MOLECULE
ZINC06411540
   34    36     0     0     0
SMALL
USER_CHARGES
3,5,7-trihydroxy-2-(4-methoxyphenyl)chromen-4-one
@<TRIPOS>ATOM
      1 C1          5.3444    4.4721    9.2086 C.3       1 <0>         0.0211
      2 O1          6.0419    3.7242    8.2106 O.3       1 <0>        -0.3139
      3 C2          5.3546    3.4110    7.0821 C.ar      1 <0>         0.1462
      4 C3          5.9745    2.6852    6.0724 C.ar      1 <0>        -0.1565
      5 C4          5.2812    2.3653    4.9259 C.ar      1 <0>        -0.0460
      6 C5          3.9520    2.7725    4.7790 C.ar      1 <0>        -0.0851
      7 C6          3.3342    3.5074    5.7950 C.ar      1 <0>        -0.0245
      8 C7          4.0335    3.8178    6.9404 C.ar      1 <0>        -0.2126
      9 C8          3.2058    2.4329    3.5534 C.2       1 <0>         0.1179
     10 C9          1.9588    1.8967    3.6719 C.2       1 <0>        -0.0246
     11 C10         1.2279    1.5645    2.5019 C.2       1 <0>         0.4035
     12 O2          0.1082    1.0828    2.5690 O.2       1 <0>        -0.4560
     13 C11         1.8722    1.8239    1.2045 C.ar      1 <0>        -0.3106
     14 C12         1.2232    1.5271   -0.0014 C.ar      1 <0>         0.2901
     15 C13         1.8595    1.7907   -1.1997 C.ar      1 <0>        -0.2993
     16 C14         3.1366    2.3421   -1.2064 C.ar      1 <0>         0.2673
     17 C15         3.7867    2.6334   -0.0176 C.ar      1 <0>        -0.2902
     18 C16         3.1651    2.3757    1.1950 C.ar      1 <0>         0.2314
     19 O3          3.7851    2.6537    2.3609 O.3       1 <0>        -0.2000
     20 O4          3.7524    2.5970   -2.3891 O.3       1 <0>        -0.4950
     21 O5         -0.0231    0.9899    0.0072 O.3       1 <0>        -0.4691
     22 O6          1.4189    1.6809    4.9024 O.3       1 <0>        -0.4820
     23 H1          6.0126    4.6558   10.0629 H         1 <0>         0.1044
     24 H2          4.4658    3.9028    9.5461 H         1 <0>         0.0593
     25 H3          5.0179    5.4334    8.7850 H         1 <0>         0.0590
     26 H4          7.0015    2.3711    6.1868 H         1 <0>         0.1375
     27 H5          5.7638    1.8012    4.1416 H         1 <0>         0.1355
     28 H6          2.3088    3.8279    5.6838 H         1 <0>         0.1332
     29 H7          3.5557    4.3821    7.7276 H         1 <0>         0.1351
     30 H8          1.3639    1.5684   -2.1331 H         1 <0>         0.1453
     31 H9          4.7783    3.0610   -0.0356 H         1 <0>         0.1487
     32 H10         4.7623    3.0330   -2.4007 H         1 <0>         0.4462
     33 H11        -0.5288    0.7585   -0.9418 H         1 <0>         0.4414
     34 H12         0.4118    1.2478    4.9929 H         1 <0>         0.4418
@<TRIPOS>BOND
     1    1    2 1
     2    1   23 1
     3    1   24 1
     4    1   25 1
     5    2    3 1
     6    3    8 ar
     7    3    4 ar
     8    4    5 ar
     9    4   26 1
    10    5    6 ar
    11    5   27 1
    12    6    7 ar
    13    6    9 1
    14    7    8 ar
    15    7   28 1
    16    8   29 1
    17    9   19 1
    18    9   10 2
    19   10   11 1
    20   10   22 1
    21   11   12 2
    22   11   13 1
    23   13   18 ar
    24   13   14 ar
    25   14   15 ar
    26   14   21 1
    27   15   16 ar
    28   15   30 1
    29   16   17 ar
    30   16   20 1
    31   17   18 ar
    32   17   31 1
    33   18   19 1
    34   20   32 1
    35   21   33 1
    36   22   34 1
@<TRIPOS>MOLECULE
ZINC02146973
   35    37     0     0     0
SMALL
USER_CHARGES

@<TRIPOS>ATOM
      1 C1         -0.0173    1.4248    0.0099 C.3       1 <0>         0.0252
      2 O1          0.0021   -0.0041    0.0020 O.3       1 <0>        -0.3154
      3 C2         -1.2003   -0.6375    0.0101 C.ar      1 <0>         0.1384
      4 C3         -2.3746    0.1011    0.0195 C.ar      1 <0>        -0.2077
      5 C4         -3.5956   -0.5451    0.0272 C.ar      1 <0>        -0.0601
      6 C5         -3.6478   -1.9268    0.0260 C.ar      1 <0>        -0.1327
      7 C6         -2.4788   -2.6651    0.0172 C.ar      1 <0>        -0.0496
      8 C7         -1.2554   -2.0237    0.0032 C.ar      1 <0>        -0.1519
      9 C8         -4.9811   -2.6292    0.0350 C.3       1 <0>         0.1513
     10 H1         -5.7401   -1.9743   -0.3930 H         1 <0>         0.0890
     11 C9         -5.3645   -2.9825    1.4794 C.3       1 <0>        -0.1931
     12 C10        -6.6929   -3.7156    1.4251 C.2       1 <0>         0.4029
     13 O2         -7.5660   -3.5154    2.2442 O.2       1 <0>        -0.4327
     14 C11        -6.8673   -4.6779    0.3316 C.ar      1 <0>        -0.2944
     15 C12        -7.9409   -5.5825    0.3380 C.ar      1 <0>         0.2223
     16 C13        -8.0891   -6.4715   -0.7114 C.ar      1 <0>        -0.2207
     17 C14        -7.1785   -6.4673   -1.7611 C.ar      1 <0>         0.1979
     18 C15        -6.1112   -5.5786   -1.7700 C.ar      1 <0>        -0.2014
     19 C16        -5.9429   -4.6823   -0.7292 C.ar      1 <0>         0.2151
     20 O3         -4.8941   -3.8262   -0.7377 O.3       1 <0>        -0.2973
     21 O4         -7.3334   -7.3407   -2.7877 O.3       1 <0>        -0.4902
     22 O5         -8.8258   -5.5851    1.3656 O.3       1 <0>        -0.4789
     23 H2          1.0053    1.8021    0.0021 H         1 <0>         0.1028
     24 H3         -0.5445    1.7859   -0.8732 H         1 <0>         0.0574
     25 H4         -0.5275    1.7763    0.9067 H         1 <0>         0.0575
     26 H5         -2.3343    1.1803    0.0211 H         1 <0>         0.1333
     27 H6         -4.5101    0.0294    0.0345 H         1 <0>         0.1293
     28 H7         -2.5223   -3.7443    0.0166 H         1 <0>         0.1364
     29 H8         -0.3427   -2.6008   -0.0082 H         1 <0>         0.1355
     30 H9         -4.6028   -3.6267    1.9186 H         1 <0>         0.1163
     31 H10        -5.4671   -2.0718    2.0696 H         1 <0>         0.1149
     32 H11        -8.9130   -7.1697   -0.7148 H         1 <0>         0.1459
     33 H12        -5.4103   -5.5873   -2.5916 H         1 <0>         0.1489
     34 H13        -7.8749   -7.0022   -3.5138 H         1 <0>         0.4027
     35 H14        -9.5818   -4.9964    1.2352 H         1 <0>         0.4033
@<TRIPOS>BOND
     1    1    2 1
     2    1   23 1
     3    1   24 1
     4    1   25 1
     5    2    3 1
     6    3    8 ar
     7    3    4 ar
     8    4    5 ar
     9    4   26 1
    10    5    6 ar
    11    5   27 1
    12    6    7 ar
    13    6    9 1
    14    7    8 ar
    15    7   28 1
    16    8   29 1
    17    9   10 1
    18    9   20 1
    19    9   11 1
    20   11   12 1
    21   11   30 1
    22   11   31 1
    23   12   13 2
    24   12   14 1
    25   14   19 ar
    26   14   15 ar
    27   15   16 ar
    28   15   22 1
    29   16   17 ar
    30   16   32 1
    31   17   18 ar
    32   17   21 1
    33   18   19 ar
    34   18   33 1
    35   19   20 1
    36   21   34 1
    37   22   35 1
@<TRIPOS>MOLECULE
ZINC04098322
   36    38     0     0     0
SMALL
USER_CHARGES

@<TRIPOS>ATOM
      1 C1         -0.0173    1.4248    0.0099 C.3       1 <0>         0.0227
      2 O1          0.0021   -0.0041    0.0020 O.3       1 <0>        -0.3048
      3 C2         -1.2011   -0.6379    0.0101 C.ar      1 <0>         0.1056
      4 C3         -2.3743    0.0994    0.0195 C.ar      1 <0>        -0.1790
      5 C4         -3.5965   -0.5465    0.0272 C.ar      1 <0>        -0.0620
      6 C5         -3.6519   -1.9279    0.0261 C.ar      1 <0>        -0.1104
      7 C6         -2.4852   -2.6694    0.0172 C.ar      1 <0>        -0.1057
      8 C7         -1.2569   -2.0283    0.0032 C.ar      1 <0>         0.0863
      9 O2         -0.1083   -2.7563   -0.0116 O.3       1 <0>        -0.4853
     10 C8         -4.8714    0.2570    0.0374 C.3       1 <0>         0.1466
     11 H1         -4.6857    1.2394   -0.3968 H         1 <0>         0.0909
     12 C9         -5.3628    0.4203    1.4831 C.3       1 <0>        -0.1929
     13 C10        -6.6620    1.2037    1.4303 C.2       1 <0>         0.4035
     14 O3         -6.9217    2.0644    2.2458 O.2       1 <0>        -0.4314
     15 C11        -7.5875    0.8677    0.3427 C.ar      1 <0>        -0.2944
     16 C12        -8.9076    1.3452    0.3523 C.ar      1 <0>         0.2228
     17 C13        -9.7562    1.0233   -0.6917 C.ar      1 <0>        -0.2200
     18 C14        -9.3019    0.2311   -1.7391 C.ar      1 <0>         0.1987
     19 C15        -7.9986   -0.2488   -1.7511 C.ar      1 <0>        -0.2005
     20 C16        -7.1337    0.0592   -0.7158 C.ar      1 <0>         0.2142
     21 O4         -5.8679   -0.4210   -0.7273 O.3       1 <0>        -0.2956
     22 O5        -10.1402   -0.0770   -2.7604 O.3       1 <0>        -0.4899
     23 O6         -9.3479    2.1158    1.3777 O.3       1 <0>        -0.4787
     24 H2          1.0053    1.8021    0.0021 H         1 <0>         0.1042
     25 H3         -0.5445    1.7859   -0.8732 H         1 <0>         0.0572
     26 H4         -0.5275    1.7763    0.9067 H         1 <0>         0.0570
     27 H5         -2.3338    1.1787    0.0211 H         1 <0>         0.1364
     28 H6         -4.6086   -2.4288    0.0325 H         1 <0>         0.1367
     29 H7         -2.5312   -3.7485    0.0167 H         1 <0>         0.1418
     30 H8          0.2323   -2.9716    0.8674 H         1 <0>         0.3901
     31 H9         -5.5378   -0.5591    1.9284 H         1 <0>         0.1181
     32 H10        -4.6228    0.9676    2.0671 H         1 <0>         0.1153
     33 H11       -10.7728    1.3878   -0.6925 H         1 <0>         0.1464
     34 H12        -7.6593   -0.8647   -2.5709 H         1 <0>         0.1494
     35 H13       -10.1210    0.5573   -3.4900 H         1 <0>         0.4031
     36 H14        -9.2166    3.0641    1.2415 H         1 <0>         0.4035
@<TRIPOS>BOND
     1    1    2 1
     2    1   24 1
     3    1   25 1
     4    1   26 1
     5    2    3 1
     6    3    8 ar
     7    3    4 ar
     8    4    5 ar
     9    4   27 1
    10    5    6 ar
    11    5   10 1
    12    6    7 ar
    13    6   28 1
    14    7    8 ar
    15    7   29 1
    16    8    9 1
    17    9   30 1
    18   10   11 1
    19   10   21 1
    20   10   12 1
    21   12   13 1
    22   12   31 1
    23   12   32 1
    24   13   14 2
    25   13   15 1
    26   15   20 ar
    27   15   16 ar
    28   16   17 ar
    29   16   23 1
    30   17   18 ar
    31   17   33 1
    32   18   19 ar
    33   18   22 1
    34   19   20 ar
    35   19   34 1
    36   20   21 1
    37   22   35 1
    38   23   36 1
@<TRIPOS>MOLECULE
ZINC03869685
   32    34     0     0     0
SMALL
USER_CHARGES

@<TRIPOS>ATOM
      1 C1          0.9741   -0.2755   -0.9644 C.ar      1 <0>        -0.0748
      2 C2          2.1569    0.4329   -0.9701 C.ar      1 <0>        -0.1346
      3 C3          2.3856    1.4156   -0.0177 C.ar      1 <0>         0.1032
      4 C4          1.4203    1.6918    0.9495 C.ar      1 <0>         0.0788
      5 C5          0.2328    0.9863    0.9617 C.ar      1 <0>        -0.0762
      6 C6          0.0021   -0.0041    0.0020 C.ar      1 <0>        -0.0447
      7 C7         -1.2637   -0.7605    0.0100 C.2       1 <0>         0.1350
      8 C8         -2.4363   -0.0759    0.1235 C.2       1 <0>        -0.0429
      9 C9         -3.6628   -0.7894    0.1327 C.2       1 <0>         0.4011
     10 O1         -4.7327   -0.2102    0.2323 O.2       1 <0>        -0.4484
     11 C10        -3.5946   -2.2549    0.0170 C.ar      1 <0>        -0.2690
     12 C11        -4.7561   -3.0387    0.0170 C.ar      1 <0>         0.2244
     13 C12        -4.6504   -4.4123   -0.0941 C.ar      1 <0>        -0.2081
     14 C13        -3.3994   -5.0103   -0.2044 C.ar      1 <0>         0.2000
     15 C14        -2.2463   -4.2416   -0.2047 C.ar      1 <0>        -0.1854
     16 C15        -2.3316   -2.8618   -0.0952 C.ar      1 <0>         0.1876
     17 O2         -1.2182   -2.0992   -0.1003 O.3       1 <0>        -0.1970
     18 O3         -3.3070   -6.3605   -0.3125 O.3       1 <0>        -0.4866
     19 O4         -5.9758   -2.4535    0.1257 O.3       1 <0>        -0.4726
     20 O5         -2.4312    1.2810    0.2275 O.3       1 <0>        -0.4502
     21 O6          1.6480    2.6557    1.8815 O.3       1 <0>        -0.4836
     22 O7          3.5534    2.1101   -0.0273 O.3       1 <0>        -0.4861
     23 H1          0.7971   -1.0371   -1.7094 H         1 <0>         0.1379
     24 H2          2.9075    0.2221   -1.7176 H         1 <0>         0.1421
     25 H3         -0.5155    1.1988    1.7108 H         1 <0>         0.1429
     26 H4         -5.5413   -5.0229   -0.0948 H         1 <0>         0.1515
     27 H5         -1.2805   -4.7174   -0.2903 H         1 <0>         0.1559
     28 H6         -3.3257   -6.6843   -1.2235 H         1 <0>         0.4050
     29 H7         -6.3751   -2.2160   -0.7224 H         1 <0>         0.4036
     30 H8         -3.3120    1.6729    0.3033 H         1 <0>         0.4079
     31 H9          1.3508    3.5370    1.6166 H         1 <0>         0.3905
     32 H10         3.5287    2.9137   -0.5647 H         1 <0>         0.3924
@<TRIPOS>BOND
     1    1    6 ar
     2    1    2 ar
     3    1   23 1
     4    2    3 ar
     5    2   24 1
     6    3    4 ar
     7    3   22 1
     8    4    5 ar
     9    4   21 1
    10    5    6 ar
    11    5   25 1
    12    6    7 1
    13    7   17 1
    14    7    8 2
    15    8    9 1
    16    8   20 1
    17    9   10 2
    18    9   11 1
    19   11   16 ar
    20   11   12 ar
    21   12   13 ar
    22   12   19 1
    23   13   14 ar
    24   13   26 1
    25   14   15 ar
    26   14   18 1
    27   15   16 ar
    28   15   27 1
    29   16   17 1
    30   18   28 1
    31   19   29 1
    32   20   30 1
    33   21   31 1
    34   22   32 1
@<TRIPOS>MOLECULE
ZINC03869685
   31    33     0     0     0
SMALL
USER_CHARGES

@<TRIPOS>ATOM
      1 C1          0.1390    1.1246   -0.8120 C.ar      1 <0>        -0.0626
      2 C2          1.3229    1.8301   -0.8179 C.ar      1 <0>        -0.1333
      3 C3          2.3812    1.4233   -0.0172 C.ar      1 <0>         0.0878
      4 C4          2.2522    0.2984    0.7970 C.ar      1 <0>         0.0757
      5 C5          1.0694   -0.4139    0.8086 C.ar      1 <0>        -0.0997
      6 C6          0.0021   -0.0041    0.0020 C.ar      1 <0>        -0.0194
      7 C7         -1.2620   -0.7597    0.0100 C.2       1 <0>         0.1007
      8 C8         -2.4587   -0.0763    0.1245 C.2       1 <0>        -0.0038
      9 C9         -3.6655   -0.7872    0.1324 C.2       1 <0>         0.3349
     10 C10        -3.6167   -2.1939    0.0219 C.2       1 <0>        -0.3331
     11 C11        -4.8018   -2.9593    0.0240 C.2       1 <0>         0.2664
     12 C12        -4.7326   -4.3182   -0.0844 C.2       1 <0>        -0.3749
     13 C13        -3.4871   -4.9570   -0.1979 C.2       1 <0>         0.3648
     14 O1         -3.4307   -6.2860   -0.3033 O.2       1 <0>        -0.6598
     15 C14        -2.3054   -4.2086   -0.2016 C.2       1 <0>        -0.3143
     16 C15        -2.3616   -2.8325   -0.0921 C.2       1 <0>         0.2118
     17 O2         -1.2290   -2.0988   -0.0996 O.3       1 <0>        -0.2018
     18 O3         -6.0073   -2.3463    0.1339 O.3       1 <0>        -0.4482
     19 O4         -4.8484   -0.1420    0.2437 O.3       1 <0>        -0.5747
     20 O5         -2.4638    1.2803    0.2294 O.3       1 <0>        -0.4649
     21 O6          3.2919   -0.0973    1.5794 O.3       1 <0>        -0.4856
     22 O7          3.5458    2.1225   -0.0269 O.3       1 <0>        -0.4881
     23 H1         -0.6843    1.4460   -1.4327 H         1 <0>         0.1397
     24 H2          1.4276    2.7014   -1.4473 H         1 <0>         0.1381
     25 H3          0.9685   -1.2854    1.4384 H         1 <0>         0.1410
     26 H4         -5.6395   -4.9047   -0.0825 H         1 <0>         0.1180
     27 H5         -1.3506   -4.7057   -0.2895 H         1 <0>         0.1230
     28 H6         -6.7597   -2.9537    0.1258 H         1 <0>         0.3847
     29 H7         -3.3475    1.6656    0.3047 H         1 <0>         0.4058
     30 H8          3.2925    0.2977    2.4620 H         1 <0>         0.3855
     31 H9          3.5825    2.8346    0.6263 H         1 <0>         0.3863
@<TRIPOS>BOND
     1    1    6 ar
     2    1    2 ar
     3    1   23 1
     4    2    3 ar
     5    2   24 1
     6    3    4 ar
     7    3   22 1
     8    4    5 ar
     9    4   21 1
    10    5    6 ar
    11    5   25 1
    12    6    7 1
    13    7   17 1
    14    7    8 2
    15    8    9 1
    16    8   20 1
    17    9   10 2
    18    9   19 1
    19   10   16 1
    20   10   11 1
    21   11   12 2
    22   11   18 1
    23   12   13 1
    24   12   26 1
    25   13   14 2
    26   13   15 1
    27   15   16 2
    28   15   27 1
    29   16   17 1
    30   18   28 1
    31   20   29 1
    32   21   30 1
    33   22   31 1
@<TRIPOS>MOLECULE
ZINC00058117
   33    35     0     0     0
SMALL
USER_CHARGES

@<TRIPOS>ATOM
      1 C1         -0.0167    1.3779    0.0096 C.ar      1 <0>        -0.0817
      2 C2          1.1696    2.0886    0.0021 C.ar      1 <0>        -0.1294
      3 C3          2.3802    1.4154   -0.0130 C.ar      1 <0>         0.0920
      4 C4          2.3990    0.0236   -0.0206 C.ar      1 <0>         0.0829
      5 C5          1.2071   -0.6822   -0.0130 C.ar      1 <0>        -0.1128
      6 C6          0.0021   -0.0041    0.0020 C.ar      1 <0>        -0.0854
      7 C7         -1.2936   -0.7736    0.0102 C.3       1 <0>         0.1474
      8 H1         -1.1268   -1.7623    0.4376 H         1 <0>         0.0926
      9 C8         -1.8131   -0.9178   -1.4277 C.3       1 <0>        -0.1941
     10 C9         -3.1316   -1.6670   -1.3560 C.2       1 <0>         0.4033
     11 O1         -3.4274   -2.5171   -2.1703 O.2       1 <0>        -0.4303
     12 C10        -4.0296   -1.3111   -0.2519 C.ar      1 <0>        -0.2935
     13 C11        -5.3619   -1.7535   -0.2412 C.ar      1 <0>         0.2230
     14 C12        -6.1842   -1.4137    0.8181 C.ar      1 <0>        -0.2197
     15 C13        -5.6917   -0.6381    1.8606 C.ar      1 <0>         0.1982
     16 C14        -4.3762   -0.1928    1.8526 C.ar      1 <0>        -0.2006
     17 C15        -3.5370   -0.5193    0.8018 C.ar      1 <0>         0.2140
     18 O2         -2.2590   -0.0726    0.7939 O.3       1 <0>        -0.2972
     19 O3         -6.5045   -0.3122    2.8969 O.3       1 <0>        -0.4900
     20 O4         -5.8394   -2.5081   -1.2619 O.3       1 <0>        -0.4787
     21 O5          3.5850   -0.6417   -0.0359 O.3       1 <0>        -0.4852
     22 O6          3.5476    2.1129   -0.0209 O.3       1 <0>        -0.4869
     23 H2         -0.9598    1.9038    0.0259 H         1 <0>         0.1379
     24 H3          1.1522    3.1684    0.0077 H         1 <0>         0.1390
     25 H4          1.2190   -1.7621   -0.0189 H         1 <0>         0.1381
     26 H5         -1.9695    0.0677   -1.8664 H         1 <0>         0.1177
     27 H6         -1.0977   -1.4821   -2.0260 H         1 <0>         0.1167
     28 H7         -7.2100   -1.7512    0.8346 H         1 <0>         0.1464
     29 H8         -4.0071    0.4105    2.6688 H         1 <0>         0.1490
     30 H9         -6.4900   -0.9498    3.6238 H         1 <0>         0.4030
     31 H10        -5.7310   -3.4601   -1.1314 H         1 <0>         0.4038
     32 H11         3.9367   -0.8389    0.8430 H         1 <0>         0.3900
     33 H12         3.8938    2.3101    0.8602 H         1 <0>         0.3909
@<TRIPOS>BOND
     1    1    6 ar
     2    1    2 ar
     3    1   23 1
     4    2    3 ar
     5    2   24 1
     6    3    4 ar
     7    3   22 1
     8    4    5 ar
     9    4   21 1
    10    5    6 ar
    11    5   25 1
    12    6    7 1
    13    7    8 1
    14    7   18 1
    15    7    9 1
    16    9   10 1
    17    9   26 1
    18    9   27 1
    19   10   11 2
    20   10   12 1
    21   12   17 ar
    22   12   13 ar
    23   13   14 ar
    24   13   20 1
    25   14   15 ar
    26   14   28 1
    27   15   16 ar
    28   15   19 1
    29   16   17 ar
    30   16   29 1
    31   17   18 1
    32   19   30 1
    33   20   31 1
    34   21   32 1
    35   22   33 1
@<TRIPOS>MOLECULE
ZINC05733652
   34    36     0     0     0
SMALL
USER_CHARGES

@<TRIPOS>ATOM
      1 C1         -0.0173    1.4248    0.0099 C.3       1 <0>         0.0204
      2 O1          0.0021   -0.0041    0.0020 O.3       1 <0>        -0.3009
      3 C2         -1.1998   -0.6372    0.0101 C.ar      1 <0>         0.1329
      4 C3         -2.3731    0.1045    0.0195 C.ar      1 <0>        -0.1985
      5 C4         -3.5950   -0.5328    0.0272 C.ar      1 <0>        -0.0427
      6 C5         -3.6547   -1.9290    0.0257 C.ar      1 <0>        -0.0986
      7 C6         -2.4733   -2.6757    0.0162 C.ar      1 <0>        -0.0652
      8 C7         -1.2520   -2.0301    0.0031 C.ar      1 <0>         0.0727
      9 O2         -0.1005   -2.7536   -0.0113 O.3       1 <0>        -0.4813
     10 C8         -4.9616   -2.6131    0.0345 C.2       1 <0>         0.2155
     11 C9         -6.0942   -1.8598    0.0384 C.2       1 <0>        -0.3157
     12 C10        -7.3568   -2.4986    0.0463 C.2       1 <0>         0.4232
     13 O3         -8.3933   -1.8543    0.0497 O.2       1 <0>        -0.4551
     14 C11        -7.3713   -3.9712    0.0499 C.ar      1 <0>        -0.2658
     15 C12        -8.5754   -4.6866    0.0567 C.ar      1 <0>         0.2189
     16 C13        -8.5462   -6.0688    0.0589 C.ar      1 <0>        -0.2050
     17 C14        -7.3292   -6.7419    0.0543 C.ar      1 <0>         0.1921
     18 C15        -6.1338   -6.0401    0.0481 C.ar      1 <0>        -0.1829
     19 C16        -6.1428   -4.6539    0.0453 C.ar      1 <0>         0.1832
     20 O4         -4.9878   -3.9553    0.0327 O.3       1 <0>        -0.2184
     21 O5         -7.3118   -8.0993    0.0565 O.3       1 <0>        -0.4873
     22 O6         -9.7619   -4.0278    0.0616 O.3       1 <0>        -0.4723
     23 H1          1.0053    1.8021    0.0021 H         1 <0>         0.1065
     24 H2         -0.5445    1.7859   -0.8732 H         1 <0>         0.0609
     25 H3         -0.5275    1.7763    0.9067 H         1 <0>         0.0606
     26 H4         -2.3283    1.1836    0.0211 H         1 <0>         0.1454
     27 H5         -4.5063    0.0467    0.0349 H         1 <0>         0.1434
     28 H6         -2.5151   -3.7549    0.0149 H         1 <0>         0.1495
     29 H7          0.2406   -2.9675    0.8679 H         1 <0>         0.3912
     30 H8         -6.0303   -0.7817    0.0359 H         1 <0>         0.1630
     31 H9         -9.4707   -6.6271    0.0645 H         1 <0>         0.1500
     32 H10        -5.1948   -6.5737    0.0450 H         1 <0>         0.1535
     33 H11        -7.3109   -8.4940   -0.8262 H         1 <0>         0.4037
     34 H12       -10.1101   -3.8381   -0.8204 H         1 <0>         0.4030
@<TRIPOS>BOND
     1    1    2 1
     2    1   23 1
     3    1   24 1
     4    1   25 1
     5    2    3 1
     6    3    8 ar
     7    3    4 ar
     8    4    5 ar
     9    4   26 1
    10    5    6 ar
    11    5   27 1
    12    6    7 ar
    13    6   10 1
    14    7    8 ar
    15    7   28 1
    16    8    9 1
    17    9   29 1
    18   10   20 1
    19   10   11 2
    20   11   12 1
    21   11   30 1
    22   12   13 2
    23   12   14 1
    24   14   19 ar
    25   14   15 ar
    26   15   16 ar
    27   15   22 1
    28   16   17 ar
    29   16   31 1
    30   17   18 ar
    31   17   21 1
    32   18   19 ar
    33   18   32 1
    34   19   20 1
    35   21   33 1
    36   22   34 1
@<TRIPOS>MOLECULE
ZINC00156701
   32    34     0     0     0
SMALL
USER_CHARGES

@<TRIPOS>ATOM
      1 C1         -0.0167    1.3784    0.0096 C.ar      1 <0>        -0.0844
      2 C2          1.1695    2.0865    0.0021 C.ar      1 <0>        -0.1442
      3 C3          2.3802    1.4093   -0.0131 C.ar      1 <0>         0.1167
      4 C4          2.3963    0.0221   -0.0206 C.ar      1 <0>        -0.1455
      5 C5          1.2074   -0.6814   -0.0130 C.ar      1 <0>        -0.0729
      6 C6          0.0021   -0.0041    0.0020 C.ar      1 <0>        -0.1034
      7 C7         -1.2934   -0.7740    0.0107 C.3       1 <0>         0.1470
      8 H1         -2.0861   -0.1570   -0.4124 H         1 <0>         0.0915
      9 C8         -1.6545   -1.1532    1.4543 C.3       1 <0>        -0.1930
     10 C9         -2.9435   -1.9533    1.3996 C.2       1 <0>         0.4032
     11 O1         -3.8237   -1.8020    2.2216 O.2       1 <0>        -0.4317
     12 C10        -3.0712   -2.9182    0.3020 C.ar      1 <0>        -0.2944
     13 C11        -4.0969   -3.8768    0.3066 C.ar      1 <0>         0.2227
     14 C12        -4.2019   -4.7673   -0.7467 C.ar      1 <0>        -0.2202
     15 C13        -3.2954   -4.7115   -1.7985 C.ar      1 <0>         0.1984
     16 C14        -2.2752   -3.7691   -1.8056 C.ar      1 <0>        -0.2010
     17 C15        -2.1504   -2.8702   -0.7610 C.ar      1 <0>         0.2145
     18 O2         -1.1470   -1.9614   -0.7679 O.3       1 <0>        -0.2972
     19 O3         -3.4079   -5.5870   -2.8289 O.3       1 <0>        -0.4900
     20 O4         -4.9779   -3.9296    1.3362 O.3       1 <0>        -0.4788
     21 O5          3.5484    2.1036   -0.0209 O.3       1 <0>        -0.4989
     22 H2         -0.9594    1.9052    0.0259 H         1 <0>         0.1316
     23 H3          1.1543    3.1664    0.0076 H         1 <0>         0.1345
     24 H4          3.3375   -0.5074   -0.0328 H         1 <0>         0.1334
     25 H5          1.2194   -1.7613   -0.0189 H         1 <0>         0.1340
     26 H6         -0.8595   -1.7595    1.8887 H         1 <0>         0.1164
     27 H7         -1.8021   -0.2518    2.0490 H         1 <0>         0.1158
     28 H8         -4.9890   -5.5069   -0.7515 H         1 <0>         0.1463
     29 H9         -1.5768   -3.7380   -2.6289 H         1 <0>         0.1490
     30 H10        -3.9680   -5.2733   -3.5521 H         1 <0>         0.4030
     31 H11        -5.7634   -3.3798    1.2103 H         1 <0>         0.4035
     32 H12         3.8951    2.3001    0.8601 H         1 <0>         0.3945
@<TRIPOS>BOND
     1    1    6 ar
     2    1    2 ar
     3    1   22 1
     4    2    3 ar
     5    2   23 1
     6    3    4 ar
     7    3   21 1
     8    4    5 ar
     9    4   24 1
    10    5    6 ar
    11    5   25 1
    12    6    7 1
    13    7    8 1
    14    7   18 1
    15    7    9 1
    16    9   10 1
    17    9   26 1
    18    9   27 1
    19   10   11 2
    20   10   12 1
    21   12   17 ar
    22   12   13 ar
    23   13   14 ar
    24   13   20 1
    25   14   15 ar
    26   14   28 1
    27   15   16 ar
    28   15   19 1
    29   16   17 ar
    30   16   29 1
    31   17   18 1
    32   19   30 1
    33   20   31 1
    34   21   32 1
