@<TRIPOS>MOLECULE
ZINC04598914
   56    56     0     0     0
SMALL
USER_CHARGES
2-(2-benzyloxycarbonylamino-4-methyl-pentanoyl)amino-4-methyl-pentanoic acid
@<TRIPOS>ATOM
      1 C1         -0.3566   -2.8801   -2.4985 C.3       1 <0>        -0.1500
      2 C2         -0.8904   -2.3479   -1.1670 C.3       1 <0>        -0.1168
      3 C3         -2.3244   -2.8394   -0.9595 C.3       1 <0>        -0.1363
      4 C4         -0.0074   -2.8541   -0.0247 C.3       1 <0>        -0.1165
      5 C5          1.3884   -2.2399   -0.1484 C.3       1 <0>         0.1458
      6 H1          1.8183   -2.5063   -1.1139 H         1 <0>         0.1102
      7 C6          1.2887   -0.7401   -0.0395 C.2       1 <0>         0.5159
      8 O1          1.5041   -0.1935    1.0215 O.2       1 <0>        -0.5358
      9 N1          0.9601   -0.0063   -1.1212 N.am      1 <0>        -0.6903
     10 C7          0.9680    1.4566   -1.0438 C.3       1 <0>         0.0999
     11 H2          1.7746    1.7814   -0.3865 H         1 <0>         0.0910
     12 C8          1.1830    2.0401   -2.4417 C.3       1 <0>        -0.1048
     13 C9          2.5491    1.6013   -2.9729 C.3       1 <0>        -0.0984
     14 C10         2.7007    2.0543   -4.4264 C.3       1 <0>        -0.1444
     15 C11         3.6537    2.2336   -2.1238 C.3       1 <0>        -0.1470
     16 C12        -0.3509    1.9378   -0.4961 C.2       1 <0>         0.4587
     17 O2         -1.2094    1.1405   -0.2007 O.co2     1 <0>        -0.6254
     18 N2          2.2440   -2.7516    0.9251 N.am      1 <0>        -0.6902
     19 C13         2.8464   -3.9500    0.7933 C.2       1 <0>         0.6526
     20 O3          2.7568   -4.5634   -0.2518 O.2       1 <0>        -0.5743
     21 O4          3.5476   -4.4675    1.8196 O.3       1 <0>        -0.3634
     22 C14         4.1696   -5.7621    1.6067 C.3       1 <0>         0.1294
     23 C15         4.9051   -6.1774    2.8547 C.ar      1 <0>        -0.0980
     24 C16         6.2329   -5.8313    3.0220 C.ar      1 <0>        -0.0930
     25 C17         6.9062   -6.2081    4.1690 C.ar      1 <0>        -0.1243
     26 C18         6.2545   -6.9396    5.1442 C.ar      1 <0>        -0.1099
     27 C19         4.9283   -7.2906    4.9744 C.ar      1 <0>        -0.1244
     28 C20         4.2535   -6.9093    3.8297 C.ar      1 <0>        -0.0928
     29 H3         -0.4285   -3.9676   -2.5102 H         1 <0>         0.0556
     30 H4         -0.9467   -2.4681   -3.3172 H         1 <0>         0.0570
     31 H5          0.6856   -2.5835   -2.6167 H         1 <0>         0.0512
     32 H6         -0.8782   -1.2581   -1.1802 H         1 <0>         0.1027
     33 H7         -2.7047   -2.4603   -0.0109 H         1 <0>         0.0565
     34 H8         -2.9535   -2.4788   -1.7733 H         1 <0>         0.0551
     35 H9         -2.3366   -3.9293   -0.9463 H         1 <0>         0.0470
     36 H10         0.0676   -3.9402   -0.0773 H         1 <0>         0.0752
     37 H11        -0.4478   -2.5661    0.9299 H         1 <0>         0.0745
     38 H12         0.7184   -0.4468   -1.9509 H         1 <0>         0.3937
     39 H13         0.4007    1.6803   -3.1099 H         1 <0>         0.0608
     40 H14         1.1455    3.1283   -2.3910 H         1 <0>         0.0871
     41 H15         2.6274    0.5153   -2.9208 H         1 <0>         0.0652
     42 H16         3.6357    1.6678   -4.8319 H         1 <0>         0.0490
     43 H17         1.8651    1.6745   -5.0144 H         1 <0>         0.0527
     44 H18         2.7091    3.1435   -4.4685 H         1 <0>         0.0543
     45 H19         3.5457    1.9108   -1.0883 H         1 <0>         0.0569
     46 H20         4.6269    1.9209   -2.5023 H         1 <0>         0.0472
     47 H21         3.5754    3.3195   -2.1759 H         1 <0>         0.0557
     48 H22         2.3769   -2.2279    1.7307 H         1 <0>         0.4171
     49 H23         3.4019   -6.5003    1.3747 H         1 <0>         0.0804
     50 H24         4.8723   -5.6953    0.7761 H         1 <0>         0.0801
     51 H25         6.7433   -5.2633    2.2582 H         1 <0>         0.1253
     52 H26         7.9425   -5.9342    4.3015 H         1 <0>         0.1251
     53 H27         6.7816   -7.2372    6.0386 H         1 <0>         0.1234
     54 H28         4.4192   -7.8624    5.7361 H         1 <0>         0.1251
     55 H29         3.2174   -7.1835    3.6970 H         1 <0>         0.1255
     56 O5         -0.5720    3.2521   -0.3364 O.co2     1 <0>        -0.7670
@<TRIPOS>BOND
     1    1    2 1
     2    1   29 1
     3    1   30 1
     4    1   31 1
     5    2    3 1
     6    2    4 1
     7    2   32 1
     8    3   33 1
     9    3   34 1
    10    3   35 1
    11    4    5 1
    12    4   36 1
    13    4   37 1
    14    5    6 1
    15    5    7 1
    16    5   18 1
    17    7    8 2
    18    7    9 am
    19    9   10 1
    20    9   38 1
    21   10   11 1
    22   10   12 1
    23   10   16 1
    24   12   13 1
    25   12   39 1
    26   12   40 1
    27   13   14 1
    28   13   15 1
    29   13   41 1
    30   14   42 1
    31   14   43 1
    32   14   44 1
    33   15   45 1
    34   15   46 1
    35   15   47 1
    36   16   17 2
    37   16   56 1
    38   18   19 am
    39   18   48 1
    40   19   20 2
    41   19   21 1
    42   21   22 1
    43   22   23 1
    44   22   49 1
    45   22   50 1
    46   23   28 ar
    47   23   24 ar
    48   24   25 ar
    49   24   51 1
    50   25   26 ar
    51   25   52 1
    52   26   27 ar
    53   26   53 1
    54   27   28 ar
    55   27   54 1
    56   28   55 1
@<TRIPOS>MOLECULE
ZINC03826241
   64    63     0     0     0
SMALL
USER_CHARGES

@<TRIPOS>ATOM
      1 C1         -0.9023    2.1143    0.2015 C.3       1 <0>        -0.1552
      2 C2         -0.5019    0.6439    0.3372 C.3       1 <0>        -0.1247
      3 C3         -1.7579   -0.2297    0.3263 C.3       1 <0>        -0.1202
      4 C4         -1.3576   -1.7002    0.4620 C.3       1 <0>        -0.1216
      5 C5         -2.6136   -2.5738    0.4511 C.3       1 <0>         0.0734
      6 H1         -3.1952   -2.3627   -0.4462 H         1 <0>         0.1237
      7 C6         -2.2148   -4.0270    0.4610 C.2       1 <0>         0.3279
      8 O1         -2.5694   -4.7443    1.3655 O.2       1 <0>        -0.4402
      9 N1         -3.4222   -2.2812    1.6372 N.am      1 <0>        -0.7103
     10 C7         -4.7499   -2.5122    1.6214 C.2       1 <0>         0.5236
     11 O2         -5.2843   -2.9091    0.6076 O.2       1 <0>        -0.5347
     12 C8         -5.5704   -2.2774    2.8634 C.3       1 <0>         0.1308
     13 H2         -5.3201   -1.3042    3.2857 H         1 <0>         0.1119
     14 C9         -5.2676   -3.3715    3.8892 C.3       1 <0>        -0.1165
     15 C10        -3.7900   -3.3082    4.2811 C.3       1 <0>        -0.1129
     16 C11        -3.5164   -2.0021    5.0297 C.3       1 <0>        -0.1559
     17 C12        -3.4509   -4.4949    5.1853 C.3       1 <0>        -0.1408
     18 N2         -6.9945   -2.3096    2.5212 N.am      1 <0>        -0.7188
     19 C13        -7.8949   -1.7125    3.3270 C.2       1 <0>         0.5055
     20 O3         -7.5196   -1.0732    4.2868 O.2       1 <0>        -0.5044
     21 C14        -9.3680   -1.8393    3.0353 C.3       1 <0>         0.1365
     22 H3         -9.5872   -2.8552    2.7067 H         1 <0>         0.1098
     23 C15        -9.7565   -0.8518    1.9331 C.3       1 <0>        -0.1291
     24 C16       -11.2342   -1.0353    1.5817 C.3       1 <0>        -0.0910
     25 C17       -11.6585    0.0431    0.5827 C.3       1 <0>        -0.1477
     26 C18       -11.4427   -2.4174    0.9594 C.3       1 <0>        -0.1522
     27 N3        -10.1334   -1.5427    4.2487 N.am      1 <0>        -0.7217
     28 C19       -10.0209   -0.3359    4.8383 C.2       1 <0>         0.5169
     29 O4         -9.2860    0.5044    4.3643 O.2       1 <0>        -0.5150
     30 C20       -10.8082   -0.0308    6.0865 C.3       1 <0>        -0.1698
     31 H4         -0.0075    2.7367    0.2092 H         1 <0>         0.0553
     32 H5         -1.4380    2.2600   -0.7365 H         1 <0>         0.0544
     33 H6         -1.5465    2.3939    1.0351 H         1 <0>         0.0541
     34 H7          0.1423    0.3643   -0.4964 H         1 <0>         0.0637
     35 H8          0.0339    0.4983    1.2752 H         1 <0>         0.0622
     36 H9         -2.4022    0.0498    1.1599 H         1 <0>         0.0643
     37 H10        -2.2937   -0.0841   -0.6117 H         1 <0>         0.0677
     38 H11        -0.7133   -1.9797   -0.3716 H         1 <0>         0.0908
     39 H12        -0.8218   -1.8458    1.4000 H         1 <0>         0.0746
     40 H13        -1.6118   -4.4270   -0.3408 H         1 <0>         0.1056
     41 H14        -3.0020   -1.9213    2.4340 H         1 <0>         0.4077
     42 H15        -5.8851   -3.2205    4.7746 H         1 <0>         0.0810
     43 H16        -5.4869   -4.3471    3.4553 H         1 <0>         0.0715
     44 H17        -3.1738   -3.3481    3.3829 H         1 <0>         0.0876
     45 H18        -4.0760   -1.9954    5.9651 H         1 <0>         0.0618
     46 H19        -2.4506   -1.9222    5.2434 H         1 <0>         0.0581
     47 H20        -3.8278   -1.1584    4.4139 H         1 <0>         0.0529
     48 H21        -3.6457   -5.4254    4.6520 H         1 <0>         0.0557
     49 H22        -2.3982   -4.4498    5.4646 H         1 <0>         0.0558
     50 H23        -4.0671   -4.4550    6.0836 H         1 <0>         0.0535
     51 H24        -7.2895   -2.7607    1.7147 H         1 <0>         0.4087
     52 H25        -9.5900    0.1670    2.2829 H         1 <0>         0.0936
     53 H26        -9.1470   -1.0364    1.0485 H         1 <0>         0.0743
     54 H27       -11.8362   -0.9496    2.4863 H         1 <0>         0.0716
     55 H28       -12.7303   -0.0332    0.3991 H         1 <0>         0.0556
     56 H29       -11.4290    1.0273    0.9911 H         1 <0>         0.0550
     57 H30       -11.1187   -0.0966   -0.3539 H         1 <0>         0.0552
     58 H31       -11.1404   -3.1856    1.6711 H         1 <0>         0.0531
     59 H32       -12.4954   -2.5481    0.7090 H         1 <0>         0.0567
     60 H33       -10.8407   -2.5031    0.0547 H         1 <0>         0.0572
     61 H34       -10.7211   -2.2148    4.6279 H         1 <0>         0.4040
     62 H35       -11.4071   -0.8996    6.3598 H         1 <0>         0.0728
     63 H36       -10.1224    0.2080    6.8994 H         1 <0>         0.0939
     64 H37       -11.4646    0.8198    5.9032 H         1 <0>         0.0926
@<TRIPOS>BOND
     1    1    2 1
     2    1   31 1
     3    1   32 1
     4    1   33 1
     5    2    3 1
     6    2   34 1
     7    2   35 1
     8    3    4 1
     9    3   36 1
    10    3   37 1
    11    4    5 1
    12    4   38 1
    13    4   39 1
    14    5    6 1
    15    5    7 1
    16    5    9 1
    17    7    8 2
    18    7   40 1
    19    9   10 am
    20    9   41 1
    21   10   11 2
    22   10   12 1
    23   12   13 1
    24   12   14 1
    25   12   18 1
    26   14   15 1
    27   14   42 1
    28   14   43 1
    29   15   16 1
    30   15   17 1
    31   15   44 1
    32   16   45 1
    33   16   46 1
    34   16   47 1
    35   17   48 1
    36   17   49 1
    37   17   50 1
    38   18   19 am
    39   18   51 1
    40   19   20 2
    41   19   21 1
    42   21   22 1
    43   21   23 1
    44   21   27 1
    45   23   24 1
    46   23   52 1
    47   23   53 1
    48   24   25 1
    49   24   26 1
    50   24   54 1
    51   25   55 1
    52   25   56 1
    53   25   57 1
    54   26   58 1
    55   26   59 1
    56   26   60 1
    57   27   28 am
    58   27   61 1
    59   28   29 2
    60   28   30 1
    61   30   62 1
    62   30   63 1
    63   30   64 1
@<TRIPOS>MOLECULE
ZINC06070256
   51    53     0     0     0
SMALL
USER_CHARGES

@<TRIPOS>ATOM
      1 C1         -0.2587    1.2802    1.1676 C.3       1 <0>        -0.1175
      2 C2         -0.2190   -0.2129    0.9677 C.ar      1 <0>        -0.0689
      3 C3         -0.2256   -0.7370   -0.3133 C.ar      1 <0>        -0.0864
      4 C4         -0.1655   -2.0958   -0.5035 C.ar      1 <0>        -0.1225
      5 C5         -0.0427   -2.9502    0.6076 C.ar      1 <0>         0.0643
      6 C6         -0.0926   -2.4270    1.8857 C.ar      1 <0>         0.1161
      7 C7         -0.1704   -1.0532    2.0647 C.ar      1 <0>        -0.1204
      8 O1         -0.0607   -3.2551    2.9639 O.3       1 <0>        -0.4873
      9 O2          0.2621   -4.2547    0.3629 O.3       1 <0>        -0.2538
     10 C8         -0.6437   -4.9957   -0.3247 C.ar      1 <0>         0.1306
     11 C9         -1.7938   -5.4803    0.2686 C.ar      1 <0>        -0.1280
     12 C10        -2.6875   -6.2316   -0.4748 C.ar      1 <0>        -0.0594
     13 C11        -2.4469   -6.5068   -1.8084 C.ar      1 <0>        -0.1370
     14 C12        -1.2974   -6.0296   -2.4251 C.ar      1 <0>         0.1691
     15 C13        -0.3944   -5.2721   -1.6808 C.ar      1 <0>        -0.2078
     16 C14         0.8503   -4.7230   -2.2698 C.2       1 <0>         0.5393
     17 O3          1.7151   -5.4277   -2.7522 O.2       1 <0>        -0.4336
     18 O4          0.9468   -3.3571   -2.2267 O.3       1 <0>        -0.3204
     19 C15        -0.2957   -2.7221   -1.8702 C.3       1 <0>         0.0813
     20 O5         -1.0569   -6.2970   -3.7330 O.3       1 <0>        -0.3295
     21 C16        -0.3431   -7.4991   -4.0289 C.3       1 <0>         0.0309
     22 C17        -3.4359   -7.3272   -2.5959 C.3       1 <0>         0.1499
     23 H1         -2.9025   -7.9403   -3.3224 H         1 <0>         0.1165
     24 C18        -4.4035   -6.3950   -3.3278 C.3       1 <0>        -0.1405
     25 C19        -5.3585   -7.2248   -4.1882 C.3       1 <0>        -0.0930
     26 C20        -6.4039   -6.3049   -4.8220 C.3       1 <0>        -0.1485
     27 C21        -4.5675   -7.9331   -5.2899 C.3       1 <0>        -0.1504
     28 O6         -4.1691   -8.1719   -1.7066 O.3       1 <0>        -0.5486
     29 H2          0.7588    1.6705    1.1934 H         1 <0>         0.0781
     30 H3         -0.8043    1.7425    0.3450 H         1 <0>         0.0728
     31 H4         -0.7591    1.5077    2.1088 H         1 <0>         0.0723
     32 H5         -0.2786   -0.0757   -1.1655 H         1 <0>         0.1386
     33 H6         -0.1973   -0.6400    3.0622 H         1 <0>         0.1428
     34 H7          0.8303   -3.4433    3.2891 H         1 <0>         0.3961
     35 H8         -1.9946   -5.2737    1.3094 H         1 <0>         0.1493
     36 H9         -3.5853   -6.6077   -0.0070 H         1 <0>         0.1437
     37 H10        -1.0925   -3.4657   -1.8548 H         1 <0>         0.0979
     38 H11        -0.5327   -1.9504   -2.6026 H         1 <0>         0.1157
     39 H12        -0.1324   -7.5429   -5.0974 H         1 <0>         0.1038
     40 H13         0.5944   -7.5111   -3.4729 H         1 <0>         0.0631
     41 H14        -0.9468   -8.3601   -3.7420 H         1 <0>         0.0524
     42 H15        -4.9763   -5.8213   -2.5992 H         1 <0>         0.0680
     43 H16        -3.8397   -5.7135   -3.9648 H         1 <0>         0.0794
     44 H17        -5.8575   -7.9668   -3.5649 H         1 <0>         0.0780
     45 H18        -5.9049   -5.5629   -5.4453 H         1 <0>         0.0543
     46 H19        -7.0843   -6.8960   -5.4349 H         1 <0>         0.0565
     47 H20        -6.9674   -5.8003   -4.0371 H         1 <0>         0.0533
     48 H21        -5.2479   -8.5243   -5.9029 H         1 <0>         0.0557
     49 H22        -4.0685   -7.1911   -5.9132 H         1 <0>         0.0556
     50 H23        -3.8227   -8.5885   -4.8384 H         1 <0>         0.0545
     51 H24        -4.6691   -7.6928   -1.0317 H         1 <0>         0.3737
@<TRIPOS>BOND
     1    1    2 1
     2    1   29 1
     3    1   30 1
     4    1   31 1
     5    2    7 ar
     6    2    3 ar
     7    3    4 ar
     8    3   32 1
     9    4   19 1
    10    4    5 ar
    11    5    6 ar
    12    5    9 1
    13    6    7 ar
    14    6    8 1
    15    7   33 1
    16    8   34 1
    17    9   10 1
    18   10   15 ar
    19   10   11 ar
    20   11   12 ar
    21   11   35 1
    22   12   13 ar
    23   12   36 1
    24   13   14 ar
    25   13   22 1
    26   14   15 ar
    27   14   20 1
    28   15   16 1
    29   16   17 2
    30   16   18 1
    31   18   19 1
    32   19   37 1
    33   19   38 1
    34   20   21 1
    35   21   39 1
    36   21   40 1
    37   21   41 1
    38   22   23 1
    39   22   24 1
    40   22   28 1
    41   24   25 1
    42   24   42 1
    43   24   43 1
    44   25   26 1
    45   25   27 1
    46   25   44 1
    47   26   45 1
    48   26   46 1
    49   26   47 1
    50   27   48 1
    51   27   49 1
    52   27   50 1
    53   28   51 1
@<TRIPOS>MOLECULE
ZINC00006651
   19    19     0     0     0
SMALL
USER_CHARGES
3-(4-iodophenyl)-2-sulfanyl-prop-2-enoic acid
@<TRIPOS>ATOM
      1 C1         -2.5023    1.2653    0.0049 C.ar      1 <0>        -0.0522
      2 C2         -3.7252    1.9005   -0.0331 C.ar      1 <0>        -0.0949
      3 C3         -3.7900    3.2808   -0.1234 C.ar      1 <0>        -0.0924
      4 C4         -2.6289    4.0341   -0.1698 C.ar      1 <0>        -0.0981
      5 C5         -1.3985    3.4138   -0.1270 C.ar      1 <0>        -0.1098
      6 C6         -1.3248    2.0197   -0.0363 C.ar      1 <0>        -0.0482
      7 C7         -0.0163    1.3502    0.0095 C.3       1 <0>        -0.1049
      8 C8          0.1379    0.2131    0.7290 C.2       1 <0>         0.1432
      9 C9          1.3924   -0.5470    0.6420 C.2       1 <0>         0.4544
     10 O1          2.2919   -0.1553   -0.0759 O.co2     1 <0>        -0.6080
     11 S1         -1.1659   -0.3546    1.7695 S.2       1 <0>        -0.5032
     12 I1         -5.6541    4.2345   -0.1893 I         1 <0>        -0.0602
     13 H1         -2.4534    0.1884    0.0704 H         1 <0>         0.1550
     14 H2         -4.6351    1.3198    0.0030 H         1 <0>         0.1277
     15 H3         -2.6875    5.1102   -0.2402 H         1 <0>         0.1261
     16 H4         -0.4938    4.0026   -0.1636 H         1 <0>         0.1292
     17 H5          0.8207    1.7628   -0.5343 H         1 <0>         0.1717
     18 H6          0.5160    1.7108    0.7754 H         1 <0>         0.1420
     19 O2          1.5459   -1.6792    1.3584 O.co2     1 <0>        -0.6773
@<TRIPOS>BOND
     1    1    6 ar
     2    1    2 ar
     3    1   13 1
     4    2    3 ar
     5    2   14 1
     6    3    4 ar
     7    3   12 1
     8    4    5 ar
     9    4   15 1
    10    5    6 ar
    11    5   16 1
    12    6    7 1
    13    7   17 1
    14    7   18 1
    15    7    8 1
    16    8    9 1
    17    8   11 2
    18    9   10 2
    19    9   19 1
@<TRIPOS>MOLECULE
ZINC00018551
   33    34     0     0     0
SMALL
USER_CHARGES
6-benzyl-3-isopropyl-1H-pyrazin-2-one
@<TRIPOS>ATOM
      1 C1         -3.7930    1.7592    5.1008 C.3       1 <0>        -0.1335
      2 C2         -2.7515    2.8119    4.7158 C.3       1 <0>        -0.0269
      3 C3         -1.7503    2.9812    5.8603 C.3       1 <0>        -0.1457
      4 C4         -2.0237    2.3675    3.4733 C.2       1 <0>         0.0657
      5 C5         -1.0819    3.2246    2.8592 C.2       1 <0>         0.4845
      6 O1         -0.8512    4.3269    3.3278 O.2       1 <0>        -0.5259
      7 N1         -0.4369    2.8034    1.7499 N.am      1 <0>        -0.5915
      8 H1          0.2389    3.3900    1.3035 H         1 <0>         0.4224
      9 C6         -0.7181    1.5718    1.2479 C.2       1 <0>         0.1291
     10 C7         -1.6281    0.7777    1.8642 C.2       1 <0>        -0.0399
     11 N2         -2.2619    1.1860    2.9601 N.2       1 <0>        -0.3879
     12 C8         -0.0127    1.0858    0.0080 C.3       1 <0>        -0.0472
     13 C9         -0.7416    1.5850   -1.2129 C.ar      1 <0>        -0.0939
     14 C10        -1.7499    0.8246   -1.7750 C.ar      1 <0>        -0.1061
     15 C11        -2.4217    1.2848   -2.8921 C.ar      1 <0>        -0.1158
     16 C12        -2.0785    2.5007   -3.4529 C.ar      1 <0>        -0.1149
     17 C13        -1.0663    3.2585   -2.8942 C.ar      1 <0>        -0.1163
     18 C14        -0.3980    2.8008   -1.7740 C.ar      1 <0>        -0.1154
     19 H2         -3.2952    0.8085    5.2917 H         1 <0>         0.0622
     20 H3         -4.3194    2.0806    5.9995 H         1 <0>         0.0574
     21 H4         -4.5062    1.6386    4.2854 H         1 <0>         0.0580
     22 H5         -3.2493    3.7626    4.5249 H         1 <0>         0.0916
     23 H6         -1.0084    3.7311    5.5861 H         1 <0>         0.0668
     24 H7         -2.2768    3.3026    6.7590 H         1 <0>         0.0660
     25 H8         -1.2526    2.0305    6.0512 H         1 <0>         0.0535
     26 H9         -1.8413   -0.2007    1.4595 H         1 <0>         0.1726
     27 H10         0.0021   -0.0041    0.0020 H         1 <0>         0.1124
     28 H11         1.0099    1.4631    0.0003 H         1 <0>         0.0960
     29 H12        -2.0153   -0.1273   -1.3392 H         1 <0>         0.1268
     30 H13        -3.2122    0.6925   -3.3288 H         1 <0>         0.1263
     31 H14        -2.6009    2.8585   -4.3278 H         1 <0>         0.1247
     32 H15        -0.7979    4.2083   -3.3326 H         1 <0>         0.1250
     33 H16         0.3927    3.3928   -1.3375 H         1 <0>         0.1199
@<TRIPOS>BOND
     1    1    2 1
     2    1   19 1
     3    1   20 1
     4    1   21 1
     5    2    3 1
     6    2    4 1
     7    2   22 1
     8    3   23 1
     9    3   24 1
    10    3   25 1
    11    4   11 2
    12    4    5 1
    13    5    6 2
    14    5    7 am
    15    7    8 1
    16    7    9 1
    17    9   10 2
    18    9   12 1
    19   10   11 1
    20   10   26 1
    21   12   13 1
    22   12   27 1
    23   12   28 1
    24   13   18 ar
    25   13   14 ar
    26   14   15 ar
    27   14   29 1
    28   15   16 ar
    29   15   30 1
    30   16   17 ar
    31   16   31 1
    32   17   18 ar
    33   17   32 1
    34   18   33 1
@<TRIPOS>MOLECULE
ZINC01534489
   54    55     0     0     0
SMALL
USER_CHARGES

@<TRIPOS>ATOM
      1 C1         -0.0187    1.5258    0.0104 C.3       1 <0>        -0.1390
      2 C2          0.0021   -0.0041    0.0020 C.3       1 <0>        -0.1008
      3 C3          0.7421   -0.5109    1.2415 C.3       1 <0>        -0.1480
      4 C4         -1.4333   -0.5336    0.0129 C.3       1 <0>         0.1516
      5 H1         -1.9605   -0.1726   -0.8702 H         1 <0>         0.1198
      6 C5         -1.4129   -2.0405    0.0046 C.2       1 <0>         0.5252
      7 O1         -1.9211   -2.6589    0.9158 O.2       1 <0>        -0.5300
      8 N1         -0.8299   -2.7009   -1.0154 N.am      1 <0>        -0.7064
      9 C6         -0.8100   -4.1658   -1.0235 C.3       1 <0>         0.0836
     10 H2         -0.7057   -4.5333   -0.0026 H         1 <0>         0.1247
     11 C7          0.3705   -4.6552   -1.8648 C.3       1 <0>        -0.0815
     12 C8          1.6618   -4.2426   -1.2065 C.ar      1 <0>        -0.0862
     13 C9          2.2373   -3.0246   -1.5166 C.ar      1 <0>        -0.1116
     14 C10         3.4218   -2.6461   -0.9128 C.ar      1 <0>        -0.1146
     15 C11         4.0305   -3.4854    0.0015 C.ar      1 <0>        -0.1185
     16 C12         3.4545   -4.7030    0.3123 C.ar      1 <0>        -0.1159
     17 C13         2.2678   -5.0796   -0.2883 C.ar      1 <0>        -0.1128
     18 C14        -2.0964   -4.6824   -1.6145 C.2       1 <0>         0.3287
     19 O2         -2.9425   -3.9069   -1.9901 O.2       1 <0>        -0.4403
     20 N2         -2.1190   -0.0612    1.2182 N.am      1 <0>        -0.6893
     21 C15        -2.7041    1.1529    1.2285 C.2       1 <0>         0.6538
     22 O3         -2.6628    1.8557    0.2381 O.2       1 <0>        -0.5648
     23 O4         -3.3343    1.5871    2.3362 O.3       1 <0>        -0.3574
     24 C16        -3.9321    2.8837    2.2764 C.3       1 <0>         0.1293
     25 C17        -4.5858    3.1969    3.5977 C.ar      1 <0>        -0.1011
     26 C18        -5.9050    2.8467    3.8163 C.ar      1 <0>        -0.0930
     27 C19        -6.5046    3.1340    5.0283 C.ar      1 <0>        -0.1232
     28 C20        -5.7848    3.7710    6.0217 C.ar      1 <0>        -0.1073
     29 C21        -4.4653    4.1204    5.8034 C.ar      1 <0>        -0.1236
     30 C22        -3.8644    3.8293    4.5930 C.ar      1 <0>        -0.0934
     31 H3          1.0039    1.9031    0.0027 H         1 <0>         0.0544
     32 H4         -0.5459    1.8868   -0.8726 H         1 <0>         0.0676
     33 H5         -0.5289    1.8773    0.9072 H         1 <0>         0.0542
     34 H6          0.5123   -0.3556   -0.8948 H         1 <0>         0.0847
     35 H7          0.2319   -0.1594    2.1383 H         1 <0>         0.0578
     36 H8          0.7568   -1.6008    1.2356 H         1 <0>         0.0552
     37 H9          1.7647   -0.1336    1.2338 H         1 <0>         0.0621
     38 H10        -0.4234   -2.2064   -1.7442 H         1 <0>         0.4047
     39 H11         0.3342   -5.7417   -1.9444 H         1 <0>         0.1008
     40 H12         0.3138   -4.2158   -2.8607 H         1 <0>         0.0856
     41 H13         1.7618   -2.3689   -2.2310 H         1 <0>         0.1178
     42 H14         3.8718   -1.6949   -1.1556 H         1 <0>         0.1221
     43 H15         4.9563   -3.1900    0.4727 H         1 <0>         0.1212
     44 H16         3.9302   -5.3588    1.0264 H         1 <0>         0.1224
     45 H17         1.8158   -6.0292   -0.0427 H         1 <0>         0.1232
     46 H18        -2.2617   -5.7460   -1.7020 H         1 <0>         0.1077
     47 H19        -2.1520   -0.6222    2.0088 H         1 <0>         0.4163
     48 H20        -3.1646    3.6283    2.0653 H         1 <0>         0.0787
     49 H21        -4.6828    2.9016    1.4864 H         1 <0>         0.0787
     50 H22        -6.4674    2.3490    3.0402 H         1 <0>         0.1249
     51 H23        -7.5355    2.8610    5.1989 H         1 <0>         0.1263
     52 H24        -6.2535    3.9961    6.9684 H         1 <0>         0.1252
     53 H25        -3.9031    4.6184    6.5795 H         1 <0>         0.1262
     54 H26        -2.8324    4.0989    4.4238 H         1 <0>         0.1246
@<TRIPOS>BOND
     1    1    2 1
     2    1   31 1
     3    1   32 1
     4    1   33 1
     5    2    3 1
     6    2    4 1
     7    2   34 1
     8    3   35 1
     9    3   36 1
    10    3   37 1
    11    4    5 1
    12    4    6 1
    13    4   20 1
    14    6    7 2
    15    6    8 am
    16    8    9 1
    17    8   38 1
    18    9   10 1
    19    9   11 1
    20    9   18 1
    21   11   12 1
    22   11   39 1
    23   11   40 1
    24   12   17 ar
    25   12   13 ar
    26   13   14 ar
    27   13   41 1
    28   14   15 ar
    29   14   42 1
    30   15   16 ar
    31   15   43 1
    32   16   17 ar
    33   16   44 1
    34   17   45 1
    35   18   19 2
    36   18   46 1
    37   20   21 am
    38   20   47 1
    39   21   22 2
    40   21   23 1
    41   23   24 1
    42   24   25 1
    43   24   48 1
    44   24   49 1
    45   25   30 ar
    46   25   26 ar
    47   26   27 ar
    48   26   50 1
    49   27   28 ar
    50   27   51 1
    51   28   29 ar
    52   28   52 1
    53   29   30 ar
    54   29   53 1
    55   30   54 1
@<TRIPOS>MOLECULE
ZINC01996112
   54    55     0     0     0
SMALL
USER_CHARGES

@<TRIPOS>ATOM
      1 C1         -0.0187    1.5258    0.0104 C.3       1 <0>        -0.1388
      2 C2          0.0021   -0.0041    0.0020 C.3       1 <0>        -0.1007
      3 C3          0.7421   -0.5109    1.2415 C.3       1 <0>        -0.1535
      4 C4         -1.4333   -0.5336    0.0129 C.3       1 <0>         0.1524
      5 H1         -1.9605   -0.1726   -0.8702 H         1 <0>         0.1187
      6 C5         -1.4129   -2.0405    0.0046 C.2       1 <0>         0.5248
      7 O1         -1.9211   -2.6589    0.9158 O.2       1 <0>        -0.5301
      8 N1         -0.8299   -2.7009   -1.0154 N.am      1 <0>        -0.7063
      9 C6         -0.8100   -4.1658   -1.0235 C.3       1 <0>         0.0832
     10 H2         -1.7322   -4.5441   -0.5824 H         1 <0>         0.1242
     11 C7         -0.6911   -4.6663   -2.4644 C.3       1 <0>        -0.0809
     12 C8         -1.9279   -4.2801   -3.2340 C.ar      1 <0>        -0.0874
     13 C9         -3.0158   -5.1323   -3.2666 C.ar      1 <0>        -0.1131
     14 C10        -4.1503   -4.7781   -3.9726 C.ar      1 <0>        -0.1162
     15 C11        -4.1970   -3.5714   -4.6455 C.ar      1 <0>        -0.1189
     16 C12        -3.1095   -2.7188   -4.6120 C.ar      1 <0>        -0.1162
     17 C13        -1.9766   -3.0712   -3.9026 C.ar      1 <0>        -0.1133
     18 C14         0.3683   -4.6566   -0.2224 C.2       1 <0>         0.3291
     19 O2          1.1145   -3.8645    0.3013 O.2       1 <0>        -0.4383
     20 N2         -2.1190   -0.0612    1.2182 N.am      1 <0>        -0.6893
     21 C15        -2.7041    1.1529    1.2285 C.2       1 <0>         0.6538
     22 O3         -2.6628    1.8557    0.2381 O.2       1 <0>        -0.5654
     23 O4         -3.3343    1.5871    2.3362 O.3       1 <0>        -0.3574
     24 C16        -3.9321    2.8837    2.2764 C.3       1 <0>         0.1295
     25 C17        -4.5858    3.1969    3.5977 C.ar      1 <0>        -0.1012
     26 C18        -5.9050    2.8467    3.8163 C.ar      1 <0>        -0.0931
     27 C19        -6.5046    3.1340    5.0283 C.ar      1 <0>        -0.1233
     28 C20        -5.7848    3.7710    6.0217 C.ar      1 <0>        -0.1072
     29 C21        -4.4653    4.1204    5.8034 C.ar      1 <0>        -0.1235
     30 C22        -3.8644    3.8293    4.5930 C.ar      1 <0>        -0.0932
     31 H3          1.0039    1.9031    0.0027 H         1 <0>         0.0544
     32 H4         -0.5459    1.8868   -0.8726 H         1 <0>         0.0668
     33 H5         -0.5289    1.8773    0.9072 H         1 <0>         0.0537
     34 H6          0.5123   -0.3556   -0.8948 H         1 <0>         0.0845
     35 H7          0.2319   -0.1594    2.1383 H         1 <0>         0.0554
     36 H8          0.7568   -1.6008    1.2356 H         1 <0>         0.0664
     37 H9          1.7647   -0.1336    1.2338 H         1 <0>         0.0605
     38 H10        -0.4234   -2.2064   -1.7442 H         1 <0>         0.4047
     39 H11         0.1840   -4.2172   -2.9340 H         1 <0>         0.0856
     40 H12        -0.5870   -5.7513   -2.4647 H         1 <0>         0.1008
     41 H13        -2.9793   -6.0750   -2.7409 H         1 <0>         0.1238
     42 H14        -5.0000   -5.4442   -3.9987 H         1 <0>         0.1231
     43 H15        -5.0831   -3.2950   -5.1976 H         1 <0>         0.1221
     44 H16        -3.1458   -1.7763   -5.1380 H         1 <0>         0.1231
     45 H17        -1.1283   -2.4034   -3.8734 H         1 <0>         0.1188
     46 H18         0.5454   -5.7167   -0.1165 H         1 <0>         0.1071
     47 H19        -2.1520   -0.6222    2.0088 H         1 <0>         0.4165
     48 H20        -3.1646    3.6283    2.0653 H         1 <0>         0.0787
     49 H21        -4.6828    2.9016    1.4864 H         1 <0>         0.0785
     50 H22        -6.4674    2.3490    3.0402 H         1 <0>         0.1247
     51 H23        -7.5355    2.8610    5.1989 H         1 <0>         0.1263
     52 H24        -6.2535    3.9961    6.9684 H         1 <0>         0.1252
     53 H25        -3.9031    4.6184    6.5795 H         1 <0>         0.1263
     54 H26        -2.8324    4.0989    4.4238 H         1 <0>         0.1247
@<TRIPOS>BOND
     1    1    2 1
     2    1   31 1
     3    1   32 1
     4    1   33 1
     5    2    3 1
     6    2    4 1
     7    2   34 1
     8    3   35 1
     9    3   36 1
    10    3   37 1
    11    4    5 1
    12    4    6 1
    13    4   20 1
    14    6    7 2
    15    6    8 am
    16    8    9 1
    17    8   38 1
    18    9   10 1
    19    9   11 1
    20    9   18 1
    21   11   12 1
    22   11   39 1
    23   11   40 1
    24   12   17 ar
    25   12   13 ar
    26   13   14 ar
    27   13   41 1
    28   14   15 ar
    29   14   42 1
    30   15   16 ar
    31   15   43 1
    32   16   17 ar
    33   16   44 1
    34   17   45 1
    35   18   19 2
    36   18   46 1
    37   20   21 am
    38   20   47 1
    39   21   22 2
    40   21   23 1
    41   23   24 1
    42   24   25 1
    43   24   48 1
    44   24   49 1
    45   25   30 ar
    46   25   26 ar
    47   26   27 ar
    48   26   50 1
    49   27   28 ar
    50   27   51 1
    51   28   29 ar
    52   28   52 1
    53   29   30 ar
    54   29   53 1
    55   30   54 1
