@<TRIPOS>MOLECULE
ZINC22443609
   93    95     0     0     0
SMALL
USER_CHARGES

@<TRIPOS>ATOM
      1 C1         -0.0167    1.3781    0.0096 C.ar      1 <0>        -0.0955
      2 C2          1.1709    2.0855    0.0021 C.ar      1 <0>        -0.0934
      3 C3          2.3773    1.4107   -0.0130 C.ar      1 <0>        -0.1579
      4 C4          2.3960    0.0285   -0.0201 C.ar      1 <0>        -0.0881
      5 C5          1.2085   -0.6789   -0.0117 C.ar      1 <0>        -0.1026
      6 C6          0.0021   -0.0041    0.0020 C.ar      1 <0>        -0.0409
      7 C7         -1.2926   -0.7753    0.0107 C.3       1 <0>         0.0794
      8 N1         -1.7270   -1.0184   -1.3714 N.3       1 <0>        -0.5332
      9 C8         -3.0940   -1.5550   -1.4069 C.3       1 <0>         0.0419
     10 C9         -4.0830   -0.4150   -1.6584 C.3       1 <0>        -0.1436
     11 C10        -5.0537   -0.8180   -2.7703 C.3       1 <0>        -0.0140
     12 N2         -5.1326    0.2595   -3.7657 N.4       1 <0>        -0.5101
     13 C11        -5.0625   -0.3152   -5.1158 C.3       1 <0>        -0.0297
     14 C12        -4.1553    0.5507   -5.9922 C.3       1 <0>         0.0341
     15 N3         -3.2191   -0.3097   -6.7280 N.3       1 <0>        -0.6789
     16 C13        -1.8495    0.2160   -6.6512 C.3       1 <0>         0.0531
     17 C14        -0.8820   -0.9260   -6.3339 C.3       1 <0>        -0.1537
     18 C15         0.0784   -0.4878   -5.2264 C.3       1 <0>         0.0588
     19 N4          0.2449   -1.5826   -4.2612 N.3       1 <0>        -0.6897
     20 C16         0.1998   -1.0797   -2.8817 C.3       1 <0>         0.0645
     21 C17        -0.7922   -1.9127   -2.0674 C.3       1 <0>         0.0274
     22 C18         3.6720    2.1819   -0.0222 C.3       1 <0>         0.0393
     23 N5          4.1064    2.4260    1.3597 N.4       1 <0>        -0.3837
     24 C19         5.3024    3.2789    1.3536 C.3       1 <0>        -0.0180
     25 C20         4.9021    4.7209    1.6718 C.3       1 <0>        -0.1456
     26 C21         5.8648    5.3001    2.7104 C.3       1 <0>         0.0482
     27 N6          5.0965    5.8947    3.8123 N.3       1 <0>        -0.6955
     28 C22         5.6432    5.4892    5.1141 C.3       1 <0>         0.0265
     29 C23         4.4949    5.1429    6.0640 C.3       1 <0>        -0.0150
     30 N7          4.7901    3.8769    6.7481 N.4       1 <0>        -0.5116
     31 C24         3.5977    3.0191    6.7267 C.3       1 <0>        -0.0134
     32 C25         3.9997    1.5968    6.3313 C.3       1 <0>        -0.1659
     33 C26         3.0177    1.0608    5.2876 C.3       1 <0>         0.0514
     34 N8          3.7600    0.3607    4.2308 N.3       1 <0>        -0.6768
     35 C27         3.2528    0.7253    2.9012 C.3       1 <0>         0.0395
     36 C28         4.4213    1.1457    2.0074 C.3       1 <0>        -0.0361
     37 H1         -0.9591    1.9053    0.0259 H         1 <0>         0.1319
     38 H2          1.1563    3.1654    0.0076 H         1 <0>         0.1299
     39 H3          3.3385   -0.4987   -0.0326 H         1 <0>         0.1322
     40 H4          1.2231   -1.7588   -0.0179 H         1 <0>         0.1341
     41 H5         -1.1443   -1.7285    0.5180 H         1 <0>         0.0599
     42 H6         -2.0551   -0.1993    0.5352 H         1 <0>         0.0917
     43 H7         -3.1753   -2.2898   -2.2079 H         1 <0>         0.0812
     44 H8         -3.3226   -2.0305   -0.4531 H         1 <0>         0.0694
     45 H9         -4.6415   -0.2103   -0.7450 H         1 <0>         0.1006
     46 H10        -3.5375    0.4796   -1.9589 H         1 <0>         0.0957
     47 H11        -4.6987   -1.7302   -3.2496 H         1 <0>         0.1306
     48 H12        -6.0419   -0.9922   -2.3444 H         1 <0>         0.1392
     49 H13        -6.0044    0.7555   -3.6561 H         1 <0>         0.4356
     50 H14        -4.6572   -1.3255   -5.0601 H         1 <0>         0.1309
     51 H15        -6.0622   -0.3481   -5.5490 H         1 <0>         0.1464
     52 H16        -4.7636    1.1141   -6.6997 H         1 <0>         0.1116
     53 H17        -3.5951    1.2425   -5.3631 H         1 <0>         0.0652
     54 H18        -3.2610   -1.2601   -6.3918 H         1 <0>         0.3463
     55 H19        -1.5792    0.6664   -7.6063 H         1 <0>         0.0891
     56 H20        -1.7930    0.9691   -5.8653 H         1 <0>         0.0515
     57 H21        -1.4455   -1.7981   -6.0022 H         1 <0>         0.0687
     58 H22        -0.3133   -1.1796   -7.2286 H         1 <0>         0.0879
     59 H23         1.0456   -0.2374   -5.6622 H         1 <0>         0.0781
     60 H24        -0.3282    0.3863   -4.7177 H         1 <0>         0.0452
     61 H25        -0.4479   -2.3016   -4.4068 H         1 <0>         0.3406
     62 H26         1.1909   -1.1557   -2.4347 H         1 <0>         0.0703
     63 H27        -0.1182   -0.0371   -2.8853 H         1 <0>         0.0622
     64 H28        -0.2494   -2.5114   -1.3360 H         1 <0>         0.0599
     65 H29        -1.3481   -2.5708   -2.7352 H         1 <0>         0.0755
     66 H30         4.4344    1.6056   -0.5463 H         1 <0>         0.1407
     67 H31         3.5237    3.1349   -0.5302 H         1 <0>         0.1396
     68 H32         6.0064    2.9229    2.1057 H         1 <0>         0.1280
     69 H33         5.7710    3.2405    0.3702 H         1 <0>         0.1401
     70 H34         4.9462    5.3195    0.7619 H         1 <0>         0.1052
     71 H35         3.8870    4.7371    2.0685 H         1 <0>         0.0959
     72 H36         6.5014    4.5051    3.0988 H         1 <0>         0.0754
     73 H37         6.4841    6.0665    2.2443 H         1 <0>         0.0782
     74 H38         5.0655    6.8999    3.7304 H         1 <0>         0.3734
     75 H39         6.2826    4.6161    4.9836 H         1 <0>         0.0836
     76 H40         6.2275    6.3081    5.5338 H         1 <0>         0.0910
     77 H41         4.3819    5.9370    6.8021 H         1 <0>         0.1404
     78 H42         3.5707    5.0415    5.4950 H         1 <0>         0.1408
     79 H43         5.5496    3.4090    6.2766 H         1 <0>         0.4191
     80 H44         3.1419    3.0059    7.7167 H         1 <0>         0.1435
     81 H45         2.8825    3.4092    6.0026 H         1 <0>         0.1318
     82 H46         5.0058    1.6069    5.9120 H         1 <0>         0.0851
     83 H47         3.9796    0.9553    7.2123 H         1 <0>         0.1162
     84 H48         2.3235    0.3684    5.7638 H         1 <0>         0.1015
     85 H49         2.4615    1.8909    4.8520 H         1 <0>         0.0580
     86 H50         4.7498    0.5429    4.3028 H         1 <0>         0.3465
     87 H51         2.7463   -0.1320    2.4579 H         1 <0>         0.1138
     88 H52         2.5507    1.5538    2.9948 H         1 <0>         0.0700
     89 H53         4.5880    0.3843    1.2454 H         1 <0>         0.1424
     90 H54         5.3206    1.2565    2.6132 H         1 <0>         0.1293
     91 H55         3.3670    2.8873    1.8682 H         1 <0>         0.4166
     92 H56        -4.3631    0.8982   -3.6317 H         1 <0>         0.4218
     93 H57         5.0524    4.0644    7.7042 H         1 <0>         0.4398
@<TRIPOS>BOND
     1    1    6 ar
     2    1    2 ar
     3    1   37 1
     4    2    3 ar
     5    2   38 1
     6    3    4 ar
     7    3   22 1
     8    4    5 ar
     9    4   39 1
    10    5    6 ar
    11    5   40 1
    12    6    7 1
    13    7    8 1
    14    7   41 1
    15    7   42 1
    16    8   21 1
    17    8    9 1
    18    9   10 1
    19    9   43 1
    20    9   44 1
    21   10   11 1
    22   10   45 1
    23   10   46 1
    24   11   12 1
    25   11   47 1
    26   11   48 1
    27   12   13 1
    28   12   49 1
    29   12   92 1
    30   13   14 1
    31   13   50 1
    32   13   51 1
    33   14   15 1
    34   14   52 1
    35   14   53 1
    36   15   16 1
    37   15   54 1
    38   16   17 1
    39   16   55 1
    40   16   56 1
    41   17   18 1
    42   17   57 1
    43   17   58 1
    44   18   19 1
    45   18   59 1
    46   18   60 1
    47   19   20 1
    48   19   61 1
    49   20   21 1
    50   20   62 1
    51   20   63 1
    52   21   64 1
    53   21   65 1
    54   22   23 1
    55   22   66 1
    56   22   67 1
    57   23   36 1
    58   23   24 1
    59   23   91 1
    60   24   25 1
    61   24   68 1
    62   24   69 1
    63   25   26 1
    64   25   70 1
    65   25   71 1
    66   26   27 1
    67   26   72 1
    68   26   73 1
    69   27   28 1
    70   27   74 1
    71   28   29 1
    72   28   75 1
    73   28   76 1
    74   29   30 1
    75   29   77 1
    76   29   78 1
    77   30   31 1
    78   30   79 1
    79   30   93 1
    80   31   32 1
    81   31   80 1
    82   31   81 1
    83   32   33 1
    84   32   82 1
    85   32   83 1
    86   33   34 1
    87   33   84 1
    88   33   85 1
    89   34   35 1
    90   34   86 1
    91   35   36 1
    92   35   87 1
    93   35   88 1
    94   36   89 1
    95   36   90 1
@<TRIPOS>MOLECULE
ZINC53276053
   63    66     0     0     0
SMALL
USER_CHARGES

@<TRIPOS>ATOM
      1 C1          1.7988    4.4420    0.8986 C.3       1 <0>        -0.1681
      2 C2          2.0248    3.0890    0.2209 C.3       1 <0>         0.1484
      3 C3          2.3149    2.0031    1.2664 C.3       1 <0>         0.0688
      4 N1          1.2121    1.0122    1.1155 N.pl3     1 <0>        -0.4647
      5 C4          0.9151   -0.1447    1.7387 C.2       1 <0>         0.0692
      6 C5         -0.1857   -0.8146    1.3487 C.2       1 <0>        -0.1533
      7 S1         -0.7876    0.2608    0.0597 S.3       1 <0>         0.4001
      8 C6          0.4175    1.4327    0.1594 C.cat     1 <0>         0.3011
      9 N2          0.7922    2.6238   -0.4275 N.pl3     1 <0>        -0.6136
     10 C7          1.7919   -0.6749    2.8438 C.3       1 <0>        -0.0847
     11 S2          1.2132   -0.0293    4.4372 S.3       1 <0>         0.0598
     12 C8          2.4177   -0.5984    5.5905 C.cat     1 <0>         0.4968
     13 N3          2.3683   -0.1943    6.8598 N.pl3     1 <0>        -0.5668
     14 C9          3.4000   -0.6252    7.8064 C.3       1 <0>         0.1027
     15 C10         2.8770   -1.8044    8.6291 C.3       1 <0>        -0.1329
     16 C11         3.9545   -2.2544    9.6177 C.3       1 <0>        -0.1172
     17 C12         4.3045   -1.0953   10.5531 C.3       1 <0>        -0.1319
     18 C13         4.8276    0.0839    9.7304 C.3       1 <0>        -0.1175
     19 C14         3.7500    0.5339    8.7418 C.3       1 <0>        -0.1317
     20 N4          3.3784   -1.4329    5.1936 N.pl3     1 <0>        -0.7313
     21 C15         3.0269   -2.7282    4.6063 C.3       1 <0>         0.1341
     22 C16         3.0557   -3.8054    5.6924 C.3       1 <0>        -0.1365
     23 C17         2.6886   -5.1581    5.0789 C.3       1 <0>        -0.1191
     24 C18         3.6963   -5.5115    3.9832 C.3       1 <0>        -0.1312
     25 C19         3.6675   -4.4343    2.8971 C.3       1 <0>        -0.1180
     26 C20         4.0346   -3.0816    3.5106 C.3       1 <0>        -0.1337
     27 C21         3.1681    3.1803   -0.7917 C.3       1 <0>        -0.1684
     28 H1          2.6909    4.7210    1.4593 H         1 <0>         0.0982
     29 H2          1.5946    5.1983    0.1408 H         1 <0>         0.0930
     30 H3          0.9498    4.3705    1.5785 H         1 <0>         0.0745
     31 H4          3.2770    1.5319    1.0653 H         1 <0>         0.1336
     32 H5          2.3063    2.4312    2.2688 H         1 <0>         0.1321
     33 H6         -0.5917   -1.7459    1.7149 H         1 <0>         0.2489
     34 H7          1.7448   -1.7638    2.8543 H         1 <0>         0.1569
     35 H8          2.8209   -0.3573    2.6752 H         1 <0>         0.1355
     36 H9          4.2910   -0.9314    7.2582 H         1 <0>         0.1125
     37 H10         1.9860   -1.4981    9.1773 H         1 <0>         0.0838
     38 H11         2.6276   -2.6301    7.9627 H         1 <0>         0.0786
     39 H12         3.5818   -3.0944   10.2038 H         1 <0>         0.0842
     40 H13         4.8454   -2.5606    9.0695 H         1 <0>         0.0700
     41 H14         3.4135   -0.7890   11.1013 H         1 <0>         0.0714
     42 H15         5.0721   -1.4159   11.2574 H         1 <0>         0.0803
     43 H16         5.0769    0.9096   10.3968 H         1 <0>         0.0853
     44 H17         5.7185   -0.2223    9.1822 H         1 <0>         0.0708
     45 H18         4.1227    1.3740    8.1557 H         1 <0>         0.0789
     46 H19         2.8591    0.8401    9.2900 H         1 <0>         0.0852
     47 H20         4.3102   -1.1826    5.2938 H         1 <0>         0.4326
     48 H21         2.0269   -2.6727    4.1760 H         1 <0>         0.0964
     49 H22         4.0557   -3.8609    6.1226 H         1 <0>         0.0833
     50 H23         2.3378   -3.5536    6.4730 H         1 <0>         0.0731
     51 H24         2.7092   -5.9255    5.8527 H         1 <0>         0.0825
     52 H25         1.6887   -5.1026    4.6487 H         1 <0>         0.0690
     53 H26         4.6963   -5.5670    4.4134 H         1 <0>         0.0713
     54 H27         3.4348   -6.4752    3.5462 H         1 <0>         0.0791
     55 H28         4.3854   -4.6860    2.1165 H         1 <0>         0.0828
     56 H29         2.6675   -4.3788    2.4669 H         1 <0>         0.0678
     57 H30         4.0140   -2.3141    2.7368 H         1 <0>         0.0711
     58 H31         5.0346   -3.1371    3.9408 H         1 <0>         0.0867
     59 H32         4.0864    3.4649   -0.2782 H         1 <0>         0.0989
     60 H33         3.3058    2.2118   -1.2725 H         1 <0>         0.0752
     61 H34         2.9265    3.9293   -1.5459 H         1 <0>         0.0927
     62 H35         0.3221    3.0763   -1.1453 H         1 <0>         0.4632
     63 H36         1.6491    0.3850    7.1567 H         1 <0>         0.4405
@<TRIPOS>BOND
     1    1    2 1
     2    1   28 1
     3    1   29 1
     4    1   30 1
     5    2    3 1
     6    2   27 1
     7    2    9 1
     8    3   31 1
     9    3   32 1
    10    3    4 1
    11    4    8 2
    12    4    5 1
    13    5   10 1
    14    5    6 2
    15    6   33 1
    16    6    7 1
    17    7    8 1
    18    8    9 1
    19    9   62 1
    20   10   11 1
    21   10   34 1
    22   10   35 1
    23   11   12 1
    24   12   13 2
    25   12   20 1
    26   13   14 1
    27   13   63 1
    28   14   19 1
    29   14   15 1
    30   14   36 1
    31   15   16 1
    32   15   37 1
    33   15   38 1
    34   16   17 1
    35   16   39 1
    36   16   40 1
    37   17   18 1
    38   17   41 1
    39   17   42 1
    40   18   19 1
    41   18   43 1
    42   18   44 1
    43   19   45 1
    44   19   46 1
    45   20   21 1
    46   20   47 1
    47   21   26 1
    48   21   22 1
    49   21   48 1
    50   22   23 1
    51   22   49 1
    52   22   50 1
    53   23   24 1
    54   23   51 1
    55   23   52 1
    56   24   25 1
    57   24   53 1
    58   24   54 1
    59   25   26 1
    60   25   55 1
    61   25   56 1
    62   26   57 1
    63   26   58 1
    64   27   59 1
    65   27   60 1
    66   27   61 1
