@<TRIPOS>MOLECULE
ZINC03842038
   71    75     0     0     0
SMALL
USER_CHARGES
N-[1-[9-(4-ethoxyphenyl)-10-oxo-5,7,9-triazabicyclo[4.4.0]deca-2,4,7,11-tetraen-8-yl]ethyl]-2-[4-fluoro-3-(trifluoromethyl)phenyl]-N-(3-pyridylmethyl)acetamide
@<TRIPOS>ATOM
      1 C1         -5.4741    4.5850    7.6893 C.3       1 <0>        -0.1526
      2 C2         -4.8300    4.0105    6.4259 C.3       1 <0>         0.0536
      3 O1         -5.8260    3.3524    5.6405 O.3       1 <0>        -0.3089
      4 C3         -5.4168    2.7830    4.4759 C.ar      1 <0>         0.1654
      5 C4         -6.3324    2.1278    3.6651 C.ar      1 <0>        -0.1488
      6 C5         -5.9174    1.5489    2.4824 C.ar      1 <0>        -0.0468
      7 C6         -4.5823    1.6180    2.1070 C.ar      1 <0>         0.0561
      8 C7         -3.6675    2.2788    2.9160 C.ar      1 <0>        -0.0536
      9 C8         -4.0837    2.8569    4.0987 C.ar      1 <0>        -0.1748
     10 N1         -4.1591    1.0250    0.9093 N.am      1 <0>        -0.4823
     11 C9         -4.1337   -0.3242    0.7995 C.2       1 <0>         0.5531
     12 O2         -4.4718   -1.0408    1.7236 O.2       1 <0>        -0.4845
     13 C10        -3.6863   -0.8889   -0.4804 C.ar      1 <0>        -0.2487
     14 C11        -3.6254   -2.2649   -0.7033 C.ar      1 <0>         0.0057
     15 C12        -3.1853   -2.7010   -1.9401 C.ar      1 <0>        -0.1920
     16 C13        -2.8240   -1.7714   -2.9047 C.ar      1 <0>         0.1638
     17 N2         -2.8874   -0.4769   -2.6766 N.ar      1 <0>        -0.4678
     18 C14        -3.3024    0.0022   -1.5078 C.ar      1 <0>         0.3529
     19 N3         -3.3678    1.3356   -1.2718 N.2       1 <0>        -0.4990
     20 C15        -3.7721    1.8082   -0.1313 C.2       1 <0>         0.4156
     21 C16        -3.8137    3.3041    0.0470 C.3       1 <0>         0.1829
     22 H1         -3.3723    3.5678    1.0081 H         1 <0>         0.1343
     23 C17        -3.0229    3.9741   -1.0784 C.3       1 <0>        -0.1455
     24 N4         -5.2047    3.7622    0.0063 N.am      1 <0>        -0.6006
     25 C18        -6.0412    3.4612   -1.1581 C.3       1 <0>         0.1432
     26 C19        -6.8687    2.2333   -0.8781 C.ar      1 <0>        -0.1628
     27 C20        -6.3594    0.9695   -1.1362 C.ar      1 <0>        -0.0747
     28 C21        -7.1546   -0.1316   -0.8588 C.ar      1 <0>        -0.1676
     29 C22        -8.4234    0.0656   -0.3472 C.ar      1 <0>         0.1093
     30 N5         -8.8769    1.2825   -0.1189 N.ar      1 <0>        -0.4731
     31 C23        -8.1467    2.3525   -0.3664 C.ar      1 <0>         0.1022
     32 C24        -5.7146    4.4606    1.0401 C.2       1 <0>         0.5239
     33 O3         -4.9984    4.7894    1.9619 O.2       1 <0>        -0.5018
     34 C25        -7.1749    4.8330    1.0505 C.3       1 <0>        -0.1129
     35 C26        -7.4474    5.7647    2.2032 C.ar      1 <0>        -0.0803
     36 C27        -7.8126    5.2522    3.4343 C.ar      1 <0>        -0.0335
     37 C28        -8.0581    6.1053    4.4932 C.ar      1 <0>        -0.1459
     38 C29        -7.9485    7.4746    4.3182 C.ar      1 <0>         0.1532
     39 C30        -7.5879    7.9869    3.0836 C.ar      1 <0>        -0.2199
     40 C31        -7.3377    7.1313    2.0273 C.ar      1 <0>        -0.0311
     41 C32        -7.4678    9.4768    2.8917 C.3       1 <0>         0.5131
     42 F1         -7.0941    9.7482    1.5711 F         1 <0>        -0.1734
     43 F2         -8.6996   10.0826    3.1617 F         1 <0>        -0.1719
     44 F3         -6.4981    9.9827    3.7641 F         1 <0>        -0.1717
     45 F4         -8.1929    8.3099    5.3515 F         1 <0>        -0.1230
     46 H2         -4.7144    5.0870    8.2883 H         1 <0>         0.0800
     47 H3         -6.2476    5.3003    7.4097 H         1 <0>         0.0669
     48 H4         -5.9192    3.7769    8.2698 H         1 <0>         0.0672
     49 H5         -4.0565    3.2953    6.7055 H         1 <0>         0.0627
     50 H6         -4.3849    4.8186    5.8454 H         1 <0>         0.0666
     51 H7         -7.3700    2.0703    3.9594 H         1 <0>         0.1365
     52 H8         -6.6301    1.0387    1.8515 H         1 <0>         0.1222
     53 H9         -2.6297    2.3364    2.6225 H         1 <0>         0.1269
     54 H10        -3.3714    3.3670    4.7302 H         1 <0>         0.1357
     55 H11        -3.9131   -2.9672    0.0652 H         1 <0>         0.1507
     56 H12        -3.1229   -3.7579   -2.1534 H         1 <0>         0.1511
     57 H13        -2.4813   -2.1194   -3.8679 H         1 <0>         0.1731
     58 H14        -2.9837    5.0494   -0.9046 H         1 <0>         0.0723
     59 H15        -2.0099    3.5723   -1.0998 H         1 <0>         0.0784
     60 H16        -3.5118    3.7778   -2.0327 H         1 <0>         0.0776
     61 H17        -6.7006    4.3055   -1.3597 H         1 <0>         0.1012
     62 H18        -5.4058    3.2813   -2.0252 H         1 <0>         0.1074
     63 H19        -5.3653    0.8460   -1.5400 H         1 <0>         0.1323
     64 H20        -6.7888   -1.1308   -1.0440 H         1 <0>         0.1301
     65 H21        -9.0507   -0.7868   -0.1323 H         1 <0>         0.1590
     66 H22        -8.5523    3.3334   -0.1665 H         1 <0>         0.1606
     67 H23        -7.4300    5.3291    0.1141 H         1 <0>         0.1109
     68 H24        -7.7787    3.9323    1.1607 H         1 <0>         0.1165
     69 H25        -7.9020    4.1844    3.5694 H         1 <0>         0.1393
     70 H26        -8.3397    5.7045    5.4557 H         1 <0>         0.1494
     71 H27        -7.0568    7.5308    1.0640 H         1 <0>         0.1466
@<TRIPOS>BOND
     1    1    2 1
     2    1   46 1
     3    1   47 1
     4    1   48 1
     5    2    3 1
     6    2   49 1
     7    2   50 1
     8    3    4 1
     9    4    9 ar
    10    4    5 ar
    11    5    6 ar
    12    5   51 1
    13    6    7 ar
    14    6   52 1
    15    7    8 ar
    16    7   10 1
    17    8    9 ar
    18    8   53 1
    19    9   54 1
    20   10   20 1
    21   10   11 am
    22   11   12 2
    23   11   13 1
    24   13   18 ar
    25   13   14 ar
    26   14   15 ar
    27   14   55 1
    28   15   16 ar
    29   15   56 1
    30   16   17 ar
    31   16   57 1
    32   17   18 ar
    33   18   19 1
    34   19   20 2
    35   20   21 1
    36   21   22 1
    37   21   23 1
    38   21   24 1
    39   23   58 1
    40   23   59 1
    41   23   60 1
    42   24   25 1
    43   24   32 am
    44   25   26 1
    45   25   61 1
    46   25   62 1
    47   26   31 ar
    48   26   27 ar
    49   27   28 ar
    50   27   63 1
    51   28   29 ar
    52   28   64 1
    53   29   30 ar
    54   29   65 1
    55   30   31 ar
    56   31   66 1
    57   32   33 2
    58   32   34 1
    59   34   35 1
    60   34   67 1
    61   34   68 1
    62   35   40 ar
    63   35   36 ar
    64   36   37 ar
    65   36   69 1
    66   37   38 ar
    67   37   70 1
    68   38   39 ar
    69   38   45 1
    70   39   40 ar
    71   39   41 1
    72   40   71 1
    73   41   42 1
    74   41   43 1
    75   41   44 1
@<TRIPOS>MOLECULE
ZINC36184713
   79    81     0     0     0
SMALL
USER_CHARGES

@<TRIPOS>ATOM
      1 C1          0.6254    1.5177   -1.0981 C.3       1 <0>        -0.1550
      2 C2          0.5634    0.0170   -0.8069 C.3       1 <0>        -0.1269
      3 C3         -0.8776   -0.4735   -0.9620 C.3       1 <0>        -0.1204
      4 C4         -0.9396   -1.9742   -0.6708 C.3       1 <0>        -0.1228
      5 C5         -2.3805   -2.4647   -0.8260 C.3       1 <0>        -0.1186
      6 C6         -2.4425   -3.9655   -0.5348 C.3       1 <0>        -0.1223
      7 C7         -3.8835   -4.4559   -0.6899 C.3       1 <0>        -0.1172
      8 C8         -3.9455   -5.9567   -0.3987 C.3       1 <0>        -0.1086
      9 C9         -5.3864   -6.4472   -0.5538 C.3       1 <0>        -0.1384
     10 C10        -5.4475   -7.9254   -0.2670 C.2       1 <0>         0.5125
     11 O1         -4.4380   -8.5273    0.0321 O.2       1 <0>        -0.4868
     12 N1         -6.6240   -8.5785   -0.3427 N.am      1 <0>        -0.6047
     13 C11        -7.8435   -7.8514   -0.7040 C.3       1 <0>         0.0835
     14 C12        -7.9522   -7.7630   -2.2275 C.3       1 <0>        -0.0463
     15 N2         -9.1059   -6.9284   -2.5885 N.4       1 <0>        -0.3807
     16 C13        -9.1407   -6.7449   -4.0456 C.3       1 <0>        -0.0494
     17 C14       -10.3433   -7.5864   -2.1482 C.3       1 <0>        -0.0545
     18 C15        -6.6834  -10.0155   -0.0639 C.3       1 <0>         0.1814
     19 H1         -5.6737  -10.3993    0.0820 H         1 <0>         0.1363
     20 C16        -7.5083  -10.2556    1.2021 C.3       1 <0>        -0.1454
     21 C17        -7.3281  -10.7264   -1.2258 C.2       1 <0>         0.3708
     22 N3         -8.5527  -11.1376   -1.0941 N.2       1 <0>        -0.4923
     23 C18        -9.1975  -11.7842   -2.0971 C.ar      1 <0>         0.1335
     24 C19       -10.5146  -12.2261   -1.9559 C.ar      1 <0>        -0.1037
     25 C20       -11.1307  -12.8780   -3.0002 C.ar      1 <0>        -0.0686
     26 C21       -10.4584  -13.1030   -4.1946 C.ar      1 <0>        -0.1234
     27 C22        -9.1586  -12.6770   -4.3579 C.ar      1 <0>        -0.0419
     28 C23        -8.5169  -12.0143   -3.3134 C.ar      1 <0>        -0.1926
     29 C24        -7.1316  -11.5364   -3.4307 C.2       1 <0>         0.5409
     30 O2         -6.4897  -11.7027   -4.4515 O.2       1 <0>        -0.4805
     31 N4         -6.5993  -10.8999   -2.3614 N.am      1 <0>        -0.4949
     32 C25        -5.2841  -10.4202   -2.4226 C.ar      1 <0>         0.0838
     33 C26        -4.2757  -11.0646   -1.7185 C.ar      1 <0>        -0.0673
     34 C27        -2.9800  -10.5906   -1.7805 C.ar      1 <0>        -0.1176
     35 C28        -2.6863   -9.4734   -2.5442 C.ar      1 <0>         0.1360
     36 C29        -3.6907   -8.8290   -3.2468 C.ar      1 <0>        -0.1419
     37 C30        -4.9866   -9.3033   -3.1920 C.ar      1 <0>        -0.0773
     38 F1         -1.4182   -9.0112   -2.6036 F         1 <0>        -0.1260
     39 H2          1.6519    1.8672   -0.9876 H         1 <0>         0.0553
     40 H3          0.2857    1.7045   -2.1169 H         1 <0>         0.0532
     41 H4         -0.0173    2.0507   -0.3974 H         1 <0>         0.0536
     42 H5          1.2060   -0.5160   -1.5077 H         1 <0>         0.0608
     43 H6          0.9031   -0.1698    0.2118 H         1 <0>         0.0612
     44 H7         -1.5202    0.0595   -0.2613 H         1 <0>         0.0605
     45 H8         -1.2173   -0.2867   -1.9808 H         1 <0>         0.0598
     46 H9         -0.2970   -2.5072   -1.3716 H         1 <0>         0.0616
     47 H10        -0.5999   -2.1610    0.3479 H         1 <0>         0.0622
     48 H11        -3.0232   -1.9318   -0.1252 H         1 <0>         0.0605
     49 H12        -2.7202   -2.2779   -1.8447 H         1 <0>         0.0592
     50 H13        -1.7999   -4.4984   -1.2355 H         1 <0>         0.0635
     51 H14        -2.1028   -4.1523    0.4840 H         1 <0>         0.0647
     52 H15        -4.5261   -3.9230    0.0109 H         1 <0>         0.0627
     53 H16        -4.2232   -4.2692   -1.7086 H         1 <0>         0.0589
     54 H17        -3.3029   -6.4896   -1.0994 H         1 <0>         0.0729
     55 H18        -3.6058   -6.1435    0.6201 H         1 <0>         0.0765
     56 H19        -6.0291   -5.9142    0.1470 H         1 <0>         0.0990
     57 H20        -5.7261   -6.2604   -1.5725 H         1 <0>         0.0838
     58 H21        -8.7115   -8.3783   -0.3077 H         1 <0>         0.1167
     59 H22        -7.8054   -6.8464   -0.2835 H         1 <0>         0.1095
     60 H23        -7.0422   -7.3194   -2.6316 H         1 <0>         0.1342
     61 H24        -8.0836   -8.7629   -2.6410 H         1 <0>         0.1223
     62 H25        -9.2286   -7.7163   -4.5322 H         1 <0>         0.1202
     63 H26        -9.9968   -6.1256   -4.3135 H         1 <0>         0.1319
     64 H27        -8.2226   -6.2566   -4.3724 H         1 <0>         0.1251
     65 H28       -11.1993   -6.9671   -2.4160 H         1 <0>         0.1316
     66 H29       -10.4311   -8.5579   -2.6347 H         1 <0>         0.1209
     67 H30       -10.3174   -7.7226   -1.0670 H         1 <0>         0.1273
     68 H31        -8.4932   -9.8035    1.0853 H         1 <0>         0.0726
     69 H32        -7.6177  -11.3276    1.3665 H         1 <0>         0.0821
     70 H33        -7.0015   -9.8069    2.0565 H         1 <0>         0.0738
     71 H34       -11.0474  -12.0576   -1.0317 H         1 <0>         0.1442
     72 H35       -12.1494  -13.2191   -2.8893 H         1 <0>         0.1412
     73 H36       -10.9589  -13.6166   -5.0021 H         1 <0>         0.1405
     74 H37        -8.6406  -12.8554   -5.2886 H         1 <0>         0.1416
     75 H38        -4.5044  -11.9358   -1.1225 H         1 <0>         0.1372
     76 H39        -2.1955  -11.0914   -1.2327 H         1 <0>         0.1490
     77 H40        -3.4598   -7.9574   -3.8413 H         1 <0>         0.1444
     78 H41        -5.7689   -8.8031   -3.7435 H         1 <0>         0.1215
     79 H42        -9.0246   -6.0291   -2.1382 H         1 <0>         0.4293
@<TRIPOS>BOND
     1    1    2 1
     2    1   39 1
     3    1   40 1
     4    1   41 1
     5    2    3 1
     6    2   42 1
     7    2   43 1
     8    3    4 1
     9    3   44 1
    10    3   45 1
    11    4    5 1
    12    4   46 1
    13    4   47 1
    14    5    6 1
    15    5   48 1
    16    5   49 1
    17    6    7 1
    18    6   50 1
    19    6   51 1
    20    7    8 1
    21    7   52 1
    22    7   53 1
    23    8    9 1
    24    8   54 1
    25    8   55 1
    26    9   10 1
    27    9   56 1
    28    9   57 1
    29   10   11 2
    30   10   12 am
    31   12   13 1
    32   12   18 1
    33   13   14 1
    34   13   58 1
    35   13   59 1
    36   14   15 1
    37   14   60 1
    38   14   61 1
    39   15   16 1
    40   15   17 1
    41   15   79 1
    42   16   62 1
    43   16   63 1
    44   16   64 1
    45   17   65 1
    46   17   66 1
    47   17   67 1
    48   18   19 1
    49   18   20 1
    50   18   21 1
    51   20   68 1
    52   20   69 1
    53   20   70 1
    54   21   31 1
    55   21   22 2
    56   22   23 1
    57   23   28 ar
    58   23   24 ar
    59   24   25 ar
    60   24   71 1
    61   25   26 ar
    62   25   72 1
    63   26   27 ar
    64   26   73 1
    65   27   28 ar
    66   27   74 1
    67   28   29 1
    68   29   30 2
    69   29   31 am
    70   31   32 1
    71   32   37 ar
    72   32   33 ar
    73   33   34 ar
    74   33   75 1
    75   34   35 ar
    76   34   76 1
    77   35   36 ar
    78   35   38 1
    79   36   37 ar
    80   36   77 1
    81   37   78 1
@<TRIPOS>MOLECULE
ZINC36184714
   79    81     0     0     0
SMALL
USER_CHARGES

@<TRIPOS>ATOM
      1 C1         -4.8042    3.5059    4.6006 C.3       1 <0>        -0.1550
      2 C2         -4.2358    2.1009    4.3915 C.3       1 <0>        -0.1268
      3 C3         -5.3345    1.1808    3.8556 C.3       1 <0>        -0.1205
      4 C4         -4.7662   -0.2242    3.6466 C.3       1 <0>        -0.1228
      5 C5         -5.8649   -1.1443    3.1107 C.3       1 <0>        -0.1189
      6 C6         -5.2966   -2.5493    2.9016 C.3       1 <0>        -0.1225
      7 C7         -6.3953   -3.4694    2.3657 C.3       1 <0>        -0.1176
      8 C8         -5.8270   -4.8744    2.1566 C.3       1 <0>        -0.1105
      9 C9         -6.9257   -5.7945    1.6207 C.3       1 <0>        -0.1365
     10 C10        -6.3659   -7.1784    1.4148 C.2       1 <0>         0.5120
     11 O1         -5.2027   -7.4064    1.6714 O.2       1 <0>        -0.5020
     12 N1         -7.1580   -8.1627    0.9455 N.am      1 <0>        -0.5956
     13 C11        -8.5630   -7.8873    0.6355 C.3       1 <0>         0.0587
     14 C12        -8.6858   -7.4423   -0.8232 C.3       1 <0>        -0.0447
     15 N2        -10.0947   -7.1661   -1.1340 N.4       1 <0>        -0.3820
     16 C13       -10.1988   -6.6251   -2.4958 C.3       1 <0>        -0.0473
     17 C14       -10.8697   -8.4106   -1.0409 C.3       1 <0>        -0.0559
     18 C15        -6.6138   -9.5081    0.7453 C.3       1 <0>         0.1800
     19 H1         -5.5611   -9.5200    1.0278 H         1 <0>         0.1381
     20 C16        -6.7511   -9.8999   -0.7273 C.3       1 <0>        -0.1646
     21 C17        -7.3741  -10.4897    1.5992 C.2       1 <0>         0.3985
     22 N3         -8.6589  -10.3408    1.7140 N.2       1 <0>        -0.5254
     23 C18        -9.4085  -11.1857    2.4651 C.ar      1 <0>         0.1433
     24 C19       -10.7904  -11.0261    2.5883 C.ar      1 <0>        -0.1153
     25 C20       -11.5123  -11.9075    3.3609 C.ar      1 <0>        -0.0665
     26 C21       -10.8836  -12.9553    4.0211 C.ar      1 <0>        -0.1277
     27 C22        -9.5216  -13.1334    3.9155 C.ar      1 <0>        -0.0345
     28 C23        -8.7724  -12.2528    3.1376 C.ar      1 <0>        -0.1875
     29 C24        -7.3169  -12.3939    2.9873 C.2       1 <0>         0.5466
     30 O2         -6.7082  -13.2916    3.5402 O.2       1 <0>        -0.4768
     31 N4         -6.6804  -11.4902    2.2063 N.am      1 <0>        -0.4902
     32 C25        -5.2939  -11.5825    2.0258 C.ar      1 <0>         0.0707
     33 C26        -4.4321  -11.0734    2.9882 C.ar      1 <0>        -0.0568
     34 C27        -3.0660  -11.1658    2.8087 C.ar      1 <0>        -0.1363
     35 C28        -2.5553  -11.7658    1.6698 C.ar      1 <0>         0.1298
     36 C29        -3.4131  -12.2738    0.7086 C.ar      1 <0>        -0.1419
     37 C30        -4.7799  -12.1884    0.8871 C.ar      1 <0>        -0.0734
     38 F1         -1.2185  -11.8553    1.4960 F         1 <0>        -0.1251
     39 H2         -4.0214    4.1614    4.9824 H         1 <0>         0.0552
     40 H3         -5.1719    3.8942    3.6508 H         1 <0>         0.0533
     41 H4         -5.6241    3.4633    5.3176 H         1 <0>         0.0535
     42 H5         -3.4159    2.1436    3.6746 H         1 <0>         0.0608
     43 H6         -3.8681    1.7127    5.3413 H         1 <0>         0.0610
     44 H7         -6.1545    1.1382    4.5726 H         1 <0>         0.0605
     45 H8         -5.7023    1.5691    2.9058 H         1 <0>         0.0601
     46 H9         -3.9463   -0.1815    2.9296 H         1 <0>         0.0616
     47 H10        -4.3985   -0.6124    4.5964 H         1 <0>         0.0619
     48 H11        -6.6848   -1.1869    3.8276 H         1 <0>         0.0606
     49 H12        -6.2327   -0.7560    2.1608 H         1 <0>         0.0598
     50 H13        -4.4767   -2.5066    2.1846 H         1 <0>         0.0637
     51 H14        -4.9289   -2.9375    3.8514 H         1 <0>         0.0641
     52 H15        -7.2152   -3.5120    3.0826 H         1 <0>         0.0624
     53 H16        -6.7631   -3.0811    1.4159 H         1 <0>         0.0606
     54 H17        -5.0071   -4.8317    1.4396 H         1 <0>         0.0740
     55 H18        -5.4593   -5.2626    3.1064 H         1 <0>         0.0742
     56 H19        -7.7456   -5.8371    2.3377 H         1 <0>         0.0982
     57 H20        -7.2935   -5.4062    0.6709 H         1 <0>         0.0896
     58 H21        -9.1531   -8.7906    0.7906 H         1 <0>         0.1525
     59 H22        -8.9310   -7.0963    1.2889 H         1 <0>         0.0993
     60 H23        -8.0957   -6.5390   -0.9783 H         1 <0>         0.1300
     61 H24        -8.3178   -8.2333   -1.4766 H         1 <0>         0.1363
     62 H25        -9.8057   -7.3520   -3.2065 H         1 <0>         0.1222
     63 H26       -11.2442   -6.4202   -2.7264 H         1 <0>         0.1270
     64 H27        -9.6237   -5.7018   -2.5649 H         1 <0>         0.1237
     65 H28       -11.9151   -8.2056   -1.2715 H         1 <0>         0.1273
     66 H29       -10.4766   -9.1375   -1.7516 H         1 <0>         0.1230
     67 H30       -10.7925   -8.8119   -0.0304 H         1 <0>         0.1277
     68 H31        -7.8070   -9.9528   -0.9923 H         1 <0>         0.0684
     69 H32        -6.2573   -9.1534   -1.3495 H         1 <0>         0.0842
     70 H33        -6.2867  -10.8726   -0.8893 H         1 <0>         0.0842
     71 H34       -11.2902  -10.2147    2.0802 H         1 <0>         0.1341
     72 H35       -12.5809  -11.7826    3.4551 H         1 <0>         0.1392
     73 H36       -11.4674  -13.6361    4.6229 H         1 <0>         0.1404
     74 H37        -9.0381  -13.9495    4.4317 H         1 <0>         0.1430
     75 H38        -4.8300  -10.6051    3.8763 H         1 <0>         0.1369
     76 H39        -2.3954  -10.7696    3.5568 H         1 <0>         0.1509
     77 H40        -3.0130  -12.7407   -0.1793 H         1 <0>         0.1512
     78 H41        -5.4485  -12.5887    0.1393 H         1 <0>         0.1390
     79 H42       -10.4586   -6.4932   -0.4761 H         1 <0>         0.4271
@<TRIPOS>BOND
     1    1    2 1
     2    1   39 1
     3    1   40 1
     4    1   41 1
     5    2    3 1
     6    2   42 1
     7    2   43 1
     8    3    4 1
     9    3   44 1
    10    3   45 1
    11    4    5 1
    12    4   46 1
    13    4   47 1
    14    5    6 1
    15    5   48 1
    16    5   49 1
    17    6    7 1
    18    6   50 1
    19    6   51 1
    20    7    8 1
    21    7   52 1
    22    7   53 1
    23    8    9 1
    24    8   54 1
    25    8   55 1
    26    9   10 1
    27    9   56 1
    28    9   57 1
    29   10   11 2
    30   10   12 am
    31   12   13 1
    32   12   18 1
    33   13   14 1
    34   13   58 1
    35   13   59 1
    36   14   15 1
    37   14   60 1
    38   14   61 1
    39   15   16 1
    40   15   17 1
    41   15   79 1
    42   16   62 1
    43   16   63 1
    44   16   64 1
    45   17   65 1
    46   17   66 1
    47   17   67 1
    48   18   19 1
    49   18   20 1
    50   18   21 1
    51   20   68 1
    52   20   69 1
    53   20   70 1
    54   21   31 1
    55   21   22 2
    56   22   23 1
    57   23   28 ar
    58   23   24 ar
    59   24   25 ar
    60   24   71 1
    61   25   26 ar
    62   25   72 1
    63   26   27 ar
    64   26   73 1
    65   27   28 ar
    66   27   74 1
    67   28   29 1
    68   29   30 2
    69   29   31 am
    70   31   32 1
    71   32   37 ar
    72   32   33 ar
    73   33   34 ar
    74   33   75 1
    75   34   35 ar
    76   34   76 1
    77   35   36 ar
    78   35   38 1
    79   36   37 ar
    80   36   77 1
    81   37   78 1
@<TRIPOS>MOLECULE
ZINC00087629
   36    38     0     0     0
SMALL
USER_CHARGES

@<TRIPOS>ATOM
      1 C1         -0.0178    1.4608    0.0101 C.3       1 <0>         0.0530
      2 N1          0.0021   -0.0041    0.0020 N.pl3     1 <0>        -0.4332
      3 C2          0.0075   -0.7812   -1.1130 C.ar      1 <0>         0.0613
      4 C3         -0.0037   -0.4973   -2.4808 C.ar      1 <0>        -0.0765
      5 C4          0.0056   -1.5284   -3.3933 C.ar      1 <0>        -0.0835
      6 C5          0.0260   -2.8473   -2.9648 C.ar      1 <0>        -0.0719
      7 C6          0.0368   -3.1443   -1.6175 C.ar      1 <0>        -0.0886
      8 C7          0.0282   -2.1186   -0.6845 C.ar      1 <0>         0.0910
      9 N2          0.0343   -2.0794    0.7002 N.pl3     1 <0>        -0.4646
     10 C8          0.0230   -0.7645    1.0681 C.cat     1 <0>         0.6438
     11 N3          0.0292   -0.3056    2.3685 N.pl3     1 <0>        -0.7960
     12 C9          0.0546   -3.2338    1.6020 C.3       1 <0>         0.0586
     13 C10         1.4822   -3.6099    1.9044 C.2       1 <0>         0.3801
     14 O1          2.3929   -2.9762    1.4149 O.2       1 <0>        -0.4209
     15 C11         1.7711   -4.7459    2.7934 C.ar      1 <0>        -0.1703
     16 C12         0.7232   -5.4829    3.3552 C.ar      1 <0>        -0.0696
     17 C13         1.0015   -6.5462    4.1868 C.ar      1 <0>        -0.0994
     18 C14         2.3151   -6.8854    4.4671 C.ar      1 <0>        -0.0507
     19 C15         3.3580   -6.1602    3.9144 C.ar      1 <0>        -0.0986
     20 C16         3.0951   -5.0980    3.0763 C.ar      1 <0>        -0.0427
     21 Br1         2.6864   -8.3452    5.6103 Br        1 <0>        -0.0186
     22 H1          1.0048    1.8381    0.0023 H         1 <0>         0.1084
     23 H2         -0.5450    1.8219   -0.8730 H         1 <0>         0.1202
     24 H3         -0.5280    1.8123    0.9069 H         1 <0>         0.1052
     25 H4         -0.0199    0.5275   -2.8214 H         1 <0>         0.1492
     26 H5         -0.0034   -1.3084   -4.4506 H         1 <0>         0.1547
     27 H6          0.0331   -3.6471   -3.6905 H         1 <0>         0.1545
     28 H7          0.0520   -4.1734   -1.2902 H         1 <0>         0.1453
     29 H8          0.0173    0.6478    2.5464 H         1 <0>         0.4406
     30 H9         -0.4584   -2.9794    2.5295 H         1 <0>         0.1426
     31 H10        -0.4499   -4.0751    1.1267 H         1 <0>         0.1567
     32 H11        -0.3013   -5.2191    3.1382 H         1 <0>         0.1408
     33 H12         0.1936   -7.1161    4.6213 H         1 <0>         0.1478
     34 H13         4.3796   -6.4302    4.1376 H         1 <0>         0.1479
     35 H14         3.9091   -4.5363    2.6426 H         1 <0>         0.1461
     36 H15         0.0455   -0.9363    3.1053 H         1 <0>         0.4371
@<TRIPOS>BOND
     1    1    2 1
     2    1   22 1
     3    1   23 1
     4    1   24 1
     5    2   10 2
     6    2    3 1
     7    3    8 ar
     8    3    4 ar
     9    4    5 ar
    10    4   25 1
    11    5    6 ar
    12    5   26 1
    13    6    7 ar
    14    6   27 1
    15    7    8 ar
    16    7   28 1
    17    8    9 1
    18    9   10 1
    19    9   12 1
    20   10   11 1
    21   11   29 1
    22   11   36 1
    23   12   13 1
    24   12   30 1
    25   12   31 1
    26   13   14 2
    27   13   15 1
    28   15   20 ar
    29   15   16 ar
    30   16   17 ar
    31   16   32 1
    32   17   18 ar
    33   17   33 1
    34   18   19 ar
    35   18   21 1
    36   19   20 ar
    37   19   34 1
    38   20   35 1
@<TRIPOS>MOLECULE
ZINC00182224
   36    38     0     0     0
SMALL
USER_CHARGES

@<TRIPOS>ATOM
      1 C1         -0.0178    1.4608    0.0101 C.3       1 <0>         0.0528
      2 N1          0.0021   -0.0041    0.0020 N.pl3     1 <0>        -0.4328
      3 C2          0.0075   -0.7812   -1.1130 C.ar      1 <0>         0.0614
      4 C3         -0.0037   -0.4973   -2.4808 C.ar      1 <0>        -0.0762
      5 C4          0.0056   -1.5284   -3.3933 C.ar      1 <0>        -0.0833
      6 C5          0.0260   -2.8473   -2.9648 C.ar      1 <0>        -0.0716
      7 C6          0.0368   -3.1443   -1.6175 C.ar      1 <0>        -0.0886
      8 C7          0.0282   -2.1186   -0.6845 C.ar      1 <0>         0.0908
      9 N2          0.0343   -2.0794    0.7002 N.pl3     1 <0>        -0.4652
     10 C8          0.0230   -0.7645    1.0681 C.cat     1 <0>         0.6441
     11 N3          0.0292   -0.3056    2.3685 N.pl3     1 <0>        -0.7959
     12 C9          0.0546   -3.2338    1.6020 C.3       1 <0>         0.0598
     13 C10         1.4822   -3.6099    1.9044 C.2       1 <0>         0.3815
     14 O1          2.3929   -2.9762    1.4149 O.2       1 <0>        -0.4169
     15 C11         1.7711   -4.7458    2.7933 C.ar      1 <0>        -0.1684
     16 C12         0.7228   -5.4827    3.3551 C.ar      1 <0>        -0.0604
     17 C13         1.0002   -6.5460    4.1867 C.ar      1 <0>        -0.1050
     18 C14         2.3137   -6.8862    4.4677 C.ar      1 <0>         0.0071
     19 C15         3.3580   -6.1605    3.9152 C.ar      1 <0>        -0.0448
     20 C16         3.0949   -5.0976    3.0761 C.ar      1 <0>        -0.0308
     21 Cl1         5.0000   -6.5949    4.2743 Cl        1 <0>        -0.0212
     22 Cl2         2.6534   -8.2269    5.5168 Cl        1 <0>        -0.0174
     23 H1          1.0048    1.8381    0.0023 H         1 <0>         0.1087
     24 H2         -0.5450    1.8219   -0.8730 H         1 <0>         0.1204
     25 H3         -0.5280    1.8123    0.9069 H         1 <0>         0.1054
     26 H4         -0.0199    0.5275   -2.8214 H         1 <0>         0.1493
     27 H5         -0.0034   -1.3084   -4.4506 H         1 <0>         0.1548
     28 H6          0.0331   -3.6471   -3.6905 H         1 <0>         0.1546
     29 H7          0.0520   -4.1734   -1.2902 H         1 <0>         0.1455
     30 H8          0.0173    0.6478    2.5464 H         1 <0>         0.4409
     31 H9         -0.4584   -2.9794    2.5295 H         1 <0>         0.1439
     32 H10        -0.4499   -4.0751    1.1267 H         1 <0>         0.1581
     33 H11        -0.3016   -5.2186    3.1378 H         1 <0>         0.1481
     34 H12         0.1917   -7.1154    4.6208 H         1 <0>         0.1582
     35 H13         3.9090   -4.5359    2.6423 H         1 <0>         0.1563
     36 H14         0.0455   -0.9363    3.1053 H         1 <0>         0.4371
@<TRIPOS>BOND
     1    1    2 1
     2    1   23 1
     3    1   24 1
     4    1   25 1
     5    2   10 2
     6    2    3 1
     7    3    8 ar
     8    3    4 ar
     9    4    5 ar
    10    4   26 1
    11    5    6 ar
    12    5   27 1
    13    6    7 ar
    14    6   28 1
    15    7    8 ar
    16    7   29 1
    17    8    9 1
    18    9   10 1
    19    9   12 1
    20   10   11 1
    21   11   30 1
    22   11   36 1
    23   12   13 1
    24   12   31 1
    25   12   32 1
    26   13   14 2
    27   13   15 1
    28   15   20 ar
    29   15   16 ar
    30   16   17 ar
    31   16   33 1
    32   17   18 ar
    33   17   34 1
    34   18   19 ar
    35   18   22 1
    36   19   20 ar
    37   19   21 1
    38   20   35 1
@<TRIPOS>MOLECULE
ZINC04982098
   42    44     0     0     0
SMALL
USER_CHARGES

@<TRIPOS>ATOM
      1 C1         -0.0187    1.5258    0.0104 C.3       1 <0>        -0.1547
      2 C2          0.0021   -0.0041    0.0020 C.3       1 <0>        -0.1458
      3 C3         -1.4333   -0.5336    0.0129 C.3       1 <0>         0.0877
      4 N1         -1.4134   -1.9985    0.0048 N.pl3     1 <0>        -0.4306
      5 C4         -1.4080   -2.7756   -1.1102 C.ar      1 <0>         0.0638
      6 C5         -1.4192   -2.4917   -2.4780 C.ar      1 <0>        -0.0771
      7 C6         -1.4099   -3.5228   -3.3905 C.ar      1 <0>        -0.0836
      8 C7         -1.3895   -4.8418   -2.9620 C.ar      1 <0>        -0.0727
      9 C8         -1.3787   -5.1388   -1.6147 C.ar      1 <0>        -0.0884
     10 C9         -1.3873   -4.1130   -0.6817 C.ar      1 <0>         0.0907
     11 N2         -1.3812   -4.0739    0.7030 N.pl3     1 <0>        -0.4644
     12 C10        -1.3925   -2.7589    1.0709 C.cat     1 <0>         0.6447
     13 N3         -1.3863   -2.3001    2.3713 N.pl3     1 <0>        -0.7970
     14 C11        -1.3609   -5.2283    1.6048 C.3       1 <0>         0.0583
     15 C12         0.0667   -5.6044    1.9072 C.2       1 <0>         0.3808
     16 O1          0.9774   -4.9706    1.4177 O.2       1 <0>        -0.4223
     17 C13         0.3556   -6.7402    2.7961 C.ar      1 <0>        -0.1815
     18 C14        -0.6925   -7.4772    3.3579 C.ar      1 <0>        -0.0627
     19 C15        -0.4143   -8.5404    4.1894 C.ar      1 <0>        -0.1188
     20 C16         0.8995   -8.8798    4.4698 C.ar      1 <0>         0.0066
     21 C17         1.9427   -8.1543    3.9169 C.ar      1 <0>        -0.1184
     22 C18         1.6796   -7.0922    3.0790 C.ar      1 <0>        -0.0359
     23 Cl1         1.2404  -10.2199    5.5193 Cl        1 <0>        -0.0394
     24 H1          1.0039    1.9031    0.0027 H         1 <0>         0.0750
     25 H2         -0.5459    1.8868   -0.8726 H         1 <0>         0.0670
     26 H3         -0.5289    1.8773    0.9072 H         1 <0>         0.0641
     27 H4          0.5123   -0.3556   -0.8948 H         1 <0>         0.0830
     28 H5          0.5293   -0.3651    0.8851 H         1 <0>         0.0742
     29 H6         -1.9435   -0.1821    0.9097 H         1 <0>         0.1105
     30 H7         -1.9605   -0.1726   -0.8702 H         1 <0>         0.1258
     31 H8         -1.4354   -1.4669   -2.8185 H         1 <0>         0.1480
     32 H9         -1.4189   -3.3029   -4.4478 H         1 <0>         0.1542
     33 H10        -1.3824   -5.6416   -3.6877 H         1 <0>         0.1542
     34 H11        -1.3635   -6.1679   -1.2874 H         1 <0>         0.1450
     35 H12        -1.3979   -1.3466    2.5492 H         1 <0>         0.4400
     36 H13        -1.8739   -4.9739    2.5323 H         1 <0>         0.1420
     37 H14        -1.8654   -6.0695    1.1295 H         1 <0>         0.1563
     38 H15        -1.7170   -7.2133    3.1408 H         1 <0>         0.1410
     39 H16        -1.2224   -9.1102    4.6239 H         1 <0>         0.1486
     40 H17         2.9643   -8.4243    4.1401 H         1 <0>         0.1486
     41 H18         2.4936   -6.5302    2.6455 H         1 <0>         0.1463
     42 H19        -1.3704   -2.9308    3.1081 H         1 <0>         0.4368
@<TRIPOS>BOND
     1    1    2 1
     2    1   24 1
     3    1   25 1
     4    1   26 1
     5    2    3 1
     6    2   27 1
     7    2   28 1
     8    3    4 1
     9    3   29 1
    10    3   30 1
    11    4   12 2
    12    4    5 1
    13    5   10 ar
    14    5    6 ar
    15    6    7 ar
    16    6   31 1
    17    7    8 ar
    18    7   32 1
    19    8    9 ar
    20    8   33 1
    21    9   10 ar
    22    9   34 1
    23   10   11 1
    24   11   12 1
    25   11   14 1
    26   12   13 1
    27   13   35 1
    28   13   42 1
    29   14   15 1
    30   14   36 1
    31   14   37 1
    32   15   16 2
    33   15   17 1
    34   17   22 ar
    35   17   18 ar
    36   18   19 ar
    37   18   38 1
    38   19   20 ar
    39   19   39 1
    40   20   21 ar
    41   20   23 1
    42   21   22 ar
    43   21   40 1
    44   22   41 1
@<TRIPOS>MOLECULE
ZINC00085631
   36    38     0     0     0
SMALL
USER_CHARGES

@<TRIPOS>ATOM
      1 C1         -0.0178    1.4608    0.0101 C.3       1 <0>         0.0665
      2 N1          0.0021   -0.0041    0.0020 N.pl3     1 <0>        -0.4678
      3 C2          0.0081   -0.8195   -1.1179 C.ar      1 <0>         0.0869
      4 C3         -0.0019   -0.5779   -2.4832 C.ar      1 <0>        -0.0850
      5 C4          0.0078   -1.6364   -3.3680 C.ar      1 <0>        -0.0744
      6 C5          0.0276   -2.9423   -2.9009 C.ar      1 <0>        -0.0812
      7 C6          0.0374   -3.2006   -1.5486 C.ar      1 <0>        -0.0804
      8 C7          0.0282   -2.1398   -0.6395 C.ar      1 <0>         0.0652
      9 N2          0.0334   -2.0734    0.7179 N.pl3     1 <0>        -0.4291
     10 C8          0.0240   -0.8197    1.0968 C.cat     1 <0>         0.6433
     11 N3          0.0318   -0.3878    2.4065 N.pl3     1 <0>        -0.7961
     12 C9          0.0531   -3.2278    1.6197 C.3       1 <0>         0.0445
     13 C10         1.4805   -3.6043    1.9225 C.2       1 <0>         0.3825
     14 O1          2.3915   -2.9709    1.4334 O.2       1 <0>        -0.4208
     15 C11         1.7687   -4.7402    2.8115 C.ar      1 <0>        -0.1819
     16 C12         0.7203   -5.4769    3.3730 C.ar      1 <0>        -0.0626
     17 C13         0.9979   -6.5402    4.2046 C.ar      1 <0>        -0.1187
     18 C14         2.3116   -6.8800    4.4854 C.ar      1 <0>         0.0074
     19 C15         3.3551   -6.1548    3.9328 C.ar      1 <0>        -0.1182
     20 C16         3.0926   -5.0926    3.0949 C.ar      1 <0>        -0.0349
     21 Cl1         2.6517   -8.2202    5.5350 Cl        1 <0>        -0.0385
     22 H1          1.0048    1.8381    0.0023 H         1 <0>         0.1026
     23 H2         -0.5450    1.8219   -0.8730 H         1 <0>         0.1165
     24 H3         -0.5280    1.8123    0.9069 H         1 <0>         0.1020
     25 H4         -0.0177    0.4366   -2.8532 H         1 <0>         0.1490
     26 H5         -0.0004   -1.4470   -4.4312 H         1 <0>         0.1548
     27 H6          0.0350   -3.7627   -3.6033 H         1 <0>         0.1544
     28 H7          0.0528   -4.2199   -1.1918 H         1 <0>         0.1452
     29 H8          0.0209    0.5618    2.6040 H         1 <0>         0.4410
     30 H9          0.0480   -1.0335    3.1300 H         1 <0>         0.4366
     31 H10        -0.4601   -2.9732    2.5470 H         1 <0>         0.1451
     32 H11        -0.4515   -4.0689    1.1443 H         1 <0>         0.1599
     33 H12        -0.3040   -5.2127    3.1556 H         1 <0>         0.1411
     34 H13         0.1896   -7.1098    4.6388 H         1 <0>         0.1490
     35 H14         4.3766   -6.4251    4.1563 H         1 <0>         0.1491
     36 H15         3.9069   -4.5309    2.6616 H         1 <0>         0.1468
@<TRIPOS>BOND
     1    1    2 1
     2    1   22 1
     3    1   23 1
     4    1   24 1
     5    2   10 1
     6    2    3 1
     7    3    8 ar
     8    3    4 ar
     9    4    5 ar
    10    4   25 1
    11    5    6 ar
    12    5   26 1
    13    6    7 ar
    14    6   27 1
    15    7    8 ar
    16    7   28 1
    17    8    9 1
    18    9   10 2
    19    9   12 1
    20   10   11 1
    21   11   29 1
    22   11   30 1
    23   12   13 1
    24   12   31 1
    25   12   32 1
    26   13   14 2
    27   13   15 1
    28   15   20 ar
    29   15   16 ar
    30   16   17 ar
    31   16   33 1
    32   17   18 ar
    33   17   34 1
    34   18   19 ar
    35   18   21 1
    36   19   20 ar
    37   19   35 1
    38   20   36 1
@<TRIPOS>MOLECULE
ZINC13214613
   37    39     0     0     0
SMALL
USER_CHARGES
2-(2-acetylbenzimidazol-1-yl)-1-(4-nitrophenyl)ethanone
@<TRIPOS>ATOM
      1 C1          4.2259    2.1958   -0.0261 C.3       1 <0>        -0.1719
      2 C2          3.5345    0.8567   -0.0266 C.2       1 <0>         0.4434
      3 O1          4.1893   -0.1636   -0.0380 O.2       1 <0>        -0.4523
      4 C3          2.0641    0.7876   -0.0134 C.2       1 <0>         0.1962
      5 N1          1.2595    1.8227   -0.0002 N.2       1 <0>        -0.4218
      6 C4         -0.0170    1.4058    0.0098 C.ar      1 <0>         0.0434
      7 C5         -1.2491    2.0761    0.0302 C.ar      1 <0>        -0.0491
      8 C6         -2.4107    1.3620    0.0329 C.ar      1 <0>        -0.1276
      9 C7         -2.3908   -0.0279    0.0247 C.ar      1 <0>        -0.0806
     10 C8         -1.1949   -0.7107    0.0097 C.ar      1 <0>        -0.1186
     11 C9          0.0021   -0.0041    0.0020 C.ar      1 <0>         0.0697
     12 N2          1.3273   -0.3700   -0.0126 N.pl3     1 <0>        -0.4555
     13 C10         1.8534   -1.7372   -0.0245 C.3       1 <0>         0.0787
     14 C11         2.0200   -2.1989   -1.4494 C.2       1 <0>         0.3796
     15 O2          1.7282   -1.4589   -2.3645 O.2       1 <0>        -0.4094
     16 C12         2.5369   -3.5479   -1.7300 C.ar      1 <0>        -0.1157
     17 C13         2.8801   -4.4023   -0.6773 C.ar      1 <0>        -0.0734
     18 C14         3.3592   -5.6665   -0.9485 C.ar      1 <0>        -0.0621
     19 C15         3.5113   -6.0866   -2.2584 C.ar      1 <0>        -0.0141
     20 C16         3.1784   -5.2453   -3.3057 C.ar      1 <0>        -0.0616
     21 C17         2.6930   -3.9801   -3.0509 C.ar      1 <0>        -0.0566
     22 N3          4.0321   -7.4430   -2.5407 N.pl3     1 <0>         0.0201
     23 O3          4.1668   -7.8161   -3.6923 O.2       1 <0>        -0.1471
     24 O4          4.3260   -8.1860   -1.6214 O.3       1 <0>        -0.1464
     25 H1          4.3875    2.4871    0.9168 H         1 <0>         0.0966
     26 H2          5.1786    2.1130   -0.5492 H         1 <0>         0.0971
     27 H3          3.5971    2.9296   -0.5304 H         1 <0>         0.1020
     28 H4         -1.2777    3.1557    0.0367 H         1 <0>         0.1366
     29 H5         -3.3571    1.8822    0.0450 H         1 <0>         0.1360
     30 H6         -3.3208   -0.5769    0.0307 H         1 <0>         0.1359
     31 H7         -1.1871   -1.7907    0.0034 H         1 <0>         0.1235
     32 H8          2.7396   -1.7574    0.4383 H         1 <0>         0.1280
     33 H9          1.1582   -2.3985    0.4927 H         1 <0>         0.1317
     34 H10         2.7662   -4.0742    0.3453 H         1 <0>         0.1563
     35 H11         3.6208   -6.3289   -0.1366 H         1 <0>         0.1650
     36 H12         3.2995   -5.5805   -4.3252 H         1 <0>         0.1644
     37 H13         2.4337   -3.3247   -3.8693 H         1 <0>         0.1597
@<TRIPOS>BOND
     1    1    2 1
     2    1   25 1
     3    1   26 1
     4    1   27 1
     5    2    3 2
     6    2    4 1
     7    4   12 1
     8    4    5 2
     9    5    6 1
    10    6   11 ar
    11    6    7 ar
    12    7    8 ar
    13    7   28 1
    14    8    9 ar
    15    8   29 1
    16    9   10 ar
    17    9   30 1
    18   10   11 ar
    19   10   31 1
    20   11   12 1
    21   12   13 1
    22   13   14 1
    23   13   32 1
    24   13   33 1
    25   14   15 2
    26   14   16 1
    27   16   21 ar
    28   16   17 ar
    29   17   18 ar
    30   17   34 1
    31   18   19 ar
    32   18   35 1
    33   19   20 ar
    34   19   22 1
    35   20   21 ar
    36   20   36 1
    37   21   37 1
    38   22   23 2
    39   22   24 1
@<TRIPOS>MOLECULE
ZINC03842037
   72    76     0     0     0
SMALL
USER_CHARGES
N-[1-[9-(4-ethoxyphenyl)-10-oxo-5,7,9-triazabicyclo[4.4.0]deca-2,4,7,11-tetraen-8-yl]ethyl]-N-(3-pyridylmethyl)-2-[4-(trifluoromethoxy)phenyl]-acetamide
@<TRIPOS>ATOM
      1 C1         -7.6391    1.6398   -1.6514 C.3       1 <0>        -0.1545
      2 C2         -6.2703    0.9718   -1.5062 C.3       1 <0>         0.0555
      3 O1         -5.4147    1.4037   -2.5661 O.3       1 <0>        -0.3077
      4 C3         -4.1905    0.8184   -2.6485 C.ar      1 <0>         0.1693
      5 C4         -3.2829    1.2413   -3.6090 C.ar      1 <0>        -0.1432
      6 C5         -2.0394    0.6472   -3.6931 C.ar      1 <0>        -0.0466
      7 C6         -1.6972   -0.3736   -2.8162 C.ar      1 <0>         0.0547
      8 C7         -2.6081   -0.8002   -1.8589 C.ar      1 <0>        -0.0539
      9 C8         -3.8493   -0.2018   -1.7723 C.ar      1 <0>        -0.1750
     10 N1         -0.4348   -0.9771   -2.9011 N.am      1 <0>        -0.4813
     11 C9         -0.1326   -1.7565   -3.9662 C.2       1 <0>         0.5527
     12 O2         -0.9373   -1.9473   -4.8593 O.2       1 <0>        -0.4849
     13 C10         1.2027   -2.3673   -3.9982 C.ar      1 <0>        -0.2482
     14 C11         1.6162   -3.1922   -5.0449 C.ar      1 <0>         0.0058
     15 C12         2.8928   -3.7217   -4.9855 C.ar      1 <0>        -0.1927
     16 C13         3.7089   -3.4208   -3.9046 C.ar      1 <0>         0.1634
     17 N2          3.3020   -2.6406   -2.9260 N.ar      1 <0>        -0.4685
     18 C14         2.0861   -2.1026   -2.9275 C.ar      1 <0>         0.3535
     19 N3          1.6658   -1.2991   -1.9197 N.2       1 <0>        -0.5013
     20 C15         0.4787   -0.7716   -1.9166 C.2       1 <0>         0.4173
     21 C16         0.0923    0.1099   -0.7570 C.3       1 <0>         0.1824
     22 H1         -0.9155   -0.1434   -0.4281 H         1 <0>         0.1341
     23 C17         1.0744   -0.1050    0.3964 C.3       1 <0>        -0.1479
     24 N4          0.1310    1.5131   -1.1762 N.am      1 <0>        -0.6016
     25 C18         1.3735    2.0879   -1.6978 C.3       1 <0>         0.1448
     26 C19         1.3574    2.0364   -3.2038 C.ar      1 <0>        -0.1626
     27 C20         1.8026    0.9061   -3.8725 C.ar      1 <0>        -0.0778
     28 C21         1.7652    0.9018   -5.2583 C.ar      1 <0>        -0.1686
     29 C22         1.2979    2.0201   -5.9229 C.ar      1 <0>         0.1086
     30 N5          0.8870    3.0795   -5.2541 N.ar      1 <0>        -0.4743
     31 C23         0.9041    3.1171   -3.9359 C.ar      1 <0>         0.1034
     32 C24        -0.9781    2.2738   -1.0872 C.2       1 <0>         0.5230
     33 O3         -1.9882    1.8179   -0.5945 O.2       1 <0>        -0.5005
     34 C25        -0.9630    3.6908   -1.5998 C.3       1 <0>        -0.1097
     35 C26        -2.2361    4.3862   -1.1917 C.ar      1 <0>        -0.0836
     36 C27        -3.2972    4.4578   -2.0753 C.ar      1 <0>        -0.0548
     37 C28        -4.4674    5.0898   -1.7016 C.ar      1 <0>        -0.1811
     38 C29        -4.5733    5.6628   -0.4426 C.ar      1 <0>         0.1051
     39 C30        -3.5052    5.5946    0.4401 C.ar      1 <0>        -0.1212
     40 C31        -2.3392    4.9565    0.0636 C.ar      1 <0>        -0.0672
     41 O4         -5.7215    6.2895   -0.0744 O.3       1 <0>        -0.3112
     42 C32        -6.8008    6.2691   -1.0108 C.3       1 <0>         0.6031
     43 F1         -7.1033    4.9446   -1.3449 F         1 <0>        -0.1634
     44 F2         -7.9253    6.8744   -0.4397 F         1 <0>        -0.1314
     45 F3         -6.4304    6.9681   -2.1647 F         1 <0>        -0.1642
     46 H2         -7.5129    2.7217   -1.6926 H         1 <0>         0.0697
     47 H3         -8.1165    1.2945   -2.5684 H         1 <0>         0.0654
     48 H4         -8.2631    1.3791   -0.7965 H         1 <0>         0.0789
     49 H5         -6.3876   -0.1109   -1.5523 H         1 <0>         0.0615
     50 H6         -5.8304    1.2491   -0.5483 H         1 <0>         0.0660
     51 H7         -3.5493    2.0350   -4.2912 H         1 <0>         0.1344
     52 H8         -1.3332    0.9762   -4.4410 H         1 <0>         0.1203
     53 H9         -2.3441   -1.5972   -1.1795 H         1 <0>         0.1257
     54 H10        -4.5562   -0.5306   -1.0249 H         1 <0>         0.1346
     55 H11         0.9606   -3.4100   -5.8751 H         1 <0>         0.1505
     56 H12         3.2517   -4.3652   -5.7752 H         1 <0>         0.1508
     57 H13         4.7042   -3.8382   -3.8650 H         1 <0>         0.1728
     58 H14         0.9803   -1.1253    0.7684 H         1 <0>         0.0754
     59 H15         2.0920    0.0603    0.0427 H         1 <0>         0.0816
     60 H16         0.8504    0.5967    1.1998 H         1 <0>         0.0727
     61 H17         1.4600    3.1240   -1.3705 H         1 <0>         0.1003
     62 H18         2.2231    1.5166   -1.3238 H         1 <0>         0.1064
     63 H19         2.1662    0.0481   -3.3266 H         1 <0>         0.1368
     64 H20         2.1007    0.0372   -5.8117 H         1 <0>         0.1291
     65 H21         1.2694    2.0262   -7.0025 H         1 <0>         0.1581
     66 H22         0.5594    4.0027   -3.4227 H         1 <0>         0.1600
     67 H23        -0.1085    4.2205   -1.1785 H         1 <0>         0.1067
     68 H24        -0.8856    3.6831   -2.6870 H         1 <0>         0.1105
     69 H25        -3.2127    4.0154   -3.0569 H         1 <0>         0.1279
     70 H26        -5.2975    5.1416   -2.3905 H         1 <0>         0.1334
     71 H27        -3.5850    6.0402    1.4207 H         1 <0>         0.1384
     72 H28        -1.5075    4.9028    0.7506 H         1 <0>         0.1344
@<TRIPOS>BOND
     1    1    2 1
     2    1   46 1
     3    1   47 1
     4    1   48 1
     5    2    3 1
     6    2   49 1
     7    2   50 1
     8    3    4 1
     9    4    9 ar
    10    4    5 ar
    11    5    6 ar
    12    5   51 1
    13    6    7 ar
    14    6   52 1
    15    7    8 ar
    16    7   10 1
    17    8    9 ar
    18    8   53 1
    19    9   54 1
    20   10   20 1
    21   10   11 am
    22   11   12 2
    23   11   13 1
    24   13   18 ar
    25   13   14 ar
    26   14   15 ar
    27   14   55 1
    28   15   16 ar
    29   15   56 1
    30   16   17 ar
    31   16   57 1
    32   17   18 ar
    33   18   19 1
    34   19   20 2
    35   20   21 1
    36   21   22 1
    37   21   23 1
    38   21   24 1
    39   23   58 1
    40   23   59 1
    41   23   60 1
    42   24   25 1
    43   24   32 am
    44   25   26 1
    45   25   61 1
    46   25   62 1
    47   26   31 ar
    48   26   27 ar
    49   27   28 ar
    50   27   63 1
    51   28   29 ar
    52   28   64 1
    53   29   30 ar
    54   29   65 1
    55   30   31 ar
    56   31   66 1
    57   32   33 2
    58   32   34 1
    59   34   35 1
    60   34   67 1
    61   34   68 1
    62   35   40 ar
    63   35   36 ar
    64   36   37 ar
    65   36   69 1
    66   37   38 ar
    67   37   70 1
    68   38   39 ar
    69   38   41 1
    70   39   40 ar
    71   39   71 1
    72   40   72 1
    73   41   42 1
    74   42   43 1
    75   42   44 1
    76   42   45 1
@<TRIPOS>MOLECULE
ZINC13214608
   35    37     0     0     0
SMALL
USER_CHARGES
2-(2-acetylbenzimidazol-1-yl)-1-(4-chlorophenyl)ethanone
@<TRIPOS>ATOM
      1 C1          4.2259    2.1958   -0.0261 C.3       1 <0>        -0.1715
      2 C2          3.5345    0.8567   -0.0266 C.2       1 <0>         0.4423
      3 O1          4.1893   -0.1636   -0.0380 O.2       1 <0>        -0.4502
      4 C3          2.0641    0.7876   -0.0134 C.2       1 <0>         0.1965
      5 N1          1.2595    1.8227   -0.0002 N.2       1 <0>        -0.4247
      6 C4         -0.0170    1.4058    0.0098 C.ar      1 <0>         0.0431
      7 C5         -1.2491    2.0761    0.0302 C.ar      1 <0>        -0.0503
      8 C6         -2.4107    1.3620    0.0329 C.ar      1 <0>        -0.1283
      9 C7         -2.3908   -0.0279    0.0247 C.ar      1 <0>        -0.0827
     10 C8         -1.1949   -0.7107    0.0097 C.ar      1 <0>        -0.1169
     11 C9          0.0021   -0.0041    0.0020 C.ar      1 <0>         0.0697
     12 N2          1.3273   -0.3700   -0.0126 N.pl3     1 <0>        -0.4529
     13 C10         1.8534   -1.7372   -0.0245 C.3       1 <0>         0.0771
     14 C11         2.0200   -2.1989   -1.4494 C.2       1 <0>         0.3842
     15 O2          1.7282   -1.4589   -2.3646 O.2       1 <0>        -0.4249
     16 C12         2.5367   -3.5472   -1.7299 C.ar      1 <0>        -0.1645
     17 C13         2.8798   -4.4016   -0.6766 C.ar      1 <0>        -0.0603
     18 C14         3.3579   -5.6656   -0.9469 C.ar      1 <0>        -0.1198
     19 C15         3.5102   -6.0865   -2.2583 C.ar      1 <0>        -0.0022
     20 C16         3.1778   -5.2436   -3.3067 C.ar      1 <0>        -0.1200
     21 C17         2.6927   -3.9792   -3.0513 C.ar      1 <0>        -0.0426
     22 Cl1         4.1200   -7.6778   -2.5894 Cl        1 <0>        -0.0538
     23 H1          4.3875    2.4871    0.9168 H         1 <0>         0.0959
     24 H2          5.1786    2.1130   -0.5492 H         1 <0>         0.0965
     25 H3          3.5971    2.9296   -0.5304 H         1 <0>         0.1015
     26 H4         -1.2777    3.1557    0.0367 H         1 <0>         0.1356
     27 H5         -3.3571    1.8822    0.0450 H         1 <0>         0.1350
     28 H6         -3.3208   -0.5769    0.0307 H         1 <0>         0.1351
     29 H7         -1.1871   -1.7907    0.0034 H         1 <0>         0.1236
     30 H8          2.7396   -1.7574    0.4383 H         1 <0>         0.1257
     31 H9          1.1582   -2.3985    0.4927 H         1 <0>         0.1284
     32 H10         2.7658   -4.0732    0.3459 H         1 <0>         0.1411
     33 H11         3.6187   -6.3280   -0.1348 H         1 <0>         0.1448
     34 H12         3.2988   -5.5785   -4.3263 H         1 <0>         0.1443
     35 H13         2.4333   -3.3235   -3.8694 H         1 <0>         0.1449
@<TRIPOS>BOND
     1    1    2 1
     2    1   23 1
     3    1   24 1
     4    1   25 1
     5    2    3 2
     6    2    4 1
     7    4   12 1
     8    4    5 2
     9    5    6 1
    10    6   11 ar
    11    6    7 ar
    12    7    8 ar
    13    7   26 1
    14    8    9 ar
    15    8   27 1
    16    9   10 ar
    17    9   28 1
    18   10   11 ar
    19   10   29 1
    20   11   12 1
    21   12   13 1
    22   13   14 1
    23   13   30 1
    24   13   31 1
    25   14   15 2
    26   14   16 1
    27   16   21 ar
    28   16   17 ar
    29   17   18 ar
    30   17   32 1
    31   18   19 ar
    32   18   33 1
    33   19   20 ar
    34   19   22 1
    35   20   21 ar
    36   20   34 1
    37   21   35 1
@<TRIPOS>MOLECULE
ZINC00085644
   39    41     0     0     0
SMALL
USER_CHARGES

@<TRIPOS>ATOM
      1 C1         -0.0187    1.5258    0.0104 C.3       1 <0>        -0.1813
      2 C2          0.0021   -0.0041    0.0020 C.3       1 <0>         0.0862
      3 N1         -1.3723   -0.5112    0.0124 N.pl3     1 <0>        -0.4311
      4 C3         -2.0984   -0.7831    1.1286 C.ar      1 <0>         0.0637
      5 C4         -1.8279   -0.6895    2.4960 C.ar      1 <0>        -0.0773
      6 C5         -2.7926   -1.0493    3.4102 C.ar      1 <0>        -0.0837
      7 C6         -4.0315   -1.5043    2.9838 C.ar      1 <0>        -0.0728
      8 C7         -4.3141   -1.6029    1.6369 C.ar      1 <0>        -0.0884
      9 C8         -3.3546   -1.2444    0.7024 C.ar      1 <0>         0.0905
     10 N2         -3.3218   -1.2269   -0.6825 N.pl3     1 <0>        -0.4646
     11 C9         -2.0908   -0.7662   -1.0525 C.cat     1 <0>         0.6448
     12 N3         -1.6662   -0.5979   -2.3536 N.pl3     1 <0>        -0.7970
     13 C10        -4.4076   -1.6237   -1.5824 C.3       1 <0>         0.0584
     14 C11        -5.2713   -0.4266   -1.8858 C.2       1 <0>         0.3808
     15 O1         -5.0060    0.6517   -1.3983 O.2       1 <0>        -0.4224
     16 C12        -6.4361   -0.5660   -2.7731 C.ar      1 <0>        -0.1815
     17 C13        -6.7485   -1.8096   -3.3326 C.ar      1 <0>        -0.0627
     18 C14        -7.8417   -1.9328   -4.1627 C.ar      1 <0>        -0.1189
     19 C15        -8.6302   -0.8287   -4.4440 C.ar      1 <0>         0.0066
     20 C16        -8.3268    0.4062   -3.8934 C.ar      1 <0>        -0.1184
     21 C17        -7.2401    0.5431   -3.0570 C.ar      1 <0>        -0.0359
     22 Cl1       -10.0046   -0.9931   -5.4917 Cl        1 <0>        -0.0394
     23 H1          1.0039    1.9031    0.0027 H         1 <0>         0.1013
     24 H2         -0.5459    1.8868   -0.8726 H         1 <0>         0.0684
     25 H3         -0.5289    1.8773    0.9072 H         1 <0>         0.0771
     26 H4          0.5123   -0.3556   -0.8948 H         1 <0>         0.1105
     27 H5          0.5293   -0.3651    0.8851 H         1 <0>         0.1257
     28 H6         -0.8652   -0.3364    2.8349 H         1 <0>         0.1482
     29 H7         -2.5829   -0.9771    4.4672 H         1 <0>         0.1542
     30 H8         -4.7798   -1.7835    3.7108 H         1 <0>         0.1541
     31 H9         -5.2805   -1.9586    1.3113 H         1 <0>         0.1449
     32 H10        -0.7723   -0.2668   -2.5331 H         1 <0>         0.4401
     33 H11        -3.9871   -2.0127   -2.5097 H         1 <0>         0.1420
     34 H12        -5.0113   -2.3956   -1.1052 H         1 <0>         0.1562
     35 H13        -6.1344   -2.6708   -3.1148 H         1 <0>         0.1410
     36 H14        -8.0841   -2.8922   -4.5954 H         1 <0>         0.1486
     37 H15        -8.9456    1.2625   -4.1173 H         1 <0>         0.1486
     38 H16        -7.0072    1.5053   -2.6252 H         1 <0>         0.1463
     39 H17        -2.2614   -0.8105   -3.0894 H         1 <0>         0.4368
@<TRIPOS>BOND
     1    1    2 1
     2    1   23 1
     3    1   24 1
     4    1   25 1
     5    2    3 1
     6    2   26 1
     7    2   27 1
     8    3   11 2
     9    3    4 1
    10    4    9 ar
    11    4    5 ar
    12    5    6 ar
    13    5   28 1
    14    6    7 ar
    15    6   29 1
    16    7    8 ar
    17    7   30 1
    18    8    9 ar
    19    8   31 1
    20    9   10 1
    21   10   11 1
    22   10   13 1
    23   11   12 1
    24   12   32 1
    25   12   39 1
    26   13   14 1
    27   13   33 1
    28   13   34 1
    29   14   15 2
    30   14   16 1
    31   16   21 ar
    32   16   17 ar
    33   17   18 ar
    34   17   35 1
    35   18   19 ar
    36   18   36 1
    37   19   20 ar
    38   19   22 1
    39   20   21 ar
    40   20   37 1
    41   21   38 1
@<TRIPOS>MOLECULE
ZINC53190616
   57    61     0     0     0
SMALL
USER_CHARGES

@<TRIPOS>ATOM
      1 C1          0.3627    2.1442    0.0106 C.ar      1 <0>        -0.1130
      2 C2          1.6117    2.7353    0.0507 C.ar      1 <0>        -0.1189
      3 C3          2.7491    1.9500    0.0298 C.ar      1 <0>        -0.1180
      4 C4          2.6375    0.5734   -0.0308 C.ar      1 <0>        -0.0900
      5 C5          1.3886   -0.0177   -0.0700 C.ar      1 <0>        -0.0970
      6 C6          0.2512    0.7677   -0.0505 C.ar      1 <0>        -0.1178
      7 C7          3.8775   -0.2827   -0.0547 C.3       1 <0>         0.0966
      8 N1          4.2658   -0.6206    1.3212 N.3       1 <0>        -0.5341
      9 C8          4.6772    0.5790    2.0616 C.3       1 <0>         0.0512
     10 C9          4.9339    0.2136    3.5253 C.3       1 <0>        -0.1359
     11 C10         6.0301   -0.8532    3.5953 C.3       1 <0>         0.0192
     12 C11         5.5977   -2.0727    2.7766 C.3       1 <0>        -0.1339
     13 C12         5.3217   -1.6410    1.3345 C.3       1 <0>         0.0559
     14 N2          6.2401   -1.2503    4.9940 N.4       1 <0>        -0.5057
     15 C13         7.3853   -2.1666    5.0762 C.3       1 <0>         0.0318
     16 C14         7.5131   -2.6963    6.5059 C.3       1 <0>        -0.1005
     17 C15         7.7272   -1.5248    7.4665 C.3       1 <0>        -0.1255
     18 C16         9.0064   -0.7781    7.0830 C.3       1 <0>        -0.0925
     19 C17        10.1992   -1.7324    7.1686 C.3       1 <0>        -0.1138
     20 C18         9.9851   -2.9039    6.2080 C.3       1 <0>        -0.0938
     21 C19         8.7059   -3.6506    6.5915 C.3       1 <0>        -0.1063
     22 C20         9.8573   -2.3743    4.7783 C.3       1 <0>        -0.1064
     23 C21         8.6645   -1.4199    4.6927 C.3       1 <0>        -0.0998
     24 C22         8.8786   -0.2485    5.6533 C.3       1 <0>        -0.1243
     25 H1         -0.5259    2.7575    0.0315 H         1 <0>         0.1247
     26 H2          1.6988    3.8107    0.0981 H         1 <0>         0.1239
     27 H3          3.7248    2.4118    0.0604 H         1 <0>         0.1171
     28 H4          1.3015   -1.0932   -0.1177 H         1 <0>         0.1226
     29 H5         -0.7245    0.3058   -0.0815 H         1 <0>         0.1251
     30 H6          3.6762   -1.1983   -0.6107 H         1 <0>         0.0909
     31 H7          4.6876    0.2645   -0.5368 H         1 <0>         0.0501
     32 H8          5.5900    0.9816    1.6223 H         1 <0>         0.0456
     33 H9          3.8872    1.3280    2.0074 H         1 <0>         0.1027
     34 H10         5.2544    1.1010    4.0711 H         1 <0>         0.0910
     35 H11         4.0179   -0.1763    3.9691 H         1 <0>         0.0964
     36 H12         6.9570   -0.4504    3.1870 H         1 <0>         0.1371
     37 H13         6.3923   -2.8187    2.7874 H         1 <0>         0.0914
     38 H14         4.6920   -2.4985    3.2086 H         1 <0>         0.0969
     39 H15         4.9998   -2.5044    0.7522 H         1 <0>         0.0978
     40 H16         6.2314   -1.2280    0.8986 H         1 <0>         0.0466
     41 H17         6.4246   -0.4304    5.5523 H         1 <0>         0.4226
     42 H18         7.2328   -3.0012    4.3918 H         1 <0>         0.1406
     43 H19         6.6018   -3.2282    6.7791 H         1 <0>         0.0948
     44 H20         6.8775   -0.8449    7.4055 H         1 <0>         0.0569
     45 H21         7.8183   -1.9021    8.4850 H         1 <0>         0.0920
     46 H22         9.1590    0.0565    7.7673 H         1 <0>         0.0873
     47 H23        11.1105   -1.2005    6.8954 H         1 <0>         0.0727
     48 H24        10.2902   -2.1098    8.1872 H         1 <0>         0.0734
     49 H25        10.8348   -3.5838    6.2690 H         1 <0>         0.0878
     50 H26         8.7969   -4.0279    7.6101 H         1 <0>         0.0854
     51 H27         8.5533   -4.4852    5.9072 H         1 <0>         0.0753
     52 H28        10.7686   -1.8423    4.5051 H         1 <0>         0.0845
     53 H29         9.7047   -3.2088    4.0940 H         1 <0>         0.0749
     54 H30         8.5734   -1.0426    3.6742 H         1 <0>         0.0914
     55 H31         8.0289    0.4315    5.5923 H         1 <0>         0.0557
     56 H32         9.7899    0.2835    5.3801 H         1 <0>         0.0918
     57 H33         5.4131   -1.7136    5.3398 H         1 <0>         0.4252
@<TRIPOS>BOND
     1    1    6 ar
     2    1    2 ar
     3    1   25 1
     4    2    3 ar
     5    2   26 1
     6    3    4 ar
     7    3   27 1
     8    4    5 ar
     9    4    7 1
    10    5    6 ar
    11    5   28 1
    12    6   29 1
    13    7    8 1
    14    7   30 1
    15    7   31 1
    16    8   13 1
    17    8    9 1
    18    9   10 1
    19    9   32 1
    20    9   33 1
    21   10   11 1
    22   10   34 1
    23   10   35 1
    24   11   12 1
    25   11   14 1
    26   11   36 1
    27   12   13 1
    28   12   37 1
    29   12   38 1
    30   13   39 1
    31   13   40 1
    32   14   15 1
    33   14   41 1
    34   14   57 1
    35   15   23 1
    36   15   16 1
    37   15   42 1
    38   16   21 1
    39   16   17 1
    40   16   43 1
    41   17   18 1
    42   17   44 1
    43   17   45 1
    44   18   24 1
    45   18   19 1
    46   18   46 1
    47   19   20 1
    48   19   47 1
    49   19   48 1
    50   20   21 1
    51   20   22 1
    52   20   49 1
    53   21   50 1
    54   21   51 1
    55   22   23 1
    56   22   52 1
    57   22   53 1
    58   23   24 1
    59   23   54 1
    60   24   55 1
    61   24   56 1
@<TRIPOS>MOLECULE
ZINC53190616
   46    49     0     0     0
SMALL
USER_CHARGES

@<TRIPOS>ATOM
      1 C1         -0.7304    0.9074    0.3540 C.ar      1 <0>        -0.1271
      2 C2          0.3049    1.8238    0.3822 C.ar      1 <0>        -0.1020
      3 C3          1.6134    1.3926    0.2837 C.ar      1 <0>        -0.1490
      4 C4          1.8887    0.0386    0.1569 C.ar      1 <0>         0.1076
      5 C5          0.8485   -0.8787    0.1293 C.ar      1 <0>        -0.1000
      6 C6         -0.4587   -0.4422    0.2276 C.ar      1 <0>        -0.0845
      7 C7          1.1439   -2.3499   -0.0089 C.3       1 <0>         0.0884
      8 N1          1.3971   -2.9253    1.3188 N.3       1 <0>        -0.5229
      9 C8          2.5192   -2.2533    1.9766 C.3       1 <0>         0.0440
     10 C9          2.6823   -2.7394    3.4128 C.3       1 <0>        -0.1384
     11 C10         1.3096   -3.0614    4.0095 C.3       1 <0>         0.1175
     12 N2          0.9610   -4.4528    3.6991 N.pl3     1 <0>        -0.4315
     13 C11         0.4646   -5.3709    4.5754 C.2       1 <0>        -0.0151
     14 C12         0.2473   -6.5206    3.9046 C.2       1 <0>        -0.2000
     15 C13         0.6318   -6.3072    2.5658 C.2       1 <0>        -0.1877
     16 C14         1.0742   -5.0384    2.4709 C.2       1 <0>         0.0354
     17 C15         1.6206   -4.3751    1.2306 C.3       1 <0>         0.1911
     18 H1          2.6893   -4.5746    1.1517 H         1 <0>         0.0799
     19 C16         0.9148   -4.9202    0.0158 C.ar      1 <0>        -0.0742
     20 C17        -0.4468   -4.7343   -0.1341 C.ar      1 <0>        -0.0774
     21 C18        -1.0943   -5.2342   -1.2483 C.ar      1 <0>        -0.1183
     22 C19        -0.3807   -5.9204   -2.2134 C.ar      1 <0>        -0.1005
     23 C20         0.9805   -6.1069   -2.0647 C.ar      1 <0>        -0.1114
     24 C21         1.6302   -5.6017   -0.9523 C.ar      1 <0>        -0.0269
     25 Cl1         3.3413   -5.8298   -0.7680 Cl        1 <0>        -0.0646
     26 O1          3.1752   -0.3882    0.0594 O.3       1 <0>        -0.4981
     27 H2         -1.7526    1.2462    0.4353 H         1 <0>         0.1260
     28 H3          0.0900    2.8776    0.4810 H         1 <0>         0.1266
     29 H4          2.4215    2.1088    0.3051 H         1 <0>         0.1281
     30 H5         -1.2690   -1.1559    0.2058 H         1 <0>         0.1267
     31 H6          0.2900   -2.8507   -0.4651 H         1 <0>         0.0987
     32 H7          2.0237   -2.4864   -0.6378 H         1 <0>         0.0539
     33 H8          3.4348   -2.4603    1.4226 H         1 <0>         0.0470
     34 H9          2.3397   -1.1782    1.9808 H         1 <0>         0.0791
     35 H10         3.3018   -3.6362    3.4239 H         1 <0>         0.0734
     36 H11         3.1620   -1.9612    4.0065 H         1 <0>         0.0894
     37 H12         1.3420   -2.9269    5.0906 H         1 <0>         0.0839
     38 H13         0.5611   -2.3946    3.5814 H         1 <0>         0.0928
     39 H14         0.2777   -5.2063    5.6263 H         1 <0>         0.1587
     40 H15        -0.1486   -7.4365    4.3176 H         1 <0>         0.1331
     41 H16         0.5812   -7.0283    1.7633 H         1 <0>         0.1282
     42 H17        -1.0048   -4.1987    0.6196 H         1 <0>         0.1355
     43 H18        -2.1582   -5.0890   -1.3648 H         1 <0>         0.1312
     44 H19        -0.8873   -6.3111   -3.0836 H         1 <0>         0.1334
     45 H20         1.5377   -6.6432   -2.8185 H         1 <0>         0.1351
     46 H21         3.6256   -0.4775    0.9104 H         1 <0>         0.3848
@<TRIPOS>BOND
     1    1    6 ar
     2    1    2 ar
     3    1   27 1
     4    2    3 ar
     5    2   28 1
     6    3    4 ar
     7    3   29 1
     8    4    5 ar
     9    4   26 1
    10    5    6 ar
    11    5    7 1
    12    6   30 1
    13    7    8 1
    14    7   31 1
    15    7   32 1
    16    8   17 1
    17    8    9 1
    18    9   10 1
    19    9   33 1
    20    9   34 1
    21   10   11 1
    22   10   35 1
    23   10   36 1
    24   11   12 1
    25   11   37 1
    26   11   38 1
    27   12   16 1
    28   12   13 1
    29   13   14 2
    30   13   39 1
    31   14   15 1
    32   14   40 1
    33   15   16 2
    34   15   41 1
    35   16   17 1
    36   17   18 1
    37   17   19 1
    38   19   24 ar
    39   19   20 ar
    40   20   21 ar
    41   20   42 1
    42   21   22 ar
    43   21   43 1
    44   22   23 ar
    45   22   44 1
    46   23   24 ar
    47   23   45 1
    48   24   25 1
    49   26   46 1
@<TRIPOS>MOLECULE
ZINC53190616
   47    50     0     0     0
SMALL
USER_CHARGES

@<TRIPOS>ATOM
      1 C1         -1.1692    0.7979    0.1252 C.ar      1 <0>        -0.1182
      2 C2         -0.2173    1.7963    0.2220 C.ar      1 <0>        -0.0676
      3 C3          1.1247    1.4714    0.2593 C.ar      1 <0>        -0.1403
      4 C4          1.5173    0.1419    0.2001 C.ar      1 <0>         0.1262
      5 C5          0.5605   -0.8577    0.1034 C.ar      1 <0>        -0.1788
      6 C6         -0.7806   -0.5275    0.0659 C.ar      1 <0>        -0.0784
      7 C7          0.9834   -2.3027    0.0384 C.3       1 <0>         0.0320
      8 N1          1.1506   -2.8258    1.4008 N.4       1 <0>        -0.3819
      9 C8          2.2523   -2.1210    2.0602 C.3       1 <0>        -0.0213
     10 C9          2.4161   -2.5867    3.5017 C.3       1 <0>        -0.1621
     11 C10         1.0466   -2.9347    4.0920 C.3       1 <0>         0.0834
     12 N2          0.7452   -4.3407    3.7995 N.pl3     1 <0>        -0.4560
     13 C11         0.2623   -5.2636    4.6768 C.2       1 <0>         0.0329
     14 C12         0.1032   -6.4294    4.0172 C.2       1 <0>        -0.1933
     15 C13         0.5085   -6.2191    2.6840 C.2       1 <0>        -0.1149
     16 C14         0.9029   -4.9352    2.5800 C.2       1 <0>        -0.0621
     17 C15         1.4392   -4.2652    1.3384 C.3       1 <0>         0.1641
     18 H1          2.5168   -4.4180    1.2789 H         1 <0>         0.1516
     19 C16         0.7781   -4.8585    0.1210 C.ar      1 <0>        -0.1293
     20 C17        -0.5844   -4.7168   -0.0640 C.ar      1 <0>        -0.0952
     21 C18        -1.1909   -5.2609   -1.1805 C.ar      1 <0>        -0.1023
     22 C19        -0.4352   -5.9473   -2.1129 C.ar      1 <0>        -0.0723
     23 C20         0.9270   -6.0896   -1.9291 C.ar      1 <0>        -0.0977
     24 C21         1.5356   -5.5402   -0.8145 C.ar      1 <0>        -0.0099
     25 Cl1         3.2479   -5.7129   -0.5862 Cl        1 <0>        -0.0425
     26 O1          2.8371   -0.1803    0.2362 O.3       1 <0>        -0.4929
     27 H2         -2.2181    1.0538    0.1003 H         1 <0>         0.1411
     28 H3         -0.5234    2.8310    0.2681 H         1 <0>         0.1423
     29 H4          1.8678    2.2515    0.3343 H         1 <0>         0.1438
     30 H5         -1.5259   -1.3054   -0.0097 H         1 <0>         0.1361
     31 H6          0.2204   -2.8816   -0.4820 H         1 <0>         0.1482
     32 H7          1.9284   -2.3809   -0.4993 H         1 <0>         0.1434
     33 H8          3.1767   -2.3126    1.5153 H         1 <0>         0.1430
     34 H9          2.0483   -1.0503    2.0513 H         1 <0>         0.1273
     35 H10         3.0565   -3.4684    3.5272 H         1 <0>         0.1078
     36 H11         2.8728   -1.7909    4.0901 H         1 <0>         0.1316
     37 H12         1.0651   -2.7823    5.1711 H         1 <0>         0.1267
     38 H13         0.2839   -2.2973    3.6449 H         1 <0>         0.0816
     39 H14         0.0440   -5.0916    5.7204 H         1 <0>         0.1770
     40 H15        -0.2672   -7.3543    4.4343 H         1 <0>         0.1511
     41 H16         0.5037   -6.9525    1.8912 H         1 <0>         0.1443
     42 H17        -1.1753   -4.1811    0.6643 H         1 <0>         0.1327
     43 H18        -2.2555   -5.1502   -1.3243 H         1 <0>         0.1448
     44 H19        -0.9097   -6.3725   -2.9850 H         1 <0>         0.1482
     45 H20         1.5171   -6.6260   -2.6574 H         1 <0>         0.1501
     46 H21         3.2064   -0.2264    1.1287 H         1 <0>         0.3890
     47 H22         0.3001   -2.6774    1.9231 H         1 <0>         0.4166
@<TRIPOS>BOND
     1    1    6 ar
     2    1    2 ar
     3    1   27 1
     4    2    3 ar
     5    2   28 1
     6    3    4 ar
     7    3   29 1
     8    4    5 ar
     9    4   26 1
    10    5    6 ar
    11    5    7 1
    12    6   30 1
    13    7    8 1
    14    7   31 1
    15    7   32 1
    16    8   17 1
    17    8    9 1
    18    8   47 1
    19    9   10 1
    20    9   33 1
    21    9   34 1
    22   10   11 1
    23   10   35 1
    24   10   36 1
    25   11   12 1
    26   11   37 1
    27   11   38 1
    28   12   16 1
    29   12   13 1
    30   13   14 2
    31   13   39 1
    32   14   15 1
    33   14   40 1
    34   15   16 2
    35   15   41 1
    36   16   17 1
    37   17   18 1
    38   17   19 1
    39   19   24 ar
    40   19   20 ar
    41   20   21 ar
    42   20   42 1
    43   21   22 ar
    44   21   43 1
    45   22   23 ar
    46   22   44 1
    47   23   24 ar
    48   23   45 1
    49   24   25 1
    50   26   46 1
