@<TRIPOS>MOLECULE
ZINC10743196
   82    84     0     0     0
SMALL
USER_CHARGES
N-[2-carbamoyl-1-(cyclobutylmethyl)-2-oxo-ethyl]-3-[3,3-dimethyl-2-(tert-butylcarbamoylamino)butanoyl]-6,6-dimethyl-3-azabicyclo[3.1.0]hexane-4-carboxamide
@<TRIPOS>ATOM
      1 C1         -0.5729   -1.5214    0.8974 C.3       1 <0>        -0.1650
      2 C2          0.0758   -1.7289   -0.4727 C.3       1 <0>        -0.0726
      3 C3         -0.1584   -0.6522   -1.5341 C.3       1 <0>        -0.1602
      4 H1         -0.3204   -0.9328   -2.5749 H         1 <0>         0.1290
      5 C4          1.2220   -0.7922   -0.8594 C.3       1 <0>        -0.1699
      6 H2          2.0848   -1.1906   -1.3932 H         1 <0>         0.1336
      7 C5          1.4134    0.5192   -0.0674 C.3       1 <0>         0.1450
      8 H3          2.4539    0.8411   -0.1109 H         1 <0>         0.1218
      9 N1          0.5242    1.4940   -0.7212 N.am      1 <0>        -0.5918
     10 C6         -0.6903    0.7216   -1.0722 C.3       1 <0>         0.1102
     11 C7          0.7729    2.7970   -0.9596 C.2       1 <0>         0.5450
     12 O1          1.8539    3.2694   -0.6783 O.2       1 <0>        -0.5281
     13 C8         -0.2923    3.6669   -1.5758 C.3       1 <0>         0.1672
     14 H4         -1.2729    3.2312   -1.3844 H         1 <0>         0.1075
     15 C9         -0.0625    3.7626   -3.0854 C.3       1 <0>        -0.0715
     16 C10         0.0050    2.3549   -3.6812 C.3       1 <0>        -0.1506
     17 C11        -1.2164    4.5340   -3.7291 C.3       1 <0>        -0.1290
     18 C12         1.2537    4.4944   -3.3556 C.3       1 <0>        -0.1423
     19 N2         -0.2298    5.0067   -0.9865 N.am      1 <0>        -0.7308
     20 C13        -1.3272    5.7891   -0.9735 C.2       1 <0>         0.7117
     21 O2         -2.3691    5.3829   -1.4509 O.2       1 <0>        -0.5768
     22 N3         -1.2697    7.0216   -0.4314 N.am      1 <0>        -0.7387
     23 C14        -2.4626    7.8720   -0.4173 C.3       1 <0>         0.1879
     24 C15        -3.5765    7.1751    0.3664 C.3       1 <0>        -0.1646
     25 C16        -2.1287    9.2079    0.2496 C.3       1 <0>        -0.1562
     26 C17        -2.9283    8.1212   -1.8533 C.3       1 <0>        -0.1643
     27 C18         0.9804    0.3364    1.3644 C.2       1 <0>         0.5299
     28 O3         -0.0833    0.7835    1.7381 O.2       1 <0>        -0.5251
     29 N4          1.7751   -0.3241    2.2297 N.am      1 <0>        -0.7185
     30 C19         1.3542   -0.5019    3.6216 C.3       1 <0>         0.1350
     31 H5          0.3624   -0.6245    3.6568 H         1 <0>         0.1163
     32 C20         2.0418   -1.7361    4.2087 C.3       1 <0>        -0.1142
     33 C21         1.5554   -2.9879    3.4757 C.3       1 <0>        -0.1103
     34 C22         0.2776   -3.5965    4.0771 C.3       1 <0>        -0.1376
     35 C23         0.9110   -4.9754    3.8276 C.3       1 <0>        -0.1425
     36 C24         2.2776   -4.2748    3.9083 C.3       1 <0>        -0.1353
     37 C25         1.7386    0.7157    4.4220 C.2       1 <0>         0.3358
     38 O4          2.5307    1.5089    3.9721 O.2       1 <0>        -0.4020
     39 C26         1.1413    0.9413    5.7693 C.2       1 <0>         0.4840
     40 O5          0.3455    0.1443    6.2214 O.2       1 <0>        -0.5038
     41 N5          1.4851    2.0302    6.4852 N.am      1 <0>        -0.8270
     42 C27         0.1608   -3.1808   -0.9479 C.3       1 <0>        -0.1152
     43 H6         -1.3304   -0.7408    0.8262 H         1 <0>         0.0776
     44 H7         -1.0389   -2.4512    1.2234 H         1 <0>         0.0613
     45 H8          0.1885   -1.2242    1.6185 H         1 <0>         0.0900
     46 H9         -1.2315    1.2114   -1.8817 H         1 <0>         0.0936
     47 H10        -1.3329    0.6064   -0.1993 H         1 <0>         0.0974
     48 H11        -0.9616    1.8647   -3.5655 H         1 <0>         0.0614
     49 H12         0.2549    2.4202   -4.7401 H         1 <0>         0.0654
     50 H13         0.7699    1.7771   -3.1623 H         1 <0>         0.0582
     51 H14        -1.2645    5.5368   -3.3046 H         1 <0>         0.0625
     52 H15        -1.0527    4.6021   -4.8046 H         1 <0>         0.0497
     53 H16        -2.1541    4.0126   -3.5366 H         1 <0>         0.0622
     54 H17         2.0758    3.9448   -2.8970 H         1 <0>         0.0618
     55 H18         1.4174    4.5625   -4.4310 H         1 <0>         0.0565
     56 H19         1.2056    5.4972   -2.9311 H         1 <0>         0.0562
     57 H20         0.6013    5.3308   -0.6056 H         1 <0>         0.4028
     58 H21        -0.4386    7.3457   -0.0505 H         1 <0>         0.3946
     59 H22        -3.2448    6.9976    1.3894 H         1 <0>         0.0513
     60 H23        -4.4641    7.8078    0.3769 H         1 <0>         0.0618
     61 H24        -3.8144    6.2234   -0.1087 H         1 <0>         0.0810
     62 H25        -1.3351    9.7045   -0.3088 H         1 <0>         0.0617
     63 H26        -3.0162    9.8406    0.2601 H         1 <0>         0.0751
     64 H27        -1.7969    9.0304    1.2726 H         1 <0>         0.0613
     65 H28        -3.1661    7.1695   -2.3284 H         1 <0>         0.0816
     66 H29        -3.8158    8.7539   -1.8428 H         1 <0>         0.0617
     67 H30        -2.1347    8.6177   -2.4116 H         1 <0>         0.0518
     68 H31         2.6258   -0.6817    1.9308 H         1 <0>         0.4086
     69 H32         3.1212   -1.6418    4.0897 H         1 <0>         0.0783
     70 H33         1.7988   -1.8180    5.2681 H         1 <0>         0.0954
     71 H34         1.5103   -2.8548    2.3948 H         1 <0>         0.0973
     72 H35         0.1386   -3.3645    5.1330 H         1 <0>         0.0852
     73 H36        -0.6162   -3.4123    3.4810 H         1 <0>         0.0674
     74 H37         0.6885   -5.3863    2.8428 H         1 <0>         0.0794
     75 H38         0.7374   -5.6880    4.6339 H         1 <0>         0.0676
     76 H39         2.9985   -4.6382    3.1759 H         1 <0>         0.0676
     77 H40         2.6867   -4.2277    4.9175 H         1 <0>         0.0816
     78 H41         2.1212    2.6672    6.1239 H         1 <0>         0.4113
     79 H42         1.0965    2.1769    7.3617 H         1 <0>         0.4114
     80 H43         0.1871   -3.2056   -2.0373 H         1 <0>         0.0610
     81 H44         1.0665   -3.6402   -0.5520 H         1 <0>         0.0655
     82 H45        -0.7107   -3.7309   -0.5928 H         1 <0>         0.0678
@<TRIPOS>BOND
     1    1    2 1
     2    1   43 1
     3    1   44 1
     4    1   45 1
     5    2    5 1
     6    2    3 1
     7    2   42 1
     8    3    4 1
     9    3   10 1
    10    3    5 1
    11    5    6 1
    12    5    7 1
    13    7    8 1
    14    7    9 1
    15    7   27 1
    16    9   10 1
    17    9   11 am
    18   10   46 1
    19   10   47 1
    20   11   12 2
    21   11   13 1
    22   13   14 1
    23   13   15 1
    24   13   19 1
    25   15   16 1
    26   15   17 1
    27   15   18 1
    28   16   48 1
    29   16   49 1
    30   16   50 1
    31   17   51 1
    32   17   52 1
    33   17   53 1
    34   18   54 1
    35   18   55 1
    36   18   56 1
    37   19   20 am
    38   19   57 1
    39   20   21 2
    40   20   22 am
    41   22   23 1
    42   22   58 1
    43   23   24 1
    44   23   25 1
    45   23   26 1
    46   24   59 1
    47   24   60 1
    48   24   61 1
    49   25   62 1
    50   25   63 1
    51   25   64 1
    52   26   65 1
    53   26   66 1
    54   26   67 1
    55   27   28 2
    56   27   29 am
    57   29   30 1
    58   29   68 1
    59   30   31 1
    60   30   32 1
    61   30   37 1
    62   32   33 1
    63   32   69 1
    64   32   70 1
    65   33   36 1
    66   33   34 1
    67   33   71 1
    68   34   35 1
    69   34   72 1
    70   34   73 1
    71   35   36 1
    72   35   74 1
    73   35   75 1
    74   36   76 1
    75   36   77 1
    76   37   38 2
    77   37   39 1
    78   39   40 2
    79   39   41 am
    80   41   78 1
    81   41   79 1
    82   42   80 1
    83   42   81 1
    84   42   82 1
@<TRIPOS>MOLECULE
ZINC14210455
   82    84     0     0     0
SMALL
USER_CHARGES
(1S,4S,5R)-N-[(1S)-3-amino-1-(cyclobutylmethyl)-2,3-dioxo-propyl]-3-[(2S)-2-(tert-butylcarbamoylamino)-3,3-dimethyl-butanoyl]-6,6-dimethyl-3-azabicyclo[3.1.0]hexane-4-carboxamide
@<TRIPOS>ATOM
      1 C1          7.5547    3.7597   -5.7148 C.3       1 <0>        -0.1152
      2 C2          6.7695    2.5173   -5.2894 C.3       1 <0>        -0.0741
      3 C3          7.5571    1.3671   -4.6589 C.3       1 <0>        -0.1632
      4 H1          8.6239    1.4864   -4.4697 H         1 <0>         0.1311
      5 C4          6.9948    1.2327   -6.0894 C.3       1 <0>        -0.1680
      6 H2          7.6217    1.2576   -6.9807 H         1 <0>         0.1330
      7 C5          5.9282    0.1204   -5.9955 C.3       1 <0>         0.1486
      8 H3          5.0773    0.3549   -6.6351 H         1 <0>         0.1160
      9 N1          5.5182    0.1148   -4.5719 N.am      1 <0>        -0.5957
     10 C6          6.7800    0.3307   -3.8263 C.3       1 <0>         0.1194
     11 C7          4.2779   -0.0447   -4.0693 C.2       1 <0>         0.5481
     12 O1          3.3273   -0.1336   -4.8173 O.2       1 <0>        -0.5286
     13 C8          4.0721   -0.1127   -2.5780 C.3       1 <0>         0.1656
     14 H4          4.8141    0.5115   -2.0800 H         1 <0>         0.1084
     15 C9          4.2251   -1.5604   -2.1075 C.3       1 <0>        -0.0694
     16 C10         3.2264   -2.4474   -2.8537 C.3       1 <0>        -0.1403
     17 C11         5.6487   -2.0422   -2.3943 C.3       1 <0>        -0.1574
     18 C12         3.9532   -1.6395   -0.6039 C.3       1 <0>        -0.1272
     19 N2          2.7284    0.3687   -2.2480 N.am      1 <0>        -0.7322
     20 C13         2.4755    0.8754   -1.0250 C.2       1 <0>         0.7121
     21 O2          3.3627    0.9332   -0.1956 O.2       1 <0>        -0.5780
     22 N3          1.2393    1.3182   -0.7214 N.am      1 <0>        -0.7387
     23 C14         0.9645    1.8691    0.6079 C.3       1 <0>         0.1880
     24 C15         1.8625    3.0835    0.8524 C.3       1 <0>        -0.1642
     25 C16         1.2467    0.8041    1.6696 C.3       1 <0>        -0.1648
     26 C17        -0.5028    2.2950    0.6902 C.3       1 <0>        -0.1564
     27 C18         6.5198   -1.2120   -6.3772 C.2       1 <0>         0.5210
     28 O3          6.9125   -1.9702   -5.5160 O.2       1 <0>        -0.5174
     29 N4          6.6125   -1.5609   -7.6757 N.am      1 <0>        -0.7115
     30 C19         7.1876   -2.8562   -8.0469 C.3       1 <0>         0.1363
     31 H5          6.9412   -3.5395   -7.3596 H         1 <0>         0.1154
     32 C20         6.6419   -3.2846   -9.4105 C.3       1 <0>        -0.1133
     33 C21         5.1350   -3.5266   -9.3037 C.3       1 <0>        -0.1096
     34 C22         4.7697   -4.9571   -8.8735 C.3       1 <0>        -0.1375
     35 C23         3.6238   -4.8880   -9.8967 C.3       1 <0>        -0.1435
     36 C24         4.4651   -3.8448  -10.6508 C.3       1 <0>        -0.1352
     37 C25         8.6881   -2.7368   -8.1212 C.2       1 <0>         0.3395
     38 O4          9.2060   -1.6464   -8.1588 O.2       1 <0>        -0.4045
     39 C26         9.5331   -3.9648   -8.1483 C.2       1 <0>         0.4836
     40 O5          9.0127   -5.0605   -8.1105 O.2       1 <0>        -0.5030
     41 N5         10.8750   -3.8580   -8.2147 N.am      1 <0>        -0.8271
     42 C27         5.3587    2.7791   -4.7585 C.3       1 <0>        -0.1303
     43 H6          7.3035    4.0133   -6.7447 H         1 <0>         0.0646
     44 H7          7.2968    4.5936   -5.0620 H         1 <0>         0.0667
     45 H8          8.6232    3.5572   -5.6407 H         1 <0>         0.0609
     46 H9          6.5711    0.7236   -2.8312 H         1 <0>         0.0874
     47 H10         7.3449   -0.5990   -3.7579 H         1 <0>         0.1045
     48 H11         3.4201   -2.3911   -3.9248 H         1 <0>         0.0553
     49 H12         3.3354   -3.4789   -2.5185 H         1 <0>         0.0577
     50 H13         2.2123   -2.1042   -2.6493 H         1 <0>         0.0557
     51 H14         6.3625   -1.3722   -1.9151 H         1 <0>         0.0571
     52 H15         5.7770   -3.0508   -2.0015 H         1 <0>         0.0613
     53 H16         5.8207   -2.0468   -3.4706 H         1 <0>         0.0773
     54 H17         2.9390   -1.2963   -0.3995 H         1 <0>         0.0552
     55 H18         4.0622   -2.6709   -0.2687 H         1 <0>         0.0494
     56 H19         4.6646   -1.0076   -0.0723 H         1 <0>         0.0674
     57 H20         2.0206    0.3226   -2.9097 H         1 <0>         0.4036
     58 H21         0.5316    1.2722   -1.3832 H         1 <0>         0.3948
     59 H22         2.9078    2.7801    0.7938 H         1 <0>         0.0809
     60 H23         1.6614    3.8422    0.0961 H         1 <0>         0.0514
     61 H24         1.6580    3.4933    1.8415 H         1 <0>         0.0616
     62 H25         1.0422    1.2140    2.6587 H         1 <0>         0.0615
     63 H26         0.6070   -0.0610    1.4954 H         1 <0>         0.0517
     64 H27         2.2920    0.5008    1.6110 H         1 <0>         0.0817
     65 H28        -0.7038    3.0536   -0.0662 H         1 <0>         0.0615
     66 H29        -1.1425    1.4298    0.5160 H         1 <0>         0.0617
     67 H30        -0.7072    2.7048    1.6793 H         1 <0>         0.0750
     68 H31         6.2984   -0.9545   -8.3646 H         1 <0>         0.4082
     69 H32         6.8328   -2.4988  -10.1414 H         1 <0>         0.0782
     70 H33         7.1359   -4.2032   -9.7272 H         1 <0>         0.0955
     71 H34         4.6215   -2.7530   -8.7327 H         1 <0>         0.0937
     72 H35         5.5322   -5.6956   -9.1211 H         1 <0>         0.0859
     73 H36         4.4291   -5.0289   -7.8406 H         1 <0>         0.0666
     74 H37         2.6963   -4.4876   -9.4872 H         1 <0>         0.0793
     75 H38         3.4761   -5.8141  -10.4521 H         1 <0>         0.0684
     76 H39         3.8786   -3.0186  -11.0528 H         1 <0>         0.0680
     77 H40         5.1443   -4.2792  -11.3844 H         1 <0>         0.0824
     78 H41        11.2910   -2.9823   -8.2450 H         1 <0>         0.4112
     79 H42        11.4248   -4.6570   -8.2324 H         1 <0>         0.4115
     80 H43         5.0653    1.9686   -4.0914 H         1 <0>         0.0673
     81 H44         5.3453    3.7222   -4.2122 H         1 <0>         0.0592
     82 H45         4.6604    2.8330   -5.5937 H         1 <0>         0.0591
@<TRIPOS>BOND
     1    1    2 1
     2    1   43 1
     3    1   44 1
     4    1   45 1
     5    2    5 1
     6    2    3 1
     7    2   42 1
     8    3    4 1
     9    3   10 1
    10    3    5 1
    11    5    6 1
    12    5    7 1
    13    7    8 1
    14    7    9 1
    15    7   27 1
    16    9   10 1
    17    9   11 am
    18   10   46 1
    19   10   47 1
    20   11   12 2
    21   11   13 1
    22   13   14 1
    23   13   15 1
    24   13   19 1
    25   15   16 1
    26   15   17 1
    27   15   18 1
    28   16   48 1
    29   16   49 1
    30   16   50 1
    31   17   51 1
    32   17   52 1
    33   17   53 1
    34   18   54 1
    35   18   55 1
    36   18   56 1
    37   19   20 am
    38   19   57 1
    39   20   21 2
    40   20   22 am
    41   22   23 1
    42   22   58 1
    43   23   24 1
    44   23   25 1
    45   23   26 1
    46   24   59 1
    47   24   60 1
    48   24   61 1
    49   25   62 1
    50   25   63 1
    51   25   64 1
    52   26   65 1
    53   26   66 1
    54   26   67 1
    55   27   28 2
    56   27   29 am
    57   29   30 1
    58   29   68 1
    59   30   31 1
    60   30   32 1
    61   30   37 1
    62   32   33 1
    63   32   69 1
    64   32   70 1
    65   33   36 1
    66   33   34 1
    67   33   71 1
    68   34   35 1
    69   34   72 1
    70   34   73 1
    71   35   36 1
    72   35   74 1
    73   35   75 1
    74   36   76 1
    75   36   77 1
    76   37   38 2
    77   37   39 1
    78   39   40 2
    79   39   41 am
    80   41   78 1
    81   41   79 1
    82   42   80 1
    83   42   81 1
    84   42   82 1
@<TRIPOS>MOLECULE
ZINC28644284
   82    84     0     0     0
SMALL
USER_CHARGES
(1S,4S,5R)-N-[(1S)-3-amino-1-(cyclobutylmethyl)-2,3-dioxo-propyl]-3-[(2R)-2-(tert-butylcarbamoylamino)-3,3-dimethyl-butanoyl]-6,6-dimethyl-3-azabicyclo[3.1.0]hexane-4-carboxamide
@<TRIPOS>ATOM
      1 C1          3.7471    8.6660   -2.7034 C.3       1 <0>        -0.1160
      2 C2          3.4091    7.5907   -1.6688 C.3       1 <0>        -0.0612
      3 C3          2.3882    7.9490   -0.5871 C.3       1 <0>        -0.1515
      4 H1          1.5696    8.6837   -0.5987 H         1 <0>         0.1382
      5 C4          3.8842    7.8198   -0.2326 C.3       1 <0>        -0.1395
      6 H2          4.7304    8.4111    0.1474 H         1 <0>         0.1359
      7 C5          3.9665    6.5999    0.7100 C.3       1 <0>         0.1246
      8 H3          4.8842    6.0050    0.5921 H         1 <0>         0.1141
      9 N1          2.7677    5.7933    0.3832 N.am      1 <0>        -0.5949
     10 C6          1.6991    6.7962    0.1661 C.3       1 <0>         0.0927
     11 C7          2.6722    4.4517    0.2970 C.2       1 <0>         0.5405
     12 O1          3.6237    3.7564    0.5838 O.2       1 <0>        -0.5148
     13 C8          1.3832    3.8155   -0.1556 C.3       1 <0>         0.1710
     14 H4          1.3242    3.8335   -1.2539 H         1 <0>         0.1162
     15 C9          1.3078    2.3825    0.3754 C.3       1 <0>        -0.0570
     16 C10        -0.0620    1.7872    0.0435 C.3       1 <0>        -0.1301
     17 C11         2.4030    1.5379   -0.2788 C.3       1 <0>        -0.1583
     18 C12         1.5068    2.3896    1.8923 C.3       1 <0>        -0.1464
     19 N2          0.2501    4.5877    0.3602 N.am      1 <0>        -0.7565
     20 C13        -0.9365    4.5511   -0.2780 C.2       1 <0>         0.7126
     21 O2         -1.0679    3.8734   -1.2788 O.2       1 <0>        -0.5796
     22 N3         -1.9789    5.2615    0.1965 N.am      1 <0>        -0.7494
     23 C14        -3.2687    5.2218   -0.4971 C.3       1 <0>         0.1936
     24 C15        -3.7864    3.7824   -0.5293 C.3       1 <0>        -0.1663
     25 C16        -4.2728    6.1085    0.2421 C.3       1 <0>        -0.1564
     26 C17        -3.0939    5.7331   -1.9285 C.3       1 <0>        -0.1651
     27 C18         3.9244    7.0443    2.1494 C.2       1 <0>         0.5191
     28 O3          2.8751    7.0316    2.7576 O.2       1 <0>        -0.5299
     29 N4          5.0527    7.4559    2.7609 N.am      1 <0>        -0.7248
     30 C19         5.0118    7.8879    4.1602 C.3       1 <0>         0.1237
     31 H5          4.2581    7.2740    4.6750 H         1 <0>         0.1270
     32 C20         6.3936    7.7049    4.7910 C.3       1 <0>        -0.1265
     33 C21         6.7399    6.2153    4.8373 C.3       1 <0>        -0.1387
     34 C22         6.2315    5.5036    6.1021 C.3       1 <0>        -0.1448
     35 C23         7.5660    4.7396    6.1134 C.3       1 <0>        -0.1130
     36 C24         8.1635    5.9293    5.3438 C.3       1 <0>        -0.1127
     37 C25         4.6180    9.3410    4.2259 C.2       1 <0>         0.3427
     38 O4          4.6575   10.0231    3.2299 O.2       1 <0>        -0.4105
     39 C26         4.1796    9.9367    5.5204 C.2       1 <0>         0.4829
     40 O5          4.1398    9.2513    6.5212 O.2       1 <0>        -0.5152
     41 N5          3.8274   11.2363    5.5793 N.am      1 <0>        -0.8516
     42 C27         3.4074    6.1521   -2.1899 C.3       1 <0>        -0.1527
     43 H6          3.3462    8.3701   -3.6841 H         1 <0>         0.0660
     44 H7          4.8392    8.7781   -2.7723 H         1 <0>         0.0644
     45 H8          3.2989    9.6228   -2.3976 H         1 <0>         0.0615
     46 H9          1.2925    7.1708    1.1170 H         1 <0>         0.0929
     47 H10         0.8810    6.3934   -0.4492 H         1 <0>         0.0989
     48 H11        -0.1163    0.7570    0.4252 H         1 <0>         0.0469
     49 H12        -0.2051    1.7822   -1.0471 H         1 <0>         0.0682
     50 H13        -0.8494    2.3945    0.5138 H         1 <0>         0.0520
     51 H14         2.3488    0.5077    0.1030 H         1 <0>         0.0541
     52 H15         3.3878    1.9660   -0.0403 H         1 <0>         0.0898
     53 H16         2.2598    1.5328   -1.3694 H         1 <0>         0.0498
     54 H17         1.4526    1.3594    2.2740 H         1 <0>         0.0559
     55 H18         0.7193    2.9968    2.3626 H         1 <0>         0.0478
     56 H19         2.4916    2.8177    2.1309 H         1 <0>         0.0661
     57 H20         0.3678    5.1973    1.2682 H         1 <0>         0.4172
     58 H21        -1.8613    5.8711    1.1045 H         1 <0>         0.4112
     59 H22        -4.7548    3.7526   -1.0501 H         1 <0>         0.0598
     60 H23        -3.9120    3.4148    0.4998 H         1 <0>         0.0509
     61 H24        -3.0645    3.1449   -1.0608 H         1 <0>         0.0819
     62 H25        -5.2412    6.0787   -0.2787 H         1 <0>         0.0733
     63 H26        -3.9006    7.1434    0.2652 H         1 <0>         0.0614
     64 H27        -4.3984    5.7409    1.2712 H         1 <0>         0.0614
     65 H28        -4.0623    5.7033   -2.4493 H         1 <0>         0.0600
     66 H29        -2.3720    5.0956   -2.4600 H         1 <0>         0.0808
     67 H30        -2.7217    6.7680   -1.9053 H         1 <0>         0.0510
     68 H31         6.0043    7.4675    2.2093 H         1 <0>         0.4274
     69 H32         7.1448    8.2375    4.1892 H         1 <0>         0.0752
     70 H33         6.3869    8.1117    5.8130 H         1 <0>         0.0883
     71 H34         6.4074    5.9278    3.8290 H         1 <0>         0.0964
     72 H35         6.0329    6.2482    6.8870 H         1 <0>         0.0843
     73 H36         5.3040    4.9600    5.8692 H         1 <0>         0.0630
     74 H37         7.8780    4.5620    7.1532 H         1 <0>         0.0696
     75 H38         7.4411    3.7757    5.5984 H         1 <0>         0.0845
     76 H39         8.8256    5.7360    4.4869 H         1 <0>         0.0678
     77 H40         8.5348    6.7995    5.9050 H         1 <0>         0.0844
     78 H41         3.5040   11.6757    6.5344 H         1 <0>         0.4328
     79 H42         3.8634   11.8575    4.6722 H         1 <0>         0.4324
     80 H43         3.1537    5.4651   -1.3691 H         1 <0>         0.0805
     81 H44         4.4046    5.9029   -2.5817 H         1 <0>         0.0592
     82 H45         2.6627    6.0541   -2.9935 H         1 <0>         0.0597
@<TRIPOS>BOND
     1    1    2 1
     2    1   43 1
     3    1   44 1
     4    1   45 1
     5    2    5 1
     6    2    3 1
     7    2   42 1
     8    3    4 1
     9    3   10 1
    10    3    5 1
    11    5    6 1
    12    5    7 1
    13    7    8 1
    14    7    9 1
    15    7   27 1
    16    9   10 1
    17    9   11 am
    18   10   46 1
    19   10   47 1
    20   11   12 2
    21   11   13 1
    22   13   14 1
    23   13   15 1
    24   13   19 1
    25   15   16 1
    26   15   17 1
    27   15   18 1
    28   16   48 1
    29   16   49 1
    30   16   50 1
    31   17   51 1
    32   17   52 1
    33   17   53 1
    34   18   54 1
    35   18   55 1
    36   18   56 1
    37   19   20 am
    38   19   57 1
    39   20   21 2
    40   20   22 am
    41   22   23 1
    42   22   58 1
    43   23   24 1
    44   23   25 1
    45   23   26 1
    46   24   59 1
    47   24   60 1
    48   24   61 1
    49   25   62 1
    50   25   63 1
    51   25   64 1
    52   26   65 1
    53   26   66 1
    54   26   67 1
    55   27   28 2
    56   27   29 am
    57   29   30 1
    58   29   68 1
    59   30   31 1
    60   30   32 1
    61   30   37 1
    62   32   33 1
    63   32   69 1
    64   32   70 1
    65   33   36 1
    66   33   34 1
    67   33   71 1
    68   34   35 1
    69   34   72 1
    70   34   73 1
    71   35   36 1
    72   35   74 1
    73   35   75 1
    74   36   76 1
    75   36   77 1
    76   37   38 2
    77   37   39 1
    78   39   40 2
    79   39   41 am
    80   41   78 1
    81   41   79 1
    82   42   80 1
    83   42   81 1
    84   42   82 1
