@<TRIPOS>MOLECULE
ZINC05131852
   29    29     0     0     0
SMALL
USER_CHARGES
2,6-bis(hydroxymethyl)piperidine-3,4,5-triol
@<TRIPOS>ATOM
      1 C1         -0.0707   -0.4444   -2.4062 C.3       1 <0>         0.0507
      2 C2         -0.0919    1.0854   -2.4140 C.3       1 <0>         0.0469
      3 H1         -0.6593    1.4364   -3.2760 H         1 <0>         0.1570
      4 C3          1.3415    1.6149   -2.4971 C.3       1 <0>         0.0643
      5 H2          1.8155    1.2408   -3.4046 H         1 <0>         0.1052
      6 C4          2.1290    1.1362   -1.2744 C.3       1 <0>         0.0293
      7 C5          1.4231    1.6153   -0.0029 C.3       1 <0>         0.1043
      8 H3          1.9555    1.2415    0.8718 H         1 <0>         0.1094
      9 C6         -0.0127    1.0858    0.0080 C.3       1 <0>         0.0447
     10 H4          0.0021   -0.0041    0.0020 H         1 <0>         0.1533
     11 C7         -0.7284    1.5790    1.2671 C.3       1 <0>         0.0574
     12 O1         -2.0290    0.9910    1.3370 O.3       1 <0>        -0.5796
     13 O2          1.4050    3.0440    0.0233 O.3       1 <0>        -0.5491
     14 O3          3.4521    1.6744   -1.3177 O.3       1 <0>        -0.5481
     15 O4          1.3225    3.0436   -2.5230 O.3       1 <0>        -0.5450
     16 O5         -1.4105   -0.9396   -2.4461 O.3       1 <0>        -0.5704
     17 H5          0.4759   -0.8046   -3.2777 H         1 <0>         0.0974
     18 H6          0.4199   -0.7963   -1.4987 H         1 <0>         0.0716
     19 H7          2.1785    0.0473   -1.2752 H         1 <0>         0.0893
     20 H8         -0.1528    1.2935    2.1476 H         1 <0>         0.0946
     21 H9         -0.8219    2.6644    1.2304 H         1 <0>         0.0841
     22 H10        -2.5410    1.2598    2.1121 H         1 <0>         0.4114
     23 H11         2.2832    3.4486    0.0181 H         1 <0>         0.4097
     24 H12         3.9583    1.4113   -2.0985 H         1 <0>         0.4007
     25 H13         2.1995    3.4478   -2.5726 H         1 <0>         0.4070
     26 H14        -1.4734   -1.9046   -2.4436 H         1 <0>         0.4123
     27 N1         -0.7339    1.5791   -1.1808 N.4       1 <0>        -0.5003
     28 H15        -1.7051    1.2474   -1.1490 H         1 <0>         0.4466
     29 H16        -0.7227    2.6058   -1.1813 H         1 <0>         0.4456
@<TRIPOS>BOND
     1    1    2 1
     2    1   16 1
     3    1   17 1
     4    1   18 1
     5    2    3 1
     6    2    4 1
     7    2   27 1
     8    4    5 1
     9    4    6 1
    10    4   15 1
    11    6    7 1
    12    6   14 1
    13    6   19 1
    14    7    8 1
    15    7    9 1
    16    7   13 1
    17    9   10 1
    18    9   11 1
    19    9   27 1
    20   11   12 1
    21   11   20 1
    22   11   21 1
    23   12   22 1
    24   13   23 1
    25   14   24 1
    26   15   25 1
    27   16   26 1
    28   27   28 1
    29   27   29 1
