@<TRIPOS>MOLECULE
ZINC03870708
   25    25     0     0     0
SMALL
USER_CHARGES
2,5-bis(hydroxymethyl)pyrrolidine-3,4-diol
@<TRIPOS>ATOM
      1 C1          1.2864    1.5618   -0.0018 C.3       1 <0>         0.0689
      2 C2          1.1449    3.0852    0.0077 C.3       1 <0>         0.0409
      3 H1          0.4848    3.4099   -0.7966 H         1 <0>         0.1620
      4 C3          2.5290    3.7553   -0.1280 C.3       1 <0>         0.0565
      5 H2          2.7060    4.0526   -1.1617 H         1 <0>         0.1180
      6 C4          2.4636    4.9983    0.7832 C.3       1 <0>         0.0571
      7 H3          2.6085    5.9056    0.1969 H         1 <0>         0.1177
      8 C5          1.0455    4.9746    1.3929 C.3       1 <0>         0.0409
      9 H4          0.3692    5.5966    0.8065 H         1 <0>         0.1617
     10 C6          1.0816    5.4508    2.8464 C.3       1 <0>         0.0690
     11 O1         -0.2517    5.5321    3.3542 O.3       1 <0>        -0.5816
     12 O2          3.4504    4.9110    1.8132 O.3       1 <0>        -0.5411
     13 O3          3.5562    2.8671    0.3169 O.3       1 <0>        -0.5414
     14 O4         -0.0110    0.9628    0.0073 O.3       1 <0>        -0.5815
     15 H5          1.8401    1.2428    0.8812 H         1 <0>         0.0801
     16 H6          1.8231    1.2523   -0.8987 H         1 <0>         0.0966
     17 H7          1.6563    4.7448    3.4459 H         1 <0>         0.0801
     18 H8          1.5495    6.4340    2.8951 H         1 <0>         0.0968
     19 H9         -0.3052    5.8284    4.2732 H         1 <0>         0.4099
     20 H10         4.3594    4.8776    1.4851 H         1 <0>         0.4013
     21 H11         4.4484    3.2350    0.2547 H         1 <0>         0.4019
     22 H12         0.0021   -0.0041    0.0020 H         1 <0>         0.4099
     23 N1          0.6499    3.5688    1.2973 N.4       1 <0>        -0.5044
     24 H13         1.0696    3.0292    2.0634 H         1 <0>         0.4347
     25 H14        -0.3725    3.4843    1.3392 H         1 <0>         0.4461
@<TRIPOS>BOND
     1    1    2 1
     2    1   14 1
     3    1   15 1
     4    1   16 1
     5    2    3 1
     6    2    4 1
     7    2   23 1
     8    4    5 1
     9    4    6 1
    10    4   13 1
    11    6    7 1
    12    6    8 1
    13    6   12 1
    14    8    9 1
    15    8   10 1
    16    8   23 1
    17   10   11 1
    18   10   17 1
    19   10   18 1
    20   11   19 1
    21   12   20 1
    22   13   21 1
    23   14   22 1
    24   23   24 1
    25   23   25 1
@<TRIPOS>MOLECULE
ZINC03870709
   25    25     0     0     0
SMALL
USER_CHARGES
(2S,3R,4R,5R)-2,5-bis(hydroxymethyl)pyrrolidine-3,4-diol
@<TRIPOS>ATOM
      1 C1          1.5825    3.2934   -0.5265 C.3       1 <0>         0.0629
      2 C2          1.4169    1.8659   -0.0014 C.3       1 <0>         0.0370
      3 H1          1.8427    1.7756    0.9978 H         1 <0>         0.1617
      4 C3          2.0819    0.8580   -0.9632 C.3       1 <0>         0.0617
      5 H2          2.1510    1.2786   -1.9664 H         1 <0>         0.1077
      6 C4          1.1512   -0.3722   -0.9609 C.3       1 <0>         0.0552
      7 H3          1.6846   -1.2499   -0.5958 H         1 <0>         0.1201
      8 C5          0.0021   -0.0041    0.0020 C.3       1 <0>         0.0429
      9 H4          0.2065   -0.3870    1.0019 H         1 <0>         0.1618
     10 C6         -1.3286   -0.5529   -0.5166 C.3       1 <0>         0.0676
     11 O1         -2.3689   -0.2338    0.4097 O.3       1 <0>        -0.5817
     12 O2          0.6407   -0.6133   -2.2737 O.3       1 <0>        -0.5507
     13 O3          3.3802    0.4990   -0.4860 O.3       1 <0>        -0.5398
     14 O4          0.9936    4.2118    0.3965 O.3       1 <0>        -0.5758
     15 H5          2.6431    3.5192   -0.6369 H         1 <0>         0.1002
     16 H6          1.0890    3.3842   -1.4941 H         1 <0>         0.0740
     17 H7         -1.5539   -0.1051   -1.4844 H         1 <0>         0.0819
     18 H8         -1.2578   -1.6352   -0.6247 H         1 <0>         0.0970
     19 H9         -3.2428   -0.5518    0.1446 H         1 <0>         0.4105
     20 H10         1.3183   -0.8491   -2.9220 H         1 <0>         0.4068
     21 H11         3.8280   -0.1659   -1.0267 H         1 <0>         0.4061
     22 H12         1.0617    5.1380    0.1273 H         1 <0>         0.4114
     23 N1          0.0110    1.4594    0.0098 N.4       1 <0>        -0.5010
     24 H13        -0.4697    1.8216   -0.8221 H         1 <0>         0.4328
     25 H14        -0.4537    1.8125    0.8545 H         1 <0>         0.4497
@<TRIPOS>BOND
     1    1    2 1
     2    1   14 1
     3    1   15 1
     4    1   16 1
     5    2    3 1
     6    2    4 1
     7    2   23 1
     8    4    5 1
     9    4    6 1
    10    4   13 1
    11    6    7 1
    12    6    8 1
    13    6   12 1
    14    8    9 1
    15    8   10 1
    16    8   23 1
    17   10   11 1
    18   10   17 1
    19   10   18 1
    20   11   19 1
    21   12   20 1
    22   13   21 1
    23   14   22 1
    24   23   24 1
    25   23   25 1
@<TRIPOS>MOLECULE
ZINC03870710
   25    25     0     0     0
SMALL
USER_CHARGES
2,5-bis(hydroxymethyl)pyrrolidine-3,4-diol
@<TRIPOS>ATOM
      1 C1          2.5099    2.3991   -3.4490 C.3       1 <0>         0.0625
      2 C2          1.5085    2.1894   -2.3114 C.3       1 <0>         0.0437
      3 H1          0.5509    1.8492   -2.7056 H         1 <0>         0.1616
      4 C3          2.0628    1.1689   -1.2862 C.3       1 <0>         0.0613
      5 H2          1.8297    0.1473   -1.5863 H         1 <0>         0.1208
      6 C4          1.2864    1.5618   -0.0018 C.3       1 <0>         0.0654
      7 H3          1.8466    1.2781    0.8891 H         1 <0>         0.1179
      8 C5          1.1779    3.0968   -0.1170 C.3       1 <0>         0.0420
      9 H4          1.9680    3.5692    0.4666 H         1 <0>         0.1593
     10 C6         -0.1915    3.5608    0.3834 C.3       1 <0>         0.0622
     11 O1         -0.2401    4.9890    0.3823 O.3       1 <0>        -0.5825
     12 O2         -0.0110    0.9628    0.0073 O.3       1 <0>        -0.5469
     13 O3          3.4702    1.3380   -1.1054 O.3       1 <0>        -0.5490
     14 O4          1.9332    3.2516   -4.4402 O.3       1 <0>        -0.5803
     15 H5          3.4156    2.8605   -3.0553 H         1 <0>         0.0817
     16 H6          2.7577    1.4368   -3.8970 H         1 <0>         0.0951
     17 H7         -0.9695    3.1703   -0.2725 H         1 <0>         0.0810
     18 H8         -0.3519    3.1926    1.3967 H         1 <0>         0.0962
     19 H9         -1.0815    5.3541    0.6888 H         1 <0>         0.4103
     20 H10         0.0021   -0.0041    0.0020 H         1 <0>         0.4071
     21 H11         3.8456    0.7878   -0.4043 H         1 <0>         0.4085
     22 H12         2.5138    3.4284   -5.1930 H         1 <0>         0.4098
     23 N1          1.3337    3.4342   -1.5401 N.4       1 <0>        -0.5071
     24 H13         0.4969    3.9292   -1.8702 H         1 <0>         0.4416
     25 H14         2.1575    4.0344   -1.6636 H         1 <0>         0.4379
@<TRIPOS>BOND
     1    1    2 1
     2    1   14 1
     3    1   15 1
     4    1   16 1
     5    2    3 1
     6    2    4 1
     7    2   23 1
     8    4    5 1
     9    4    6 1
    10    4   13 1
    11    6    7 1
    12    6    8 1
    13    6   12 1
    14    8    9 1
    15    8   10 1
    16    8   23 1
    17   10   11 1
    18   10   17 1
    19   10   18 1
    20   11   19 1
    21   12   20 1
    22   13   21 1
    23   14   22 1
    24   23   24 1
    25   23   25 1
@<TRIPOS>MOLECULE
ZINC13482310
   25    25     0     0     0
SMALL
USER_CHARGES
(2S,3S,4R,5S)-2,5-bis(hydroxymethyl)pyrrolidine-3,4-diol
@<TRIPOS>ATOM
      1 C1         -2.1125    1.6915    1.2882 C.3       1 <0>         0.0662
      2 C2         -0.5852    1.6190    1.3453 C.3       1 <0>         0.0409
      3 H1         -0.2595    0.9965    2.1787 H         1 <0>         0.1618
      4 C3         -0.0127    1.0858    0.0080 C.3       1 <0>         0.0540
      5 H2          0.0021   -0.0041    0.0020 H         1 <0>         0.1204
      6 C4          1.4256    1.6525   -0.0027 C.3       1 <0>         0.0642
      7 H3          2.1302    0.9031    0.3579 H         1 <0>         0.1120
      8 C5          1.3896    2.8591    0.9534 C.3       1 <0>         0.0352
      9 H4          1.6771    3.7648    0.4193 H         1 <0>         0.1630
     10 C6          2.3415    2.6224    2.1276 C.3       1 <0>         0.0568
     11 O1          2.3890    3.7930    2.9458 O.3       1 <0>        -0.5751
     12 O2          1.7827    2.0743   -1.3205 O.3       1 <0>        -0.5382
     13 O3         -0.7614    1.5856   -1.1018 O.3       1 <0>        -0.5437
     14 O4         -2.6194    2.0739    2.5684 O.3       1 <0>        -0.5802
     15 H5         -2.4136    2.4281    0.5434 H         1 <0>         0.0820
     16 H6         -2.5126    0.7149    1.0159 H         1 <0>         0.0961
     17 H7          1.9854    1.7794    2.7197 H         1 <0>         0.0734
     18 H8          3.3396    2.4038    1.7478 H         1 <0>         0.0982
     19 H9          2.9747    3.7143    3.7112 H         1 <0>         0.4124
     20 H10         1.7793    1.3631   -1.9756 H         1 <0>         0.4025
     21 H11        -0.4181    1.3116   -1.9633 H         1 <0>         0.4059
     22 H12        -3.5834    2.1399    2.6060 H         1 <0>         0.4103
     23 N1          0.0122    2.9590    1.4388 N.4       1 <0>        -0.5038
     24 H13         0.0062    3.2786    2.4146 H         1 <0>         0.4459
     25 H14        -0.5173    3.6205    0.8588 H         1 <0>         0.4399
@<TRIPOS>BOND
     1    1    2 1
     2    1   14 1
     3    1   15 1
     4    1   16 1
     5    2    3 1
     6    2    4 1
     7    2   23 1
     8    4    5 1
     9    4    6 1
    10    4   13 1
    11    6    7 1
    12    6    8 1
    13    6   12 1
    14    8    9 1
    15    8   10 1
    16    8   23 1
    17   10   11 1
    18   10   17 1
    19   10   18 1
    20   11   19 1
    21   12   20 1
    22   13   21 1
    23   14   22 1
    24   23   24 1
    25   23   25 1
@<TRIPOS>MOLECULE
ZINC04098580
   24    24     0     0     0
SMALL
USER_CHARGES
2-(hydroxymethyl)piperidine-3,4-diol
@<TRIPOS>ATOM
      1 C1         -2.0571    1.0526    3.7863 C.3       1 <0>        -0.1841
      2 C2         -2.8036    1.4559    2.5128 C.3       1 <0>        -0.0019
      3 C3         -0.7288    1.5792    1.2668 C.3       1 <0>         0.0424
      4 H1         -0.8225    2.6646    1.2296 H         1 <0>         0.1543
      5 C4          0.0796    1.1795    2.5032 C.3       1 <0>         0.1055
      6 H2          0.1854    0.0951    2.5339 H         1 <0>         0.0874
      7 C5         -0.6508    1.6577    3.7611 C.3       1 <0>         0.0627
      8 H3         -0.7224    2.7453    3.7495 H         1 <0>         0.0838
      9 O1          0.0702    1.2389    4.9217 O.3       1 <0>        -0.5539
     10 O2          1.3730    1.7843    2.4435 O.3       1 <0>        -0.5445
     11 C6         -0.0127    1.0858    0.0080 C.3       1 <0>         0.0557
     12 O3         -0.7038    1.5592   -1.1497 O.3       1 <0>        -0.5813
     13 H4         -2.5971    1.4232    4.6576 H         1 <0>         0.1212
     14 H5         -1.9849   -0.0339    3.8372 H         1 <0>         0.1001
     15 H6         -2.8875    2.5418    2.4695 H         1 <0>         0.1350
     16 H7         -3.8003    1.0147    2.5210 H         1 <0>         0.1422
     17 H8         -0.3394    1.5048    5.7564 H         1 <0>         0.4010
     18 H9          1.9409    1.5736    3.1973 H         1 <0>         0.4126
     19 H10         0.0021   -0.0041    0.0020 H         1 <0>         0.0729
     20 H11         1.0099    1.4631    0.0003 H         1 <0>         0.1059
     21 H12        -0.3044    1.2838   -1.9862 H         1 <0>         0.4124
     22 N1         -2.0698    0.9671    1.3299 N.4       1 <0>        -0.5093
     23 H13        -2.5938    1.2123    0.4817 H         1 <0>         0.4492
     24 H14        -1.9733   -0.0534    1.3897 H         1 <0>         0.4309
@<TRIPOS>BOND
     1    1    7 1
     2    1    2 1
     3    1   13 1
     4    1   14 1
     5    2   15 1
     6    2   16 1
     7    2   22 1
     8    3    4 1
     9    3    5 1
    10    3   11 1
    11    3   22 1
    12    5    6 1
    13    5    7 1
    14    5   10 1
    15    7    8 1
    16    7    9 1
    17    9   17 1
    18   10   18 1
    19   11   12 1
    20   11   19 1
    21   11   20 1
    22   12   21 1
    23   22   23 1
    24   22   24 1
@<TRIPOS>MOLECULE
ZINC33671247
   24    24     0     0     0
SMALL
USER_CHARGES
(2S,3S,4R)-2-(hydroxymethyl)piperidine-3,4-diol
@<TRIPOS>ATOM
      1 C1          2.1687    1.4902    1.2114 C.3       1 <0>        -0.1414
      2 C2          2.1260   -0.0390    1.1681 C.3       1 <0>        -0.0002
      3 N1          0.7291   -0.4915    1.1811 N.4       1 <0>        -0.5285
      4 C3          0.0021   -0.0041    0.0020 C.3       1 <0>         0.0512
      5 H1          0.5330   -0.3781   -0.8858 H         1 <0>         0.1480
      6 C4         -0.0187    1.5261    0.0104 C.3       1 <0>         0.0755
      7 H2         -0.5816    1.9145    0.8719 H         1 <0>         0.0835
      8 C5          1.4196    2.0513   -0.0005 C.3       1 <0>         0.0737
      9 H3          1.4466    3.1508   -0.0168 H         1 <0>         0.0847
     10 O1          2.0718    1.6324   -1.2010 O.3       1 <0>        -0.5935
     11 O2         -0.7085    2.0003   -1.1477 O.3       1 <0>        -0.5865
     12 C6         -1.4330   -0.5335    0.0334 C.3       1 <0>         0.0680
     13 O3         -1.4184   -1.9570   -0.0918 O.3       1 <0>        -0.6164
     14 H4          3.2144    1.8305    1.1858 H         1 <0>         0.1219
     15 H5          1.6898    1.8461    2.1355 H         1 <0>         0.1030
     16 H6          2.6173   -0.3937    0.2500 H         1 <0>         0.1356
     17 H7          2.6508   -0.4455    2.0452 H         1 <0>         0.1370
     18 H8          0.6999   -1.5911    1.1816 H         1 <0>         0.4658
     19 H9          1.6742    1.9406   -2.1792 H         1 <0>         0.4309
     20 H10        -0.8248    3.0814   -1.3144 H         1 <0>         0.4401
     21 H11        -1.9061   -0.2540    0.9863 H         1 <0>         0.0640
     22 H12        -2.0029   -0.0979   -0.8005 H         1 <0>         0.0963
     23 H13        -2.3640   -2.5190   -0.0897 H         1 <0>         0.4464
     24 H14         0.2288   -0.1110    2.0838 H         1 <0>         0.4410
@<TRIPOS>BOND
     1    1    8 1
     2    1    2 1
     3    1   14 1
     4    1   15 1
     5    2    3 1
     6    2   16 1
     7    2   17 1
     8    3    4 1
     9    3   18 1
    10    3   24 1
    11    4    5 1
    12    4    6 1
    13    4   12 1
    14    6    7 1
    15    6    8 1
    16    6   11 1
    17    8    9 1
    18    8   10 1
    19   10   19 1
    20   11   20 1
    21   12   13 1
    22   12   21 1
    23   12   22 1
    24   13   23 1
