@<TRIPOS>MOLECULE
ZINC03830437
   46    48     0     0     0
SMALL
USER_CHARGES

@<TRIPOS>ATOM
      1 C1          2.6392   -3.6831   -0.3914 C.3       1 <0>        -0.1444
      2 C2          1.4919   -2.7062   -0.4073 C.2       1 <0>         0.4520
      3 O1          1.7096   -1.5197   -0.4760 O.2       1 <0>        -0.5051
      4 O2          0.2281   -3.1541   -0.3450 O.3       1 <0>        -0.3738
      5 C3         -0.8099   -2.1722   -0.3645 C.3       1 <0>         0.1401
      6 C4         -2.1506   -2.8592   -0.4059 C.2       1 <0>        -0.1844
      7 C5         -3.2104   -2.0643   -0.3876 C.2       1 <0>         0.0982
      8 N1         -4.5085   -2.5969   -0.4705 N.am      1 <0>        -0.5501
      9 C6         -4.9124   -4.0091   -0.2447 C.3       1 <0>         0.1189
     10 H1         -5.0886   -4.2893    0.7938 H         1 <0>         0.1420
     11 C7         -6.1552   -3.6777   -1.0427 C.3       1 <0>         0.1268
     12 H2         -7.0869   -3.9550   -0.5497 H         1 <0>         0.1519
     13 C8         -5.7408   -2.2500   -0.8122 C.2       1 <0>         0.5282
     14 O3         -6.3160   -1.1861   -0.9041 O.2       1 <0>        -0.4368
     15 N2         -6.0959   -4.1016   -2.4438 N.am      1 <0>        -0.6833
     16 C9         -7.2344   -4.3420   -3.1239 C.2       1 <0>         0.5831
     17 O4         -8.3100   -4.2071   -2.5749 O.2       1 <0>        -0.4724
     18 C10        -7.1745   -4.7708   -4.5411 C.2       1 <0>         0.1830
     19 N3         -6.0212   -4.9154   -5.1297 N.2       1 <0>        -0.2802
     20 O5         -5.9586   -5.4281   -6.4481 O.3       1 <0>        -0.2196
     21 C11        -4.6318   -5.5330   -6.9685 C.3       1 <0>         0.0301
     22 C12        -8.4236   -5.0346   -5.2872 C.2       1 <0>         0.0947
     23 C13        -8.3843   -5.6529   -6.5084 C.2       1 <0>        -0.1824
     24 S1        -10.1248   -5.7019   -6.9138 S.3       1 <0>        -0.0279
     25 C14       -10.7251   -4.9025   -5.4324 C.2       1 <0>         0.3854
     26 N4         -9.6018   -4.6785   -4.7773 N.2       1 <0>        -0.5273
     27 N5        -12.0264   -4.6019   -5.0664 N.pl3     1 <0>        -0.7965
     28 S2         -3.6677   -5.0367   -1.0974 S.3       1 <0>        -0.2344
     29 C15        -2.1189   -4.3522   -0.4683 C.3       1 <0>        -0.0179
     30 C16        -3.0265   -0.6080   -0.2789 C.2       1 <0>         0.5151
     31 O6         -1.9014   -0.1289   -0.3177 O.co2     1 <0>        -0.6582
     32 O7         -3.9987    0.1234   -0.1497 O.co2     1 <0>        -0.6478
     33 H3          3.5814   -3.1380   -0.4489 H         1 <0>         0.0958
     34 H4          2.6104   -4.2625    0.5314 H         1 <0>         0.0949
     35 H5          2.5558   -4.3554   -1.2453 H         1 <0>         0.0947
     36 H6         -0.7447   -1.5566    0.5327 H         1 <0>         0.0963
     37 H7         -0.6973   -1.5418   -1.2466 H         1 <0>         0.0952
     38 H8         -5.2373   -4.2093   -2.8820 H         1 <0>         0.4213
     39 H9         -4.6695   -5.9334   -7.9816 H         1 <0>         0.1010
     40 H10        -4.1689   -4.5463   -6.9848 H         1 <0>         0.0579
     41 H11        -4.0451   -6.1993   -6.3361 H         1 <0>         0.0585
     42 H12        -7.5355   -6.0118   -7.0716 H         1 <0>         0.2177
     43 H13       -12.7616   -4.8330   -5.6555 H         1 <0>         0.4193
     44 H14       -12.2027   -4.1601   -4.2210 H         1 <0>         0.4203
     45 H15        -1.2991   -4.6633   -1.1157 H         1 <0>         0.1259
     46 H16        -1.9477   -4.7460    0.5335 H         1 <0>         0.0944
@<TRIPOS>BOND
     1    1    2 1
     2    1   33 1
     3    1   34 1
     4    1   35 1
     5    2    3 2
     6    2    4 1
     7    4    5 1
     8    5    6 1
     9    5   36 1
    10    5   37 1
    11    6   29 1
    12    6    7 2
    13    7    8 1
    14    7   30 1
    15    8   13 am
    16    8    9 1
    17    9   10 1
    18    9   11 1
    19    9   28 1
    20   11   12 1
    21   11   13 1
    22   11   15 1
    23   13   14 2
    24   15   16 am
    25   15   38 1
    26   16   17 2
    27   16   18 1
    28   18   19 2
    29   18   22 1
    30   19   20 1
    31   20   21 1
    32   21   39 1
    33   21   40 1
    34   21   41 1
    35   22   26 1
    36   22   23 2
    37   23   24 1
    38   23   42 1
    39   24   25 1
    40   25   26 2
    41   25   27 1
    42   27   43 1
    43   27   44 1
    44   28   29 1
    45   29   45 1
    46   29   46 1
    47   30   31 2
    48   30   32 1
@<TRIPOS>MOLECULE
ZINC19795769
   43    44     0     0     0
SMALL
USER_CHARGES

@<TRIPOS>ATOM
      1 C1          4.4591    0.1549   -3.3236 C.3       1 <0>        -0.1568
      2 C2          3.2486    0.1012   -4.2577 C.3       1 <0>         0.1305
      3 H1          3.4015   -0.5762   -5.0978 H         1 <0>         0.0999
      4 C3          1.9333   -0.1482   -3.5194 C.3       1 <0>         0.0923
      5 H2          2.0316   -0.2175   -2.4360 H         1 <0>         0.1466
      6 C4          1.6159    1.2331   -4.0275 C.2       1 <0>         0.5315
      7 O1          0.6363    1.9368   -3.9004 O.2       1 <0>        -0.4777
      8 N1          2.7819    1.4264   -4.6678 N.am      1 <0>        -0.9581
      9 S1          3.4277    2.6636   -5.5593 S.o2      1 <0>         2.7691
     10 O2          2.8595    3.8986   -5.0416 O.2       1 <0>        -1.0576
     11 O3          4.8696    2.6095   -5.3746 O.2       1 <0>        -1.0646
     12 O4          3.0481    2.4294   -6.9439 O.3       1 <0>        -1.0718
     13 N2          1.1072   -1.2108   -4.0978 N.am      1 <0>        -0.6919
     14 C5          0.2230   -1.8728   -3.3256 C.2       1 <0>         0.5285
     15 O5          0.1785   -1.6565   -2.1307 O.2       1 <0>        -0.4829
     16 C6         -0.6950   -2.8645   -3.9337 C.2       1 <0>         0.1367
     17 N3         -1.6197   -3.4268   -3.2084 N.2       1 <0>        -0.2739
     18 O6         -1.8204   -3.0106   -1.8699 O.3       1 <0>        -0.1219
     19 C7         -2.8658   -3.7118   -1.1937 C.3       1 <0>         0.0352
     20 C8         -4.1865   -3.4978   -1.9358 C.3       1 <0>        -0.1453
     21 C9         -2.5374   -5.2057   -1.1575 C.3       1 <0>        -0.1436
     22 C10        -2.9909   -3.1907    0.2148 C.2       1 <0>         0.5173
     23 O7         -2.2532   -2.3012    0.6035 O.co2     1 <0>        -0.6597
     24 O8         -3.8299   -3.6586    0.9657 O.co2     1 <0>        -0.6885
     25 C11        -0.5615   -3.2159   -5.3639 C.2       1 <0>         0.1513
     26 C12        -1.3333   -4.2069   -5.9092 C.2       1 <0>        -0.1868
     27 S2         -0.7568   -4.1857   -7.6014 S.3       1 <0>        -0.0089
     28 C13         0.4418   -2.8731   -7.4161 C.2       1 <0>         0.3983
     29 N4          0.3072   -2.5685   -6.1393 N.2       1 <0>        -0.5762
     30 N5          1.2857   -2.3187   -8.3637 N.pl3     1 <0>        -0.7918
     31 H3          4.3279    0.9640   -2.6050 H         1 <0>         0.0668
     32 H4          4.5500   -0.7922   -2.7917 H         1 <0>         0.0740
     33 H5          5.3618    0.3313   -3.9084 H         1 <0>         0.0780
     34 H6          1.1966   -1.4379   -5.0366 H         1 <0>         0.4183
     35 H7         -4.0960   -3.8747   -2.9546 H         1 <0>         0.0509
     36 H8         -4.9840   -4.0327   -1.4200 H         1 <0>         0.0655
     37 H9         -4.4205   -2.4335   -1.9616 H         1 <0>         0.0511
     38 H10        -1.5965   -5.3582   -0.6287 H         1 <0>         0.0505
     39 H11        -3.3349   -5.7406   -0.6416 H         1 <0>         0.0656
     40 H12        -2.4469   -5.5826   -2.1762 H         1 <0>         0.0501
     41 H13        -2.0834   -4.8300   -5.4449 H         1 <0>         0.2049
     42 H14         1.2715   -2.6460   -9.2767 H         1 <0>         0.4212
     43 H15         1.8911   -1.6029   -8.1145 H         1 <0>         0.4242
@<TRIPOS>BOND
     1    1    2 1
     2    1   31 1
     3    1   32 1
     4    1   33 1
     5    2    3 1
     6    2    8 1
     7    2    4 1
     8    4    5 1
     9    4    6 1
    10    4   13 1
    11    6    7 2
    12    6    8 am
    13    8    9 1
    14    9   10 2
    15    9   11 2
    16    9   12 1
    17   13   14 am
    18   13   34 1
    19   14   15 2
    20   14   16 1
    21   16   17 2
    22   16   25 1
    23   17   18 1
    24   18   19 1
    25   19   20 1
    26   19   21 1
    27   19   22 1
    28   20   35 1
    29   20   36 1
    30   20   37 1
    31   21   38 1
    32   21   39 1
    33   21   40 1
    34   22   23 2
    35   22   24 1
    36   25   29 1
    37   25   26 2
    38   26   27 1
    39   26   41 1
    40   27   28 1
    41   28   29 2
    42   28   30 1
    43   30   42 1
    44   30   43 1
@<TRIPOS>MOLECULE
ZINC03830449
   44    46     0     0     0
SMALL
USER_CHARGES

@<TRIPOS>ATOM
      1 C1          0.0251    1.4314   -0.1412 C.3       1 <0>         0.0237
      2 O1          0.0348    0.0027   -0.1111 O.3       1 <0>        -0.3558
      3 C2         -1.2665   -0.5866   -0.0716 C.3       1 <0>         0.3139
      4 C3         -1.2359   -2.1003    0.0595 C.3       1 <0>         0.1426
      5 H1         -0.2567   -2.5687   -0.0398 H         1 <0>         0.1424
      6 N1         -2.0805   -2.0429   -1.1711 N.am      1 <0>        -0.5270
      7 C4         -1.8939   -0.7411   -1.4390 C.2       1 <0>         0.5461
      8 O2         -2.1282   -0.0053   -2.3744 O.2       1 <0>        -0.4347
      9 C5         -2.8939   -3.0824   -1.6690 C.2       1 <0>         0.1128
     10 C6         -3.2747   -4.0735   -0.8778 C.2       1 <0>        -0.1826
     11 C7         -2.9169   -4.3113    0.5532 C.3       1 <0>         0.0033
     12 S1         -2.2899   -2.7964    1.3764 S.3       1 <0>        -0.2355
     13 C8         -4.1893   -5.0955   -1.5025 C.3       1 <0>         0.1615
     14 O3         -4.6054   -6.0334   -0.5079 O.3       1 <0>        -0.3839
     15 C9         -5.3477   -7.0767   -0.9241 C.2       1 <0>         0.6472
     16 O4         -5.6343   -7.1878   -2.0997 O.2       1 <0>        -0.5638
     17 N2         -5.7728   -7.9979   -0.0369 N.am      1 <0>        -0.8355
     18 C10        -3.3225   -3.0649   -3.0770 C.2       1 <0>         0.5172
     19 O5         -3.9378   -4.0152   -3.5410 O.co2     1 <0>        -0.6607
     20 O6         -3.0634   -2.1001   -3.7834 O.co2     1 <0>        -0.6508
     21 N3         -2.1493    0.0639    0.8999 N.am      1 <0>        -0.7292
     22 C11        -3.4624   -0.2386    0.9253 C.2       1 <0>         0.5103
     23 O7         -3.9132   -1.0494    0.1441 O.2       1 <0>        -0.4579
     24 C12        -4.3706    0.4305    1.9246 C.3       1 <0>        -0.0442
     25 C13        -5.7774   -0.0789    1.7448 C.2       1 <0>        -0.1240
     26 C14        -6.3848   -1.1358    2.3375 C.2       1 <0>        -0.1397
     27 C15        -7.6990   -1.4200    2.0169 C.2       1 <0>        -0.1543
     28 C16        -8.3416   -0.6333    1.1193 C.2       1 <0>        -0.1765
     29 S2         -7.0789    0.5577    0.7017 S.3       1 <0>         0.0472
     30 H2          1.0500    1.8011   -0.1703 H         1 <0>         0.0983
     31 H3         -0.5096    1.7725   -1.0277 H         1 <0>         0.0594
     32 H4         -0.4726    1.8102    0.7515 H         1 <0>         0.0468
     33 H5         -3.7992   -4.6671    1.0852 H         1 <0>         0.1189
     34 H6         -2.1419   -5.0761    0.6028 H         1 <0>         0.0873
     35 H7         -5.0637   -4.5947   -1.9180 H         1 <0>         0.0924
     36 H8         -3.6590   -5.6200   -2.2973 H         1 <0>         0.0959
     37 H9         -5.5440   -7.9092    0.9016 H         1 <0>         0.4028
     38 H10        -6.3075   -8.7496   -0.3368 H         1 <0>         0.4200
     39 H11        -1.7888    0.7123    1.5247 H         1 <0>         0.4041
     40 H12        -4.0287    0.2046    2.9346 H         1 <0>         0.1155
     41 H13        -4.3518    1.5090    1.7674 H         1 <0>         0.1047
     42 H14        -5.8499   -1.7469    3.0493 H         1 <0>         0.1296
     43 H15        -8.2062   -2.2564    2.4746 H         1 <0>         0.1299
     44 H16        -9.3555   -0.7058    0.7545 H         1 <0>         0.1824
@<TRIPOS>BOND
     1    1    2 1
     2    1   30 1
     3    1   31 1
     4    1   32 1
     5    2    3 1
     6    3    7 1
     7    3    4 1
     8    3   21 1
     9    4    5 1
    10    4   12 1
    11    4    6 1
    12    6    7 am
    13    6    9 1
    14    7    8 2
    15    9   10 2
    16    9   18 1
    17   10   11 1
    18   10   13 1
    19   11   12 1
    20   11   33 1
    21   11   34 1
    22   13   14 1
    23   13   35 1
    24   13   36 1
    25   14   15 1
    26   15   16 2
    27   15   17 am
    28   17   37 1
    29   17   38 1
    30   18   19 2
    31   18   20 1
    32   21   22 am
    33   21   39 1
    34   22   23 2
    35   22   24 1
    36   24   25 1
    37   24   40 1
    38   24   41 1
    39   25   29 1
    40   25   26 2
    41   26   27 1
    42   26   42 1
    43   27   28 2
    44   27   43 1
    45   28   29 1
    46   28   44 1
