@<TRIPOS>MOLECULE
ZINC40901549
   54    57     0     0     0
SMALL
USER_CHARGES

@<TRIPOS>ATOM
      1 C1         -0.6196    0.6030    0.5694 C.3       1 <0>        -0.1718
      2 C2          0.0648   -0.7094    0.1820 C.3       1 <0>         0.1217
      3 C3          0.6914   -0.5642   -1.1804 C.2       1 <0>         0.1706
      4 N1          1.9184   -0.1455   -1.3057 N.2       1 <0>        -0.4295
      5 C4          2.6670    0.1129   -0.1979 C.ar      1 <0>        -0.1552
      6 C5          3.8819    0.8113   -0.2740 C.ar      1 <0>         0.4953
      7 N2          4.5508    1.0408    0.8544 N.ar      1 <0>        -0.5899
      8 C6          4.0899    0.6228    2.0162 C.ar      1 <0>         0.3760
      9 N3          2.9564   -0.0439    2.1305 N.ar      1 <0>        -0.5623
     10 C7          2.2256   -0.3200    1.0605 C.ar      1 <0>         0.3727
     11 O1          1.0719   -1.0240    1.1490 O.3       1 <0>        -0.2773
     12 N4          4.3728    1.2502   -1.4915 N.pl3     1 <0>        -0.8096
     13 C8         -0.0910   -0.8993   -2.3823 C.ar      1 <0>        -0.0648
     14 C9         -1.4560   -0.6030   -2.4371 C.ar      1 <0>        -0.0971
     15 C10        -2.1820   -0.9199   -3.5659 C.ar      1 <0>        -0.1221
     16 C11        -1.5626   -1.5302   -4.6425 C.ar      1 <0>        -0.0435
     17 C12        -0.2116   -1.8267   -4.5957 C.ar      1 <0>        -0.1147
     18 C13         0.5289   -1.5102   -3.4762 C.ar      1 <0>        -0.0692
     19 C14        -2.3634   -1.8741   -5.8719 C.3       1 <0>        -0.0508
     20 C15        -2.3049   -3.3839   -6.1128 C.3       1 <0>        -0.1083
     21 C16        -3.1179   -3.7330   -7.3610 C.3       1 <0>        -0.1153
     22 C17        -2.5346   -3.0005   -8.5710 C.3       1 <0>        -0.0639
     23 C18        -2.5931   -1.4907   -8.3301 C.3       1 <0>        -0.1136
     24 C19        -1.7801   -1.1416   -7.0819 C.3       1 <0>        -0.1097
     25 C20        -1.0798   -3.4287   -8.7737 C.3       1 <0>        -0.1798
     26 C21        -0.5430   -2.8026  -10.0351 C.2       1 <0>         0.4895
     27 O2         -1.2578   -2.0809  -10.7094 O.co2     1 <0>        -0.6947
     28 O3          0.6061   -3.0178  -10.3812 O.co2     1 <0>        -0.7108
     29 C22        -0.9734   -1.8327    0.1453 C.3       1 <0>        -0.1422
     30 H1          0.1196    1.4035    0.5985 H         1 <0>         0.0577
     31 H2         -1.3869    0.8436   -0.1665 H         1 <0>         0.0867
     32 H3         -1.0792    0.4969    1.5520 H         1 <0>         0.0820
     33 H4          4.6613    0.8333    2.9082 H         1 <0>         0.2090
     34 H5          3.8757    1.0761   -2.3060 H         1 <0>         0.4236
     35 H6          5.2139    1.7318   -1.5301 H         1 <0>         0.4109
     36 H7         -1.9409   -0.1274   -1.5974 H         1 <0>         0.1262
     37 H8         -3.2367   -0.6916   -3.6097 H         1 <0>         0.1267
     38 H9          0.2648   -2.3033   -5.4396 H         1 <0>         0.1304
     39 H10         1.5842   -1.7378   -3.4430 H         1 <0>         0.1259
     40 H11        -3.3998   -1.5691   -5.7275 H         1 <0>         0.0754
     41 H12        -1.2685   -3.6889   -6.2573 H         1 <0>         0.0678
     42 H13        -2.7205   -3.9057   -5.2508 H         1 <0>         0.0540
     43 H14        -3.0763   -4.8086   -7.5327 H         1 <0>         0.0556
     44 H15        -4.1544   -3.4280   -7.2166 H         1 <0>         0.0535
     45 H16        -3.1138   -3.2493   -9.4603 H         1 <0>         0.0665
     46 H17        -2.1775   -0.9689   -9.1921 H         1 <0>         0.0950
     47 H18        -3.6295   -1.1857   -8.1857 H         1 <0>         0.0430
     48 H19        -1.8217   -0.0660   -6.9103 H         1 <0>         0.0535
     49 H20        -0.7436   -1.4466   -7.2263 H         1 <0>         0.0677
     50 H21        -0.4826   -3.1009   -7.9228 H         1 <0>         0.0600
     51 H22        -1.0287   -4.5143   -8.8568 H         1 <0>         0.0508
     52 H23        -1.8104   -1.5333   -0.4854 H         1 <0>         0.0983
     53 H24        -0.5174   -2.7357   -0.2605 H         1 <0>         0.0732
     54 H25        -1.3319   -2.0292    1.1557 H         1 <0>         0.0769
@<TRIPOS>BOND
     1    1    2 1
     2    1   30 1
     3    1   31 1
     4    1   32 1
     5    2   11 1
     6    2    3 1
     7    2   29 1
     8    3    4 2
     9    3   13 1
    10    4    5 1
    11    5   10 ar
    12    5    6 ar
    13    6    7 ar
    14    6   12 1
    15    7    8 ar
    16    8    9 ar
    17    8   33 1
    18    9   10 ar
    19   10   11 1
    20   12   34 1
    21   12   35 1
    22   13   18 ar
    23   13   14 ar
    24   14   15 ar
    25   14   36 1
    26   15   16 ar
    27   15   37 1
    28   16   17 ar
    29   16   19 1
    30   17   18 ar
    31   17   38 1
    32   18   39 1
    33   19   24 1
    34   19   20 1
    35   19   40 1
    36   20   21 1
    37   20   41 1
    38   20   42 1
    39   21   22 1
    40   21   43 1
    41   21   44 1
    42   22   23 1
    43   22   25 1
    44   22   45 1
    45   23   24 1
    46   23   46 1
    47   23   47 1
    48   24   48 1
    49   24   49 1
    50   25   26 1
    51   25   50 1
    52   25   51 1
    53   26   27 2
    54   26   28 1
    55   29   52 1
    56   29   53 1
    57   29   54 1
