@<TRIPOS>MOLECULE
ZINC05188392
   62    63     0     0     0
SMALL
USER_CHARGES

@<TRIPOS>ATOM
      1 C1         -0.0187    1.5254    0.0104 C.3       1 <0>        -0.1262
      2 C2          1.4131    2.0635   -0.0004 C.3       1 <0>        -0.1171
      3 C3          2.1280    1.6340    1.2851 C.3       1 <0>        -0.0644
      4 C4          2.0284    0.1299    1.4113 C.2       1 <0>         0.1491
      5 N1          3.0715   -0.5818    1.6179 N.2       1 <0>        -0.2838
      6 O1          2.9575   -1.9885    1.7331 O.3       1 <0>        -0.2384
      7 C5          4.1283   -2.6169    1.9492 C.2       1 <0>         0.6543
      8 O2          5.1570   -1.9749    2.0281 O.2       1 <0>        -0.5420
      9 N2          4.1595   -3.9582    2.0779 N.am      1 <0>        -0.7134
     10 C6          5.4336   -4.6420    2.3130 C.3       1 <0>         0.1371
     11 C7          5.1914   -6.1489    2.4203 C.3       1 <0>        -0.1326
     12 C8          6.5220   -6.8631    2.6658 C.3       1 <0>        -0.1156
     13 C9          6.2798   -8.3700    2.7731 C.3       1 <0>        -0.1156
     14 C10         7.6104   -9.0842    3.0186 C.3       1 <0>        -0.1326
     15 C11         7.3682  -10.5911    3.1259 C.3       1 <0>         0.1371
     16 N3          8.6423  -11.2750    3.3610 N.am      1 <0>        -0.7133
     17 C12         8.6735  -12.6162    3.4897 C.2       1 <0>         0.6542
     18 O3          7.6448  -13.2583    3.4107 O.2       1 <0>        -0.5420
     19 O4          9.8444  -13.2447    3.7058 O.3       1 <0>        -0.2384
     20 N4          9.7303  -14.6514    3.8210 N.2       1 <0>        -0.2837
     21 C13        10.7735  -15.3630    4.0276 C.2       1 <0>         0.1493
     22 C14        12.1370  -14.7212    4.1581 C.3       1 <0>        -0.1227
     23 C15        12.7950  -15.2326    5.4440 C.3       1 <0>        -0.1142
     24 C16        12.8170  -16.7619    5.4301 C.3       1 <0>        -0.1261
     25 C17        11.3856  -17.3012    5.4342 C.3       1 <0>        -0.1174
     26 C18        10.6738  -16.8672    4.1538 C.3       1 <0>        -0.0643
     27 C19         0.6639   -0.5113    1.2876 C.3       1 <0>        -0.1227
     28 C20         0.0021   -0.0041    0.0020 C.3       1 <0>        -0.1142
     29 H1         -0.5307    1.8758    0.9066 H         1 <0>         0.0691
     30 H2         -0.5477    1.8854   -0.8720 H         1 <0>         0.0708
     31 H3          1.9453    1.6634   -0.8634 H         1 <0>         0.0687
     32 H4          1.3920    3.1517   -0.0584 H         1 <0>         0.0807
     33 H5          3.1763    1.9287    1.2369 H         1 <0>         0.0908
     34 H6          1.6513    2.1059    2.1443 H         1 <0>         0.0992
     35 H7          3.3384   -4.4707    2.0149 H         1 <0>         0.4054
     36 H8          6.1121   -4.4412    1.4839 H         1 <0>         0.0723
     37 H9          5.8755   -4.2781    3.2406 H         1 <0>         0.0723
     38 H10         4.5128   -6.3497    3.2493 H         1 <0>         0.0733
     39 H11         4.7495   -6.5128    1.4927 H         1 <0>         0.0732
     40 H12         7.2006   -6.6623    1.8368 H         1 <0>         0.0691
     41 H13         6.9639   -6.4992    3.5934 H         1 <0>         0.0691
     42 H14         5.6013   -8.5708    3.6021 H         1 <0>         0.0691
     43 H15         5.8379   -8.7339    1.8455 H         1 <0>         0.0691
     44 H16         8.2890   -8.8834    2.1896 H         1 <0>         0.0733
     45 H17         8.0524   -8.7203    3.9462 H         1 <0>         0.0732
     46 H18         6.6897  -10.7919    3.9549 H         1 <0>         0.0723
     47 H19         6.9263  -10.9550    2.1983 H         1 <0>         0.0723
     48 H20         9.4634  -10.7625    3.4240 H         1 <0>         0.4054
     49 H21        12.7523  -14.9909    3.2997 H         1 <0>         0.0931
     50 H22        12.0284  -13.6378    4.2083 H         1 <0>         0.0832
     51 H23        13.8156  -14.8549    5.5051 H         1 <0>         0.0742
     52 H24        12.2263  -14.8850    6.3064 H         1 <0>         0.0654
     53 H25        13.3322  -17.1087    4.5344 H         1 <0>         0.0691
     54 H26        13.3434  -17.1247    6.3129 H         1 <0>         0.0709
     55 H27        11.4074  -18.3896    5.4885 H         1 <0>         0.0809
     56 H28        10.8503  -16.9047    6.2969 H         1 <0>         0.0684
     57 H29         9.6255  -17.1619    4.2012 H         1 <0>         0.0908
     58 H30        11.1512  -17.3391    3.2950 H         1 <0>         0.0990
     59 H31         0.7715   -1.5950    1.2410 H         1 <0>         0.0832
     60 H32         0.0517   -0.2380    2.1470 H         1 <0>         0.0931
     61 H33        -1.0191   -0.3812   -0.0544 H         1 <0>         0.0741
     62 H34         0.5677   -0.3552   -0.8610 H         1 <0>         0.0654
@<TRIPOS>BOND
     1    1   28 1
     2    1    2 1
     3    1   29 1
     4    1   30 1
     5    2    3 1
     6    2   31 1
     7    2   32 1
     8    3    4 1
     9    3   33 1
    10    3   34 1
    11    4    5 2
    12    4   27 1
    13    5    6 1
    14    6    7 1
    15    7    8 2
    16    7    9 am
    17    9   10 1
    18    9   35 1
    19   10   11 1
    20   10   36 1
    21   10   37 1
    22   11   12 1
    23   11   38 1
    24   11   39 1
    25   12   13 1
    26   12   40 1
    27   12   41 1
    28   13   14 1
    29   13   42 1
    30   13   43 1
    31   14   15 1
    32   14   44 1
    33   14   45 1
    34   15   16 1
    35   15   46 1
    36   15   47 1
    37   16   17 am
    38   16   48 1
    39   17   18 2
    40   17   19 1
    41   19   20 1
    42   20   21 2
    43   21   26 1
    44   21   22 1
    45   22   23 1
    46   22   49 1
    47   22   50 1
    48   23   24 1
    49   23   51 1
    50   23   52 1
    51   24   25 1
    52   24   53 1
    53   24   54 1
    54   25   26 1
    55   25   55 1
    56   25   56 1
    57   26   57 1
    58   26   58 1
    59   27   28 1
    60   27   59 1
    61   27   60 1
    62   28   61 1
    63   28   62 1
@<TRIPOS>MOLECULE
ZINC08214635
   88    88     0     0     0
SMALL
USER_CHARGES

@<TRIPOS>ATOM
      1 C1         -0.0187    1.5258    0.0104 C.3       1 <0>        -0.1544
      2 C2          0.0021   -0.0041    0.0020 C.3       1 <0>        -0.1261
      3 C3          0.7421   -0.5109    1.2415 C.3       1 <0>        -0.1213
      4 C4          0.7628   -2.0407    1.2331 C.3       1 <0>        -0.1211
      5 C5          1.5028   -2.5476    2.4727 C.3       1 <0>        -0.1207
      6 C6          1.5236   -4.0774    2.4642 C.3       1 <0>        -0.1205
      7 C7          2.2636   -4.5842    3.7038 C.3       1 <0>        -0.1205
      8 C8          2.2843   -6.1141    3.6954 C.3       1 <0>        -0.1201
      9 C9          3.0243   -6.6209    4.9349 C.3       1 <0>        -0.1193
     10 C10         3.0450   -8.1508    4.9265 C.3       1 <0>        -0.1194
     11 C11         3.7850   -8.6576    6.1660 C.3       1 <0>        -0.1168
     12 C12         3.8058  -10.1874    6.1576 C.3       1 <0>         0.0940
     13 H1          4.2361  -10.5398    5.2201 H         1 <0>         0.0875
     14 C13         4.6512  -10.6925    7.3285 C.3       1 <0>        -0.1574
     15 C14         4.7753  -12.2153    7.2485 C.3       1 <0>         0.0556
     16 H2          5.0062  -12.5666    6.2429 H         1 <0>         0.1361
     17 C15         5.6887  -12.8107    8.3277 C.3       1 <0>        -0.1706
     18 H3          6.4145  -12.1160    8.7504 H         1 <0>         0.1148
     19 C16         4.3489  -12.8371    9.0268 C.2       1 <0>         0.4711
     20 O1          4.0091  -12.8049   10.1859 O.2       1 <0>        -0.4341
     21 O2          3.6781  -12.9098    7.8576 O.3       1 <0>        -0.3020
     22 C17         6.2714  -14.1854    7.9938 C.3       1 <0>        -0.0893
     23 C18         7.2541  -14.6027    9.0897 C.3       1 <0>        -0.1208
     24 C19         7.8368  -15.9774    8.7559 C.3       1 <0>        -0.1201
     25 C20         8.8195  -16.3947    9.8518 C.3       1 <0>        -0.1209
     26 C21         9.4022  -17.7694    9.5179 C.3       1 <0>        -0.1259
     27 C22        10.3849  -18.1866   10.6139 C.3       1 <0>        -0.1542
     28 O3          2.4714  -10.6826    6.2851 O.3       1 <0>        -0.3440
     29 C23         2.2014  -11.8629    5.7056 C.2       1 <0>         0.4567
     30 O4          3.0693  -12.4559    5.1098 O.2       1 <0>        -0.4778
     31 C24         0.8158  -12.4483    5.7980 C.3       1 <0>         0.1602
     32 H4          0.0777  -11.6545    5.6837 H         1 <0>         0.1156
     33 C25         0.6358  -13.1196    7.1610 C.3       1 <0>        -0.1217
     34 C26        -0.8084  -13.6043    7.3040 C.3       1 <0>        -0.0910
     35 C27        -0.9574  -14.3844    8.6117 C.3       1 <0>        -0.1468
     36 C28        -1.7516  -12.3997    7.3184 C.3       1 <0>        -0.1519
     37 N1          0.6335  -13.4414    4.7366 N.am      1 <0>        -0.7301
     38 C29         1.4394  -14.5200    4.6772 C.2       1 <0>         0.4919
     39 O5          2.3155  -14.6685    5.5026 O.2       1 <0>        -0.5112
     40 H5          1.0039    1.9031    0.0027 H         1 <0>         0.0533
     41 H6         -0.5459    1.8868   -0.8726 H         1 <0>         0.0535
     42 H7         -0.5289    1.8773    0.9072 H         1 <0>         0.0534
     43 H8         -1.0205   -0.3814    0.0098 H         1 <0>         0.0602
     44 H9          0.5123   -0.3556   -0.8948 H         1 <0>         0.0602
     45 H10         1.7647   -0.1336    1.2338 H         1 <0>         0.0605
     46 H11         0.2319   -0.1594    2.1383 H         1 <0>         0.0606
     47 H12        -0.2598   -2.4180    1.2409 H         1 <0>         0.0605
     48 H13         1.2730   -2.3923    0.3363 H         1 <0>         0.0604
     49 H14         2.5254   -2.1703    2.4649 H         1 <0>         0.0604
     50 H15         0.9926   -2.1961    3.3695 H         1 <0>         0.0606
     51 H16         0.5010   -4.4547    2.4720 H         1 <0>         0.0604
     52 H17         2.0337   -4.4289    1.5675 H         1 <0>         0.0602
     53 H18         3.2861   -4.2070    3.6960 H         1 <0>         0.0605
     54 H19         1.7534   -4.2327    4.6006 H         1 <0>         0.0609
     55 H20         1.2617   -6.4914    3.7031 H         1 <0>         0.0608
     56 H21         2.7945   -6.4656    2.7986 H         1 <0>         0.0602
     57 H22         4.0469   -6.2436    4.9271 H         1 <0>         0.0617
     58 H23         2.5141   -6.2694    5.8317 H         1 <0>         0.0629
     59 H24         2.0224   -8.5280    4.9342 H         1 <0>         0.0667
     60 H25         3.5552   -8.5023    4.0297 H         1 <0>         0.0607
     61 H26         4.8076   -8.2803    6.1583 H         1 <0>         0.0846
     62 H27         3.2748   -8.3061    7.0628 H         1 <0>         0.0771
     63 H28         5.6436  -10.2441    7.2801 H         1 <0>         0.1069
     64 H29         4.1729  -10.4157    8.2680 H         1 <0>         0.0834
     65 H30         5.4652  -14.9163    7.9311 H         1 <0>         0.0763
     66 H31         6.7927  -14.1366    7.0377 H         1 <0>         0.0834
     67 H32         8.0603  -13.8718    9.1524 H         1 <0>         0.0664
     68 H33         6.7328  -14.6515   10.0458 H         1 <0>         0.0650
     69 H34         7.0306  -16.7083    8.6932 H         1 <0>         0.0629
     70 H35         8.3581  -15.9286    7.7998 H         1 <0>         0.0634
     71 H36         9.6257  -15.6638    9.9145 H         1 <0>         0.0614
     72 H37         8.2982  -16.4435   10.8079 H         1 <0>         0.0615
     73 H38         8.5960  -18.5003    9.4553 H         1 <0>         0.0607
     74 H39         9.9235  -17.7206    8.5619 H         1 <0>         0.0606
     75 H40         9.8636  -18.2354   11.5699 H         1 <0>         0.0535
     76 H41        10.8000  -19.1660   10.3760 H         1 <0>         0.0535
     77 H42        11.1911  -17.4557   10.6765 H         1 <0>         0.0533
     78 H43         1.3137  -13.9695    7.2398 H         1 <0>         0.0982
     79 H44         0.8584  -12.4028    7.9514 H         1 <0>         0.0771
     80 H45        -1.0591  -14.2520    6.4640 H         1 <0>         0.0707
     81 H46        -0.7067  -13.7367    9.4518 H         1 <0>         0.0555
     82 H47        -1.9863  -14.7297    8.7136 H         1 <0>         0.0555
     83 H48        -0.2855  -15.2426    8.6015 H         1 <0>         0.0543
     84 H49        -1.5008  -11.7520    8.1584 H         1 <0>         0.0573
     85 H50        -1.6454  -11.8439    6.3868 H         1 <0>         0.0527
     86 H51        -2.7804  -12.7450    7.4203 H         1 <0>         0.0562
     87 H52        -0.0673  -13.3226    4.0765 H         1 <0>         0.4072
     88 H53         1.3049  -15.2522    3.8947 H         1 <0>         0.1291
@<TRIPOS>BOND
     1    1    2 1
     2    1   40 1
     3    1   41 1
     4    1   42 1
     5    2    3 1
     6    2   43 1
     7    2   44 1
     8    3    4 1
     9    3   45 1
    10    3   46 1
    11    4    5 1
    12    4   47 1
    13    4   48 1
    14    5    6 1
    15    5   49 1
    16    5   50 1
    17    6    7 1
    18    6   51 1
    19    6   52 1
    20    7    8 1
    21    7   53 1
    22    7   54 1
    23    8    9 1
    24    8   55 1
    25    8   56 1
    26    9   10 1
    27    9   57 1
    28    9   58 1
    29   10   11 1
    30   10   59 1
    31   10   60 1
    32   11   12 1
    33   11   61 1
    34   11   62 1
    35   12   13 1
    36   12   14 1
    37   12   28 1
    38   14   15 1
    39   14   63 1
    40   14   64 1
    41   15   16 1
    42   15   21 1
    43   15   17 1
    44   17   18 1
    45   17   19 1
    46   17   22 1
    47   19   20 2
    48   19   21 1
    49   22   23 1
    50   22   65 1
    51   22   66 1
    52   23   24 1
    53   23   67 1
    54   23   68 1
    55   24   25 1
    56   24   69 1
    57   24   70 1
    58   25   26 1
    59   25   71 1
    60   25   72 1
    61   26   27 1
    62   26   73 1
    63   26   74 1
    64   27   75 1
    65   27   76 1
    66   27   77 1
    67   28   29 1
    68   29   30 2
    69   29   31 1
    70   31   32 1
    71   31   33 1
    72   31   37 1
    73   33   34 1
    74   33   78 1
    75   33   79 1
    76   34   35 1
    77   34   36 1
    78   34   80 1
    79   35   81 1
    80   35   82 1
    81   35   83 1
    82   36   84 1
    83   36   85 1
    84   36   86 1
    85   37   38 am
    86   37   87 1
    87   38   39 2
    88   38   88 1
@<TRIPOS>MOLECULE
ZINC17653605
   88    88     0     0     0
SMALL
USER_CHARGES

@<TRIPOS>ATOM
      1 C1          0.2954    1.0447   -1.0087 C.3       1 <0>        -0.1542
      2 C2          0.2988   -0.4817   -0.9043 C.3       1 <0>        -0.1262
      3 C3          0.9985   -0.9028    0.3895 C.3       1 <0>        -0.1211
      4 C4          1.0020   -2.4292    0.4940 C.3       1 <0>        -0.1213
      5 C5          1.7017   -2.8503    1.7878 C.3       1 <0>        -0.1203
      6 C6          1.7052   -4.3767    1.8923 C.3       1 <0>        -0.1209
      7 C7          2.4049   -4.7978    3.1861 C.3       1 <0>        -0.1198
      8 C8          2.4083   -6.3242    3.2905 C.3       1 <0>        -0.1207
      9 C9          3.1081   -6.7453    4.5844 C.3       1 <0>        -0.1181
     10 C10         3.1115   -8.2717    4.6888 C.3       1 <0>        -0.1211
     11 C11         3.8112   -8.6928    5.9826 C.3       1 <0>        -0.1144
     12 C12         3.8147  -10.2192    6.0871 C.3       1 <0>         0.0863
     13 H1          4.2665  -10.6438    5.1906 H         1 <0>         0.0907
     14 C13         4.6217  -10.6446    7.3154 C.3       1 <0>        -0.1373
     15 C14         4.7305  -12.1703    7.3509 C.3       1 <0>         0.0604
     16 H2          3.7804  -12.6648    7.1486 H         1 <0>         0.1075
     17 C15         5.4413  -12.7025    8.6019 C.3       1 <0>        -0.1731
     18 H3          6.1599  -12.0161    9.0496 H         1 <0>         0.1440
     19 C16         6.0061  -13.6093    7.5326 C.2       1 <0>         0.4727
     20 O1          6.4526  -14.7320    7.5377 O.2       1 <0>        -0.4271
     21 O2          5.8183  -12.6831    6.5695 O.3       1 <0>        -0.3138
     22 C17         4.5291  -13.3914    9.6188 C.3       1 <0>        -0.1069
     23 C18         5.3392  -13.7596   10.8634 C.3       1 <0>        -0.1208
     24 C19         4.4270  -14.4485   11.8803 C.3       1 <0>        -0.1194
     25 C20         5.2372  -14.8167   13.1249 C.3       1 <0>        -0.1217
     26 C21         4.3250  -15.5056   14.1419 C.3       1 <0>        -0.1255
     27 C22         5.1351  -15.8738   15.3864 C.3       1 <0>        -0.1547
     28 O3          2.4717  -10.6911    6.2128 O.3       1 <0>        -0.3445
     29 C23         2.2043  -11.9083    5.7140 C.2       1 <0>         0.4375
     30 O4          3.0813  -12.5517    5.1881 O.2       1 <0>        -0.4645
     31 C24         0.8101  -12.4722    5.8099 C.3       1 <0>         0.1576
     32 H4          0.3846  -12.2259    6.7828 H         1 <0>         0.1208
     33 C25        -0.0607  -11.8702    4.7053 C.3       1 <0>        -0.1279
     34 C26        -1.4982  -12.3712    4.8591 C.3       1 <0>        -0.0902
     35 C27        -2.0918  -11.8263    6.1597 C.3       1 <0>        -0.1521
     36 C28        -2.3363  -11.8875    3.6739 C.3       1 <0>        -0.1480
     37 N1          0.8603  -13.9280    5.6534 N.am      1 <0>        -0.7311
     38 C29         1.3524  -14.4673    4.5205 C.2       1 <0>         0.4950
     39 O5          1.7537  -13.7475    3.6307 O.2       1 <0>        -0.5180
     40 H5          1.3220    1.4108   -1.0152 H         1 <0>         0.0533
     41 H6         -0.2031    1.3447   -1.9305 H         1 <0>         0.0534
     42 H7         -0.2353    1.4661   -0.1550 H         1 <0>         0.0533
     43 H8         -0.7279   -0.8478   -0.8978 H         1 <0>         0.0602
     44 H9          0.8294   -0.9031   -1.7581 H         1 <0>         0.0603
     45 H10         2.0252   -0.5367    0.3831 H         1 <0>         0.0605
     46 H11         0.4679   -0.4814    1.2433 H         1 <0>         0.0605
     47 H12        -0.0247   -2.7953    0.5004 H         1 <0>         0.0605
     48 H13         1.5326   -2.8506   -0.3598 H         1 <0>         0.0605
     49 H14         2.7284   -2.4842    1.7813 H         1 <0>         0.0603
     50 H15         1.1711   -2.4289    2.6416 H         1 <0>         0.0603
     51 H16         0.6785   -4.7428    1.8987 H         1 <0>         0.0604
     52 H17         2.2358   -4.7981    1.0385 H         1 <0>         0.0604
     53 H18         3.4316   -4.4318    3.1796 H         1 <0>         0.0604
     54 H19         1.8743   -4.3764    4.0399 H         1 <0>         0.0606
     55 H20         1.3816   -6.6903    3.2970 H         1 <0>         0.0609
     56 H21         2.9389   -6.7456    2.4368 H         1 <0>         0.0606
     57 H22         4.1347   -6.3793    4.5779 H         1 <0>         0.0614
     58 H23         2.5774   -6.3239    5.4381 H         1 <0>         0.0625
     59 H24         2.0848   -8.6378    4.6953 H         1 <0>         0.0671
     60 H25         3.6421   -8.6932    3.8350 H         1 <0>         0.0615
     61 H26         4.8379   -8.3268    5.9762 H         1 <0>         0.0848
     62 H27         3.2806   -8.2714    6.8364 H         1 <0>         0.0776
     63 H28         5.6201  -10.2103    7.2623 H         1 <0>         0.0996
     64 H29         4.1209  -10.2949    8.2181 H         1 <0>         0.1009
     65 H30         3.7208  -12.7156    9.8982 H         1 <0>         0.0807
     66 H31         4.1103  -14.2957    9.1772 H         1 <0>         0.0702
     67 H32         6.1475  -14.4354   10.5840 H         1 <0>         0.0679
     68 H33         5.7580  -12.8553   11.3050 H         1 <0>         0.0663
     69 H34         3.6187  -13.7727   12.1598 H         1 <0>         0.0624
     70 H35         4.0083  -15.3528   11.4388 H         1 <0>         0.0621
     71 H36         6.0455  -15.4925   12.8455 H         1 <0>         0.0621
     72 H37         5.6559  -13.9124   13.5665 H         1 <0>         0.0615
     73 H38         3.5167  -14.8298   14.4213 H         1 <0>         0.0603
     74 H39         3.9062  -16.4099   13.7003 H         1 <0>         0.0605
     75 H40         5.5539  -14.9695   15.8280 H         1 <0>         0.0534
     76 H41         4.4853  -16.3646   16.1109 H         1 <0>         0.0537
     77 H42         5.9434  -16.5496   15.1070 H         1 <0>         0.0537
     78 H43        -0.0447  -10.7830    4.7819 H         1 <0>         0.0803
     79 H44         0.3270  -12.1716    3.7322 H         1 <0>         0.0936
     80 H45        -1.5022  -13.4608    4.8863 H         1 <0>         0.0724
     81 H46        -2.0878  -10.7366    6.1324 H         1 <0>         0.0581
     82 H47        -3.1159  -12.1832    6.2692 H         1 <0>         0.0573
     83 H48        -1.4947  -12.1708    7.0040 H         1 <0>         0.0532
     84 H49        -2.3260  -10.7980    3.6422 H         1 <0>         0.0560
     85 H50        -1.9179  -12.2819    2.7480 H         1 <0>         0.0552
     86 H51        -3.3622  -12.2381    3.7873 H         1 <0>         0.0569
     87 H52         0.5393  -14.5037    6.3650 H         1 <0>         0.4091
     88 H53         1.3894  -15.5405    4.4051 H         1 <0>         0.1335
@<TRIPOS>BOND
     1    1    2 1
     2    1   40 1
     3    1   41 1
     4    1   42 1
     5    2    3 1
     6    2   43 1
     7    2   44 1
     8    3    4 1
     9    3   45 1
    10    3   46 1
    11    4    5 1
    12    4   47 1
    13    4   48 1
    14    5    6 1
    15    5   49 1
    16    5   50 1
    17    6    7 1
    18    6   51 1
    19    6   52 1
    20    7    8 1
    21    7   53 1
    22    7   54 1
    23    8    9 1
    24    8   55 1
    25    8   56 1
    26    9   10 1
    27    9   57 1
    28    9   58 1
    29   10   11 1
    30   10   59 1
    31   10   60 1
    32   11   12 1
    33   11   61 1
    34   11   62 1
    35   12   13 1
    36   12   14 1
    37   12   28 1
    38   14   15 1
    39   14   63 1
    40   14   64 1
    41   15   16 1
    42   15   21 1
    43   15   17 1
    44   17   18 1
    45   17   19 1
    46   17   22 1
    47   19   20 2
    48   19   21 1
    49   22   23 1
    50   22   65 1
    51   22   66 1
    52   23   24 1
    53   23   67 1
    54   23   68 1
    55   24   25 1
    56   24   69 1
    57   24   70 1
    58   25   26 1
    59   25   71 1
    60   25   72 1
    61   26   27 1
    62   26   73 1
    63   26   74 1
    64   27   75 1
    65   27   76 1
    66   27   77 1
    67   28   29 1
    68   29   30 2
    69   29   31 1
    70   31   32 1
    71   31   33 1
    72   31   37 1
    73   33   34 1
    74   33   78 1
    75   33   79 1
    76   34   35 1
    77   34   36 1
    78   34   80 1
    79   35   81 1
    80   35   82 1
    81   35   83 1
    82   36   84 1
    83   36   85 1
    84   36   86 1
    85   37   38 am
    86   37   87 1
    87   38   39 2
    88   38   88 1
