@<TRIPOS>MOLECULE
ZINC00057916
   21    22     0     0     0
SMALL
USER_CHARGES
7-hydroxy-4-(trifluoromethyl)chromen-2-one
@<TRIPOS>ATOM
      1 C1         -1.2355    2.0276    0.0189 C.ar      1 <0>        -0.1555
      2 C2         -1.2707    3.3921    0.0320 C.ar      1 <0>        -0.0377
      3 C3         -0.0747    4.1185    0.0240 C.ar      1 <0>        -0.1534
      4 C4         -0.0821    5.5829    0.0324 C.2       1 <0>        -0.0680
      5 C5          1.1119    6.2307    0.0249 C.2       1 <0>        -0.1669
      6 C6          2.3116    5.4900    0.0095 C.2       1 <0>         0.5130
      7 O1          3.3752    6.0835    0.0029 O.2       1 <0>        -0.4337
      8 O2          2.3117    4.1478    0.0022 O.3       1 <0>        -0.2602
      9 C7          1.1600    3.4429    0.0090 C.ar      1 <0>         0.1734
     10 C8          1.1774    2.0566    0.0019 C.ar      1 <0>        -0.1606
     11 C9         -0.0163    1.3533    0.0095 C.ar      1 <0>         0.1775
     12 O3          0.0021   -0.0041    0.0020 O.3       1 <0>        -0.4881
     13 C10        -1.3790    6.3503    0.0484 C.3       1 <0>         0.5107
     14 F1         -1.1086    7.7229    0.0533 F         1 <0>        -0.1638
     15 F2         -2.1266    6.0263   -1.0888 F         1 <0>        -0.1628
     16 F3         -2.1057    6.0140    1.1956 F         1 <0>        -0.1632
     17 H1         -2.1586    1.4671    0.0203 H         1 <0>         0.1490
     18 H2         -2.2186    3.9094    0.0431 H         1 <0>         0.1442
     19 H3          1.1422    7.3103    0.0312 H         1 <0>         0.1836
     20 H4          2.1184    1.5267   -0.0093 H         1 <0>         0.1575
     21 H5          0.0158   -0.4021    0.8832 H         1 <0>         0.4052
@<TRIPOS>BOND
     1    1   11 ar
     2    1    2 ar
     3    1   17 1
     4    2    3 ar
     5    2   18 1
     6    3    9 ar
     7    3    4 1
     8    4    5 2
     9    4   13 1
    10    5    6 1
    11    5   19 1
    12    6    7 2
    13    6    8 1
    14    8    9 1
    15    9   10 ar
    16   10   11 ar
    17   10   20 1
    18   11   12 1
    19   12   21 1
    20   13   14 1
    21   13   15 1
    22   13   16 1
@<TRIPOS>MOLECULE
ZINC01504345
   32    34     0     0     0
SMALL
USER_CHARGES

@<TRIPOS>ATOM
      1 C1         -0.0167    1.3794    0.0096 C.ar      1 <0>        -0.1154
      2 C2          1.1687    2.0931    0.0021 C.ar      1 <0>        -0.1180
      3 C3          2.3775    1.4282   -0.0134 C.ar      1 <0>        -0.1081
      4 C4          2.4030    0.0335   -0.0211 C.ar      1 <0>        -0.0528
      5 C5          1.2045   -0.6804   -0.0130 C.ar      1 <0>        -0.1079
      6 C6          0.0021   -0.0041    0.0020 C.ar      1 <0>        -0.1178
      7 C7          3.6976   -0.6867   -0.0382 C.ar      1 <0>        -0.0294
      8 C8          4.8955    0.0318   -0.0410 C.ar      1 <0>        -0.1108
      9 C9          6.0897   -0.6302   -0.0568 C.ar      1 <0>        -0.0901
     10 C10         6.1129   -2.0302   -0.0702 C.ar      1 <0>        -0.0668
     11 C11         4.9111   -2.7488   -0.0675 C.ar      1 <0>        -0.0807
     12 C12         3.7188   -2.0834   -0.0459 C.ar      1 <0>        -0.1097
     13 C13         7.4013   -2.7469   -0.0878 C.2       1 <0>        -0.0693
     14 C14         8.2452   -2.6594    0.9729 C.2       1 <0>        -0.1397
     15 C15         9.5243   -3.3742    0.9502 C.2       1 <0>         0.3943
     16 O1         10.2794   -3.2959    1.9002 O.2       1 <0>        -0.4123
     17 C16         9.8990   -4.1901   -0.2230 C.2       1 <0>        -0.1418
     18 C17         9.0730   -4.2825   -1.2743 C.2       1 <0>        -0.1425
     19 C18         7.7797   -3.5730   -1.2631 C.2       1 <0>         0.3990
     20 O2          7.0290   -3.6604   -2.2130 O.2       1 <0>        -0.4005
     21 H1         -0.9604    1.9044    0.0260 H         1 <0>         0.1242
     22 H2          1.1476    3.1729    0.0081 H         1 <0>         0.1256
     23 H3          3.3020    1.9864   -0.0199 H         1 <0>         0.1261
     24 H4          1.2179   -1.7603   -0.0192 H         1 <0>         0.1262
     25 H5         -0.9264   -0.5556    0.0082 H         1 <0>         0.1257
     26 H6          4.8772    1.1116   -0.0309 H         1 <0>         0.1315
     27 H7          7.0157   -0.0744   -0.0592 H         1 <0>         0.1294
     28 H8          4.9271   -3.8286   -0.0779 H         1 <0>         0.1267
     29 H9          2.7917   -2.6373   -0.0389 H         1 <0>         0.1313
     30 H10         7.9741   -2.0634    1.8318 H         1 <0>         0.1568
     31 H11        10.8433   -4.7142   -0.2337 H         1 <0>         0.1576
     32 H12         9.3529   -4.8803   -2.1292 H         1 <0>         0.1592
@<TRIPOS>BOND
     1    1    6 ar
     2    1    2 ar
     3    1   21 1
     4    2    3 ar
     5    2   22 1
     6    3    4 ar
     7    3   23 1
     8    4    5 ar
     9    4    7 1
    10    5    6 ar
    11    5   24 1
    12    6   25 1
    13    7   12 ar
    14    7    8 ar
    15    8    9 ar
    16    8   26 1
    17    9   10 ar
    18    9   27 1
    19   10   11 ar
    20   10   13 1
    21   11   12 ar
    22   11   28 1
    23   12   29 1
    24   13   19 1
    25   13   14 2
    26   14   15 1
    27   14   30 1
    28   15   16 2
    29   15   17 1
    30   17   18 2
    31   17   31 1
    32   18   19 1
    33   18   32 1
    34   19   20 2
@<TRIPOS>MOLECULE
ZINC00058121
   21    22     0     0     0
SMALL
USER_CHARGES

@<TRIPOS>ATOM
      1 C1         -0.0184    1.5028    0.0103 C.3       1 <0>        -0.1297
      2 C2          0.0021   -0.0041    0.0020 C.2       1 <0>         0.0333
      3 C3          0.0061   -0.6954   -1.1674 C.2       1 <0>        -0.2575
      4 C4          0.0259   -2.1051   -1.1488 C.2       1 <0>         0.5103
      5 O1          0.0297   -2.7124   -2.2045 O.2       1 <0>        -0.4615
      6 O2          0.0411   -2.7950    0.0025 O.3       1 <0>        -0.2716
      7 C5          0.0380   -2.1693    1.1991 C.ar      1 <0>         0.1666
      8 C6          0.0243   -0.7629    1.2543 C.ar      1 <0>        -0.1653
      9 C7          0.0261   -0.1105    2.4922 C.ar      1 <0>        -0.0386
     10 C8          0.0465   -0.8421    3.6444 C.ar      1 <0>        -0.1658
     11 C9          0.0655   -2.2344    3.5961 C.ar      1 <0>         0.1681
     12 C10         0.0533   -2.8969    2.3791 C.ar      1 <0>        -0.1660
     13 O3          0.0862   -2.9478    4.7507 O.3       1 <0>        -0.4907
     14 H1          1.0042    1.8801    0.0026 H         1 <0>         0.0928
     15 H2         -0.5455    1.8639   -0.8728 H         1 <0>         0.0858
     16 H3         -0.5286    1.8543    0.9071 H         1 <0>         0.0819
     17 H4         -0.0061   -0.1665   -2.1090 H         1 <0>         0.1648
     18 H5          0.0118    0.9686    2.5359 H         1 <0>         0.1460
     19 H6          0.0483   -0.3384    4.5997 H         1 <0>         0.1433
     20 H7          0.0678   -3.9764    2.3498 H         1 <0>         0.1516
     21 H8         -0.7911   -3.1669    5.0934 H         1 <0>         0.4022
@<TRIPOS>BOND
     1    1    2 1
     2    1   14 1
     3    1   15 1
     4    1   16 1
     5    2    8 1
     6    2    3 2
     7    3    4 1
     8    3   17 1
     9    4    5 2
    10    4    6 1
    11    6    7 1
    12    7   12 ar
    13    7    8 ar
    14    8    9 ar
    15    9   10 ar
    16    9   18 1
    17   10   11 ar
    18   10   19 1
    19   11   12 ar
    20   11   13 1
    21   12   20 1
    22   13   21 1
@<TRIPOS>MOLECULE
ZINC00388631
   24    25     0     0     0
SMALL
USER_CHARGES
7-hydroxy-3,4-dimethyl-chromen-2-one
@<TRIPOS>ATOM
      1 C1          1.4762    1.5784    2.4330 C.3       1 <0>        -0.1289
      2 C2         -0.0134    1.8021    2.3862 C.2       1 <0>         0.0219
      3 C3         -0.7181    1.5718    1.2479 C.2       1 <0>        -0.2222
      4 C4         -2.1103    1.7942    1.2277 C.2       1 <0>         0.5142
      5 O1         -2.7293    1.5882    0.1992 O.2       1 <0>        -0.4576
      6 O2         -2.7718    2.2223    2.3144 O.3       1 <0>        -0.2698
      7 C5         -2.1315    2.4699    3.4772 C.ar      1 <0>         0.1613
      8 C6         -0.7404    2.2742    3.5664 C.ar      1 <0>        -0.1577
      9 C7         -0.0728    2.5304    4.7692 C.ar      1 <0>        -0.0411
     10 C8         -0.7749    2.9693    5.8544 C.ar      1 <0>        -0.1643
     11 C9         -2.1519    3.1649    5.7721 C.ar      1 <0>         0.1648
     12 C10        -2.8289    2.9166    4.5890 C.ar      1 <0>        -0.1639
     13 O3         -2.8360    3.6018    6.8602 O.3       1 <0>        -0.4908
     14 C11        -0.0127    1.0858    0.0080 C.3       1 <0>        -0.0979
     15 H1          1.9906    2.4971    2.1513 H         1 <0>         0.0918
     16 H2          1.7692    1.2930    3.4433 H         1 <0>         0.0812
     17 H3          1.7462    0.7831    1.7381 H         1 <0>         0.0864
     18 H4          0.9944    2.3803    4.8390 H         1 <0>         0.1456
     19 H5         -0.2595    3.1667    6.7828 H         1 <0>         0.1430
     20 H6         -3.8963    3.0709    4.5330 H         1 <0>         0.1510
     21 H7         -3.1677    2.8922    7.4273 H         1 <0>         0.4017
     22 H8          0.0021   -0.0041    0.0020 H         1 <0>         0.0767
     23 H9          1.0099    1.4631    0.0003 H         1 <0>         0.0756
     24 H10        -0.5399    1.4469   -0.8751 H         1 <0>         0.0792
@<TRIPOS>BOND
     1    1    2 1
     2    1   15 1
     3    1   16 1
     4    1   17 1
     5    2    8 1
     6    2    3 2
     7    3    4 1
     8    3   14 1
     9    4    5 2
    10    4    6 1
    11    6    7 1
    12    7   12 ar
    13    7    8 ar
    14    8    9 ar
    15    9   10 ar
    16    9   18 1
    17   10   11 ar
    18   10   19 1
    19   11   12 ar
    20   11   13 1
    21   12   20 1
    22   13   21 1
    23   14   22 1
    24   14   23 1
    25   14   24 1
@<TRIPOS>MOLECULE
ZINC01696581
   36    36     0     0     0
SMALL
USER_CHARGES
1-(4-hydroxyphenyl)octan-1-one
@<TRIPOS>ATOM
      1 C1          5.8250   -9.6351   -0.1031 C.3       1 <0>        -0.1542
      2 C2          4.4868   -8.8936   -0.0863 C.3       1 <0>        -0.1266
      3 C3          4.7398   -7.3847   -0.0812 C.3       1 <0>        -0.1207
      4 C4          3.4016   -6.6432   -0.0644 C.3       1 <0>        -0.1214
      5 C5          3.6547   -5.1343   -0.0593 C.3       1 <0>        -0.1204
      6 C6          2.3164   -4.3928   -0.0426 C.3       1 <0>        -0.1135
      7 C7          2.5695   -2.8839   -0.0374 C.3       1 <0>        -0.1582
      8 C8          1.2514   -2.1535   -0.0209 C.2       1 <0>         0.3951
      9 O1          0.2119   -2.7784   -0.0140 O.2       1 <0>        -0.4495
     10 C9          1.2256   -0.6852   -0.0133 C.ar      1 <0>        -0.1846
     11 C10         0.0021   -0.0041    0.0020 C.ar      1 <0>        -0.0431
     12 C11        -0.0165    1.3670    0.0096 C.ar      1 <0>        -0.1593
     13 C12         1.1769    2.0811    0.0020 C.ar      1 <0>         0.1410
     14 C13         2.3947    1.4095   -0.0132 C.ar      1 <0>        -0.1598
     15 C14         2.4244    0.0387   -0.0208 C.ar      1 <0>        -0.0545
     16 O2          1.1530    3.4375    0.0095 O.3       1 <0>        -0.4979
     17 H1          6.3831   -9.3573   -0.9971 H         1 <0>         0.0533
     18 H2          6.4004   -9.3662    0.7827 H         1 <0>         0.0532
     19 H3          5.6447  -10.7101   -0.1067 H         1 <0>         0.0535
     20 H4          3.9286   -9.1715    0.8077 H         1 <0>         0.0606
     21 H5          3.9113   -9.1625   -0.9721 H         1 <0>         0.0606
     22 H6          5.2980   -7.1068   -0.9752 H         1 <0>         0.0608
     23 H7          5.3153   -7.1158    0.8046 H         1 <0>         0.0608
     24 H8          2.8434   -6.9210    0.8296 H         1 <0>         0.0622
     25 H9          2.8261   -6.9121   -0.9502 H         1 <0>         0.0621
     26 H10         4.2128   -4.8564   -0.9534 H         1 <0>         0.0626
     27 H11         4.2301   -4.8654    0.8265 H         1 <0>         0.0628
     28 H12         1.7583   -4.6706    0.8515 H         1 <0>         0.0691
     29 H13         1.7410   -4.6617   -0.9284 H         1 <0>         0.0689
     30 H14         3.0816   -2.6290   -0.8576 H         1 <0>         0.0903
     31 H15         3.1450   -2.6150    0.8484 H         1 <0>         0.0996
     32 H16        -0.9252   -0.5577    0.0082 H         1 <0>         0.1387
     33 H17        -0.9596    1.8932    0.0169 H         1 <0>         0.1365
     34 H18         3.3186    1.9687   -0.0194 H         1 <0>         0.1368
     35 H19         3.3705   -0.4819   -0.0323 H         1 <0>         0.1374
     36 H20         1.1545    3.8260    0.8950 H         1 <0>         0.3979
@<TRIPOS>BOND
     1    1    2 1
     2    1   17 1
     3    1   18 1
     4    1   19 1
     5    2    3 1
     6    2   20 1
     7    2   21 1
     8    3    4 1
     9    3   22 1
    10    3   23 1
    11    4    5 1
    12    4   24 1
    13    4   25 1
    14    5    6 1
    15    5   26 1
    16    5   27 1
    17    6    7 1
    18    6   28 1
    19    6   29 1
    20    7    8 1
    21    7   30 1
    22    7   31 1
    23    8    9 2
    24    8   10 1
    25   10   15 ar
    26   10   11 ar
    27   11   12 ar
    28   11   32 1
    29   12   13 ar
    30   12   33 1
    31   13   14 ar
    32   13   16 1
    33   14   15 ar
    34   14   34 1
    35   15   35 1
    36   16   36 1
@<TRIPOS>MOLECULE
ZINC02163639
   39    39     0     0     0
SMALL
USER_CHARGES

@<TRIPOS>ATOM
      1 C1         -0.0187    1.5258    0.0104 C.3       1 <0>        -0.1545
      2 C2          0.0021   -0.0041    0.0020 C.3       1 <0>        -0.1259
      3 C3          0.7182   -0.4975   -1.2568 C.3       1 <0>        -0.1218
      4 C4          0.7390   -2.0273   -1.2652 C.3       1 <0>        -0.1206
      5 C5          1.4551   -2.5207   -2.5240 C.3       1 <0>        -0.1212
      6 C6          1.4758   -4.0506   -2.5324 C.3       1 <0>        -0.1199
      7 C7          2.1920   -4.5440   -3.7912 C.3       1 <0>        -0.1122
      8 C8          2.2127   -6.0738   -3.7996 C.3       1 <0>        -0.1668
      9 C9          2.9181   -6.5598   -5.0395 C.2       1 <0>         0.3959
     10 O1          3.3607   -5.7611   -5.8379 O.2       1 <0>        -0.4504
     11 C10         3.0696   -8.0005   -5.2811 C.ar      1 <0>        -0.1842
     12 C11         2.5545   -8.9247   -4.3638 C.ar      1 <0>        -0.0545
     13 C12         2.6982  -10.2687   -4.5943 C.ar      1 <0>        -0.1599
     14 C13         3.3546  -10.7145   -5.7365 C.ar      1 <0>         0.1406
     15 C14         3.8685   -9.8008   -6.6505 C.ar      1 <0>        -0.1593
     16 C15         3.7247   -8.4547   -6.4325 C.ar      1 <0>        -0.0435
     17 O2          3.4946  -12.0453   -5.9597 O.3       1 <0>        -0.4980
     18 H1          1.0039    1.9031    0.0027 H         1 <0>         0.0534
     19 H2         -0.5459    1.8868   -0.8726 H         1 <0>         0.0534
     20 H3         -0.5289    1.8773    0.9072 H         1 <0>         0.0534
     21 H4          0.5293   -0.3651    0.8851 H         1 <0>         0.0602
     22 H5         -1.0205   -0.3814    0.0098 H         1 <0>         0.0602
     23 H6          0.1910   -0.1364   -2.1398 H         1 <0>         0.0608
     24 H7          1.7408   -0.1202   -1.2645 H         1 <0>         0.0609
     25 H8          1.2661   -2.3884   -0.3821 H         1 <0>         0.0608
     26 H9         -0.2836   -2.4046   -1.2575 H         1 <0>         0.0607
     27 H10         0.9279   -2.1597   -3.4071 H         1 <0>         0.0619
     28 H11         2.4777   -2.1435   -2.5317 H         1 <0>         0.0620
     29 H12         2.0030   -4.4117   -1.6494 H         1 <0>         0.0626
     30 H13         0.4533   -4.4279   -2.5247 H         1 <0>         0.0625
     31 H14         1.6648   -4.1829   -4.6743 H         1 <0>         0.0684
     32 H15         3.2146   -4.1667   -3.7990 H         1 <0>         0.0685
     33 H16         2.7399   -6.4349   -2.9166 H         1 <0>         0.0998
     34 H17         1.1901   -6.4511   -3.7919 H         1 <0>         0.0998
     35 H18         2.0452   -8.5795   -3.4762 H         1 <0>         0.1376
     36 H19         2.3013  -10.9823   -3.8875 H         1 <0>         0.1367
     37 H20         4.3781  -10.1521   -7.5355 H         1 <0>         0.1364
     38 H21         4.1198   -7.7460   -7.1452 H         1 <0>         0.1385
     39 H22         2.7681  -12.4384   -6.4625 H         1 <0>         0.3979
@<TRIPOS>BOND
     1    1    2 1
     2    1   18 1
     3    1   19 1
     4    1   20 1
     5    2    3 1
     6    2   21 1
     7    2   22 1
     8    3    4 1
     9    3   23 1
    10    3   24 1
    11    4    5 1
    12    4   25 1
    13    4   26 1
    14    5    6 1
    15    5   27 1
    16    5   28 1
    17    6    7 1
    18    6   29 1
    19    6   30 1
    20    7    8 1
    21    7   31 1
    22    7   32 1
    23    8    9 1
    24    8   33 1
    25    8   34 1
    26    9   10 2
    27    9   11 1
    28   11   16 ar
    29   11   12 ar
    30   12   13 ar
    31   12   35 1
    32   13   14 ar
    33   13   36 1
    34   14   15 ar
    35   14   17 1
    36   15   16 ar
    37   15   37 1
    38   16   38 1
    39   17   39 1
@<TRIPOS>MOLECULE
ZINC02556863
   33    33     0     0     0
SMALL
USER_CHARGES
1-(4-hydroxyphenyl)heptan-1-one
@<TRIPOS>ATOM
      1 C1          7.4380    0.6109   -0.0657 C.3       1 <0>        -0.1547
      2 C2          6.2617    1.5892   -0.0492 C.3       1 <0>        -0.1255
      3 C3          4.9473    0.8063   -0.0408 C.3       1 <0>        -0.1216
      4 C4          3.7710    1.7846   -0.0244 C.3       1 <0>        -0.1208
      5 C5          2.4566    1.0016   -0.0160 C.3       1 <0>        -0.1136
      6 C6          1.2803    1.9799    0.0005 C.3       1 <0>        -0.1582
      7 C7         -0.0144    1.2087    0.0087 C.2       1 <0>         0.3951
      8 O1          0.0021   -0.0041    0.0020 O.2       1 <0>        -0.4495
      9 C8         -1.2960    1.9257    0.0187 C.ar      1 <0>        -0.1845
     10 C9         -1.3178    3.3258    0.0322 C.ar      1 <0>        -0.0545
     11 C10        -2.5172    3.9904    0.0356 C.ar      1 <0>        -0.1598
     12 C11        -3.7106    3.2763    0.0374 C.ar      1 <0>         0.1409
     13 C12        -3.6945    1.8856    0.0298 C.ar      1 <0>        -0.1592
     14 C13        -2.5006    1.2115    0.0205 C.ar      1 <0>        -0.0431
     15 O2         -4.8946    3.9386    0.0461 O.3       1 <0>        -0.4979
     16 H1          7.3973   -0.0212    0.8213 H         1 <0>         0.0536
     17 H2          7.3803   -0.0117   -0.9585 H         1 <0>         0.0536
     18 H3          8.3744    1.1687   -0.0716 H         1 <0>         0.0535
     19 H4          6.3025    2.2214   -0.9362 H         1 <0>         0.0605
     20 H5          6.3195    2.2118    0.8436 H         1 <0>         0.0605
     21 H6          4.9065    0.1741    0.8462 H         1 <0>         0.0622
     22 H7          4.8895    0.1837   -0.9337 H         1 <0>         0.0621
     23 H8          3.8118    2.4167   -0.9114 H         1 <0>         0.0626
     24 H9          3.8288    2.4072    0.8685 H         1 <0>         0.0629
     25 H10         2.4158    0.3695    0.8710 H         1 <0>         0.0691
     26 H11         2.3988    0.3790   -0.9088 H         1 <0>         0.0689
     27 H12         1.3177    2.5598   -0.8133 H         1 <0>         0.0903
     28 H13         1.3381    2.6025    0.8933 H         1 <0>         0.0996
     29 H14        -0.3915    3.8812    0.0353 H         1 <0>         0.1374
     30 H15        -2.5351    5.0703    0.0411 H         1 <0>         0.1368
     31 H16        -4.6241    1.3358    0.0316 H         1 <0>         0.1365
     32 H17        -2.4892    0.1315    0.0142 H         1 <0>         0.1387
     33 H18        -5.2340    4.1258    0.9320 H         1 <0>         0.3979
@<TRIPOS>BOND
     1    1    2 1
     2    1   16 1
     3    1   17 1
     4    1   18 1
     5    2    3 1
     6    2   19 1
     7    2   20 1
     8    3    4 1
     9    3   21 1
    10    3   22 1
    11    4    5 1
    12    4   23 1
    13    4   24 1
    14    5    6 1
    15    5   25 1
    16    5   26 1
    17    6    7 1
    18    6   27 1
    19    6   28 1
    20    7    8 2
    21    7    9 1
    22    9   14 ar
    23    9   10 ar
    24   10   11 ar
    25   10   29 1
    26   11   12 ar
    27   11   30 1
    28   12   13 ar
    29   12   15 1
    30   13   14 ar
    31   13   31 1
    32   14   32 1
    33   15   33 1
@<TRIPOS>MOLECULE
ZINC02163637
   48    48     0     0     0
SMALL
USER_CHARGES

@<TRIPOS>ATOM
      1 C1         -0.0187    1.5258    0.0104 C.3       1 <0>        -0.1543
      2 C2          0.0021   -0.0041    0.0020 C.3       1 <0>        -0.1263
      3 C3          0.7421   -0.5109    1.2415 C.3       1 <0>        -0.1212
      4 C4          0.7628   -2.0407    1.2331 C.3       1 <0>        -0.1214
      5 C5          1.5028   -2.5476    2.4727 C.3       1 <0>        -0.1204
      6 C6          1.5236   -4.0774    2.4642 C.3       1 <0>        -0.1211
      7 C7          2.2636   -4.5842    3.7038 C.3       1 <0>        -0.1200
      8 C8          2.2843   -6.1141    3.6954 C.3       1 <0>        -0.1211
      9 C9          3.0243   -6.6209    4.9349 C.3       1 <0>        -0.1199
     10 C10         3.0450   -8.1508    4.9265 C.3       1 <0>        -0.1121
     11 C11         3.7850   -8.6576    6.1660 C.3       1 <0>        -0.1668
     12 C12         3.8055  -10.1644    6.1577 C.2       1 <0>         0.3959
     13 O1          3.2799  -10.7731    5.2497 O.2       1 <0>        -0.4504
     14 C13         4.4618  -10.8959    7.2490 C.ar      1 <0>        -0.1842
     15 C14         5.0643  -10.1957    8.3015 C.ar      1 <0>        -0.0546
     16 C15         5.6753  -10.8834    9.3182 C.ar      1 <0>        -0.1599
     17 C16         5.6978  -12.2740    9.3053 C.ar      1 <0>         0.1406
     18 C17         5.1013  -12.9742    8.2621 C.ar      1 <0>        -0.1592
     19 C18         4.4822  -12.2961    7.2437 C.ar      1 <0>        -0.0436
     20 O2          6.3040  -12.9497   10.3134 O.3       1 <0>        -0.4979
     21 H1          1.0039    1.9031    0.0027 H         1 <0>         0.0533
     22 H2         -0.5459    1.8868   -0.8726 H         1 <0>         0.0534
     23 H3         -0.5289    1.8773    0.9072 H         1 <0>         0.0533
     24 H4         -1.0205   -0.3814    0.0098 H         1 <0>         0.0603
     25 H5          0.5123   -0.3556   -0.8948 H         1 <0>         0.0603
     26 H6          1.7647   -0.1336    1.2338 H         1 <0>         0.0605
     27 H7          0.2319   -0.1594    2.1383 H         1 <0>         0.0605
     28 H8         -0.2598   -2.4180    1.2409 H         1 <0>         0.0606
     29 H9          1.2730   -2.3923    0.3363 H         1 <0>         0.0606
     30 H10         2.5254   -2.1703    2.4649 H         1 <0>         0.0604
     31 H11         0.9926   -2.1961    3.3695 H         1 <0>         0.0603
     32 H12         0.5010   -4.4547    2.4720 H         1 <0>         0.0607
     33 H13         2.0337   -4.4289    1.5675 H         1 <0>         0.0607
     34 H14         3.2861   -4.2070    3.6960 H         1 <0>         0.0606
     35 H15         1.7534   -4.2327    4.6006 H         1 <0>         0.0606
     36 H16         1.2617   -6.4914    3.7031 H         1 <0>         0.0618
     37 H17         2.7945   -6.4656    2.7986 H         1 <0>         0.0619
     38 H18         4.0469   -6.2436    4.9271 H         1 <0>         0.0625
     39 H19         2.5141   -6.2694    5.8317 H         1 <0>         0.0624
     40 H20         2.0224   -8.5280    4.9342 H         1 <0>         0.0684
     41 H21         3.5552   -8.5023    4.0297 H         1 <0>         0.0685
     42 H22         4.8076   -8.2803    6.1583 H         1 <0>         0.0998
     43 H23         3.2748   -8.3061    7.0628 H         1 <0>         0.0997
     44 H24         5.0480   -9.1158    8.3122 H         1 <0>         0.1376
     45 H25         6.1403  -10.3443   10.1304 H         1 <0>         0.1367
     46 H26         5.1221  -14.0540    8.2563 H         1 <0>         0.1364
     47 H27         4.0150  -12.8409    6.4366 H         1 <0>         0.1385
     48 H28         5.7180  -13.1620   11.0527 H         1 <0>         0.3979
@<TRIPOS>BOND
     1    1    2 1
     2    1   21 1
     3    1   22 1
     4    1   23 1
     5    2    3 1
     6    2   24 1
     7    2   25 1
     8    3    4 1
     9    3   26 1
    10    3   27 1
    11    4    5 1
    12    4   28 1
    13    4   29 1
    14    5    6 1
    15    5   30 1
    16    5   31 1
    17    6    7 1
    18    6   32 1
    19    6   33 1
    20    7    8 1
    21    7   34 1
    22    7   35 1
    23    8    9 1
    24    8   36 1
    25    8   37 1
    26    9   10 1
    27    9   38 1
    28    9   39 1
    29   10   11 1
    30   10   40 1
    31   10   41 1
    32   11   12 1
    33   11   42 1
    34   11   43 1
    35   12   13 2
    36   12   14 1
    37   14   19 ar
    38   14   15 ar
    39   15   16 ar
    40   15   44 1
    41   16   17 ar
    42   16   45 1
    43   17   18 ar
    44   17   20 1
    45   18   19 ar
    46   18   46 1
    47   19   47 1
    48   20   48 1
@<TRIPOS>MOLECULE
ZINC00282205
   48    49     0     0     0
SMALL
USER_CHARGES

@<TRIPOS>ATOM
      1 C1         -0.1360    1.4593    0.0114 C.3       1 <0>         0.0884
      2 N1         -0.1008   -0.0053    0.0031 N.pl3     1 <0>        -0.6316
      3 C2         -0.0640   -0.7070    1.2037 C.ar      1 <0>         0.2314
      4 C3         -0.0248   -2.0989    1.1934 C.ar      1 <0>        -0.2049
      5 C4          0.0115   -2.7944    2.3742 C.ar      1 <0>        -0.0394
      6 C5          0.0090   -2.1029    3.5922 C.ar      1 <0>        -0.1480
      7 C6         -0.0305   -0.7028    3.5979 C.ar      1 <0>        -0.0435
      8 C7         -0.0609   -0.0152    2.4123 C.ar      1 <0>        -0.2048
      9 C8          0.0473   -2.8437    4.8598 C.2       1 <0>        -0.0002
     10 C9          0.0449   -2.1746    6.0339 C.2       1 <0>        -0.2514
     11 C10         0.0830   -2.9126    7.2967 C.2       1 <0>         0.4119
     12 O1          0.1170   -4.1317    7.2897 O.2       1 <0>        -0.4803
     13 C11         0.0804   -2.1881    8.5678 C.2       1 <0>        -0.2513
     14 C12         0.1156   -2.8697    9.7342 C.2       1 <0>        -0.0004
     15 C13         0.1130   -2.1425   11.0102 C.ar      1 <0>        -0.1480
     16 C14         0.0682   -0.7425   11.0206 C.ar      1 <0>        -0.0432
     17 C15         0.0659   -0.0678   12.2139 C.ar      1 <0>        -0.2042
     18 C16         0.1085   -0.7720   13.4145 C.ar      1 <0>         0.2318
     19 C17         0.1536   -2.1639   13.4088 C.ar      1 <0>        -0.2071
     20 C18         0.1494   -2.8470   12.2202 C.ar      1 <0>        -0.0391
     21 N2          0.1065   -0.0832   14.6231 N.pl3     1 <0>        -0.6320
     22 C19         0.1870    1.3796   14.6326 C.3       1 <0>         0.0895
     23 C20         0.0240   -0.8205   15.8863 C.3       1 <0>         0.0841
     24 C21        -0.1042   -0.7309   -1.2696 C.3       1 <0>         0.0883
     25 H1          0.8824    1.8473   -0.0034 H         1 <0>         0.0517
     26 H2         -0.6732    1.8148   -0.8679 H         1 <0>         0.0692
     27 H3         -0.6437    1.8054    0.9118 H         1 <0>         0.0711
     28 H4         -0.0233   -2.6313    0.2537 H         1 <0>         0.1264
     29 H5          0.0415   -3.8740    2.3652 H         1 <0>         0.1272
     30 H6         -0.0329   -0.1656    4.5348 H         1 <0>         0.1278
     31 H7         -0.0869    1.0645    2.4157 H         1 <0>         0.1261
     32 H8          0.0774   -3.9233    4.8536 H         1 <0>         0.1294
     33 H9          0.0148   -1.0950    6.0401 H         1 <0>         0.1289
     34 H10         0.0503   -1.1085    8.5740 H         1 <0>         0.1289
     35 H11         0.1457   -3.9493    9.7280 H         1 <0>         0.1295
     36 H12         0.0358   -0.1955   10.0900 H         1 <0>         0.1279
     37 H13         0.0314    1.0116   12.2229 H         1 <0>         0.1257
     38 H14         0.1873   -2.7061   14.3422 H         1 <0>         0.1281
     39 H15         0.1795   -3.9265   12.2168 H         1 <0>         0.1273
     40 H16        -0.8186    1.7990   14.6010 H         1 <0>         0.0514
     41 H17         0.6900    1.7099   15.5414 H         1 <0>         0.0692
     42 H18         0.7493    1.7182   13.7624 H         1 <0>         0.0707
     43 H19         0.0624   -1.8911   15.6853 H         1 <0>         0.0804
     44 H20         0.8613   -0.5406   16.5257 H         1 <0>         0.0591
     45 H21        -0.9129   -0.5783   16.3879 H         1 <0>         0.0558
     46 H22         0.9222   -0.8860   -1.6021 H         1 <0>         0.0517
     47 H23        -0.5927   -1.6961   -1.1362 H         1 <0>         0.0712
     48 H24        -0.6446   -0.1504   -2.0173 H         1 <0>         0.0692
@<TRIPOS>BOND
     1    1    2 1
     2    1   25 1
     3    1   26 1
     4    1   27 1
     5    2    3 1
     6    2   24 1
     7    3    8 ar
     8    3    4 ar
     9    4    5 ar
    10    4   28 1
    11    5    6 ar
    12    5   29 1
    13    6    7 ar
    14    6    9 1
    15    7    8 ar
    16    7   30 1
    17    8   31 1
    18    9   10 2
    19    9   32 1
    20   10   11 1
    21   10   33 1
    22   11   12 2
    23   11   13 1
    24   13   14 2
    25   13   34 1
    26   14   15 1
    27   14   35 1
    28   15   20 ar
    29   15   16 ar
    30   16   17 ar
    31   16   36 1
    32   17   18 ar
    33   17   37 1
    34   18   19 ar
    35   18   21 1
    36   19   20 ar
    37   19   38 1
    38   20   39 1
    39   21   22 1
    40   21   23 1
    41   22   40 1
    42   22   41 1
    43   22   42 1
    44   23   43 1
    45   23   44 1
    46   23   45 1
    47   24   46 1
    48   24   47 1
    49   24   48 1
@<TRIPOS>MOLECULE
ZINC04428526
   47    50     0     0     0
SMALL
USER_CHARGES

@<TRIPOS>ATOM
      1 C1         -0.0106    1.5258    0.0155 C.3       1 <0>        -0.1567
      2 C2          0.0110   -0.0040    0.0076 C.3       1 <0>        -0.0290
      3 C3         -1.4250   -0.4604   -0.0781 C.3       1 <0>        -0.1111
      4 C4         -1.6446   -1.8142    0.5964 C.3       1 <0>        -0.1665
      5 C5         -1.1481   -1.7001    2.0253 C.2       1 <0>         0.3875
      6 O1         -1.8382   -2.0163    2.9718 O.2       1 <0>        -0.4568
      7 C6          0.2175   -1.1849    2.1965 C.2       1 <0>        -0.2396
      8 C7          0.7486   -0.4312    1.2382 C.2       1 <0>        -0.0225
      9 C8          2.1954    0.0123    1.3750 C.3       1 <0>        -0.0967
     10 C9          2.9338   -0.4089    0.0994 C.3       1 <0>        -0.1116
     11 C10         2.2226    0.1624   -1.1275 C.3       1 <0>        -0.0802
     12 H1          2.1659    1.2479   -1.0461 H         1 <0>         0.0912
     13 C11         0.8044   -0.4235   -1.2309 C.3       1 <0>        -0.0655
     14 H2          0.8667   -1.5112   -1.2661 H         1 <0>         0.0738
     15 C12         0.0859    0.0631   -2.4856 C.3       1 <0>        -0.1242
     16 C13         0.9081   -0.2173   -3.7538 C.3       1 <0>        -0.0970
     17 C14         2.2510    0.4637   -3.5781 C.3       1 <0>        -0.1248
     18 C15         2.9785   -0.2164   -2.3885 C.3       1 <0>        -0.0789
     19 H3          2.9826   -1.2983   -2.5207 H         1 <0>         0.0828
     20 C16         4.3916    0.3672   -2.5146 C.3       1 <0>        -0.1117
     21 C17         4.6247    0.3562   -4.0501 C.3       1 <0>        -0.1814
     22 C18         3.2307    0.3329   -4.7066 C.2       1 <0>         0.3781
     23 O2          2.9768    0.2561   -5.8847 O.2       1 <0>        -0.4368
     24 C19         2.0394    1.9427   -3.2485 C.3       1 <0>        -0.1447
     25 H4          1.0118    1.9036    0.0052 H         1 <0>         0.0675
     26 H5         -0.5401    1.8863   -0.8664 H         1 <0>         0.0679
     27 H6         -0.5188    1.8773    0.9134 H         1 <0>         0.0574
     28 H7         -2.0610    0.2819    0.4040 H         1 <0>         0.0715
     29 H8         -1.7089   -0.5384   -1.1276 H         1 <0>         0.0892
     30 H9         -2.7061   -2.0616    0.5923 H         1 <0>         0.0919
     31 H10        -1.0822   -2.5853    0.0699 H         1 <0>         0.0984
     32 H11         0.7861   -1.4256    3.0826 H         1 <0>         0.1357
     33 H12         2.2408    1.0955    1.4878 H         1 <0>         0.0831
     34 H13         2.6493   -0.4695    2.2410 H         1 <0>         0.0784
     35 H14         3.9565   -0.0333    0.1325 H         1 <0>         0.0733
     36 H15         2.9512   -1.4968    0.0338 H         1 <0>         0.0668
     37 H16        -0.8751   -0.4453   -2.5651 H         1 <0>         0.0715
     38 H17        -0.0865    1.1362   -2.4034 H         1 <0>         0.0756
     39 H18         1.0496   -1.2913   -3.8744 H         1 <0>         0.0671
     40 H19         0.3964    0.1907   -4.6255 H         1 <0>         0.0722
     41 H20         4.4264    1.3846   -2.1251 H         1 <0>         0.0786
     42 H21         5.1190   -0.2673   -2.0082 H         1 <0>         0.0784
     43 H22         5.1830    1.2432   -4.3493 H         1 <0>         0.0988
     44 H23         5.1690   -0.5430   -4.3386 H         1 <0>         0.0946
     45 H24         1.3898    2.0316   -2.3778 H         1 <0>         0.0815
     46 H25         3.0012    2.4082   -3.0333 H         1 <0>         0.0634
     47 H26         1.5765    2.4420   -4.0997 H         1 <0>         0.0594
@<TRIPOS>BOND
     1    1    2 1
     2    1   25 1
     3    1   26 1
     4    1   27 1
     5    2    8 1
     6    2   13 1
     7    2    3 1
     8    3    4 1
     9    3   28 1
    10    3   29 1
    11    4    5 1
    12    4   30 1
    13    4   31 1
    14    5    6 2
    15    5    7 1
    16    7    8 2
    17    7   32 1
    18    8    9 1
    19    9   10 1
    20    9   33 1
    21    9   34 1
    22   10   11 1
    23   10   35 1
    24   10   36 1
    25   11   12 1
    26   11   18 1
    27   11   13 1
    28   13   14 1
    29   13   15 1
    30   15   16 1
    31   15   37 1
    32   15   38 1
    33   16   17 1
    34   16   39 1
    35   16   40 1
    36   17   22 1
    37   17   18 1
    38   17   24 1
    39   18   19 1
    40   18   20 1
    41   20   21 1
    42   20   41 1
    43   20   42 1
    44   21   22 1
    45   21   43 1
    46   21   44 1
    47   22   23 2
    48   24   45 1
    49   24   46 1
    50   24   47 1
@<TRIPOS>MOLECULE
ZINC04428526
   47    50     0     0     0
SMALL
USER_CHARGES

@<TRIPOS>ATOM
      1 C1         -0.0187    1.5258    0.0104 C.3       1 <0>        -0.1419
      2 C2          0.0021   -0.0041    0.0020 C.3       1 <0>        -0.1247
      3 C3         -1.4163   -0.5347    0.0747 C.3       1 <0>        -0.0987
      4 C4         -2.0777    0.1021    1.3071 C.3       1 <0>        -0.1200
      5 C5         -1.2968   -0.1972    2.5839 C.3       1 <0>        -0.0680
      6 H1         -1.3308   -1.2722    2.7608 H         1 <0>         0.0699
      7 C6          0.1734    0.2237    2.4623 C.3       1 <0>        -0.0707
      8 H2          0.2469    1.3028    2.3267 H         1 <0>         0.0889
      9 C7          0.7520   -0.5239    1.2580 C.3       1 <0>        -0.0788
     10 H3          0.6135   -1.5992    1.3705 H         1 <0>         0.0845
     11 C8          2.2042   -0.1832    0.9000 C.3       1 <0>        -0.1120
     12 C9          2.2744   -0.5533   -0.6068 C.3       1 <0>        -0.1840
     13 C10         0.8461   -0.4921   -1.1383 C.2       1 <0>         0.3791
     14 O1          0.4710   -0.7784   -2.2499 O.2       1 <0>        -0.4385
     15 C11         0.8999   -0.2003    3.7440 C.3       1 <0>        -0.0856
     16 C12         0.2151    0.4341    4.9206 C.2       1 <0>        -0.1411
     17 C13        -1.0484    0.7434    4.9139 C.2       1 <0>        -0.1107
     18 C14        -1.9520    0.5000    3.7646 C.3       1 <0>        -0.0168
     19 C15        -3.1731   -0.3029    4.2239 C.3       1 <0>        -0.1004
     20 C16        -3.8808    0.4410    5.3596 C.3       1 <0>        -0.1766
     21 C17        -2.8999    0.6548    6.4906 C.2       1 <0>         0.3676
     22 O2         -3.1512    0.2777    7.6100 O.2       1 <0>        -0.4541
     23 C18        -1.6336    1.3894    6.1614 C.3       1 <0>        -0.1376
     24 C19        -2.4518    1.8671    3.2930 C.3       1 <0>        -0.1536
     25 H4          1.0039    1.9031    0.0027 H         1 <0>         0.0618
     26 H5         -0.5459    1.8868   -0.8726 H         1 <0>         0.0596
     27 H6         -0.5289    1.8773    0.9072 H         1 <0>         0.0809
     28 H7         -1.9635   -0.2559   -0.8259 H         1 <0>         0.0711
     29 H8         -1.4017   -1.6195    0.1802 H         1 <0>         0.0659
     30 H9         -2.1277    1.1818    1.1658 H         1 <0>         0.0773
     31 H10        -3.0899   -0.2891    1.4095 H         1 <0>         0.0666
     32 H11         2.4003    0.8788    1.0474 H         1 <0>         0.0784
     33 H12         2.8987   -0.7904    1.4806 H         1 <0>         0.0779
     34 H13         2.9014    0.1627   -1.1382 H         1 <0>         0.0981
     35 H14         2.6741   -1.5604   -0.7256 H         1 <0>         0.0974
     36 H15         0.8647   -1.2853    3.8420 H         1 <0>         0.0768
     37 H16         1.9374    0.1314    3.7026 H         1 <0>         0.0761
     38 H17         0.7950    0.6421    5.8076 H         1 <0>         0.1089
     39 H18        -3.8610   -0.4273    3.3876 H         1 <0>         0.0805
     40 H19        -2.8512   -1.2826    4.5770 H         1 <0>         0.0675
     41 H20        -4.2370    1.4056    4.9980 H         1 <0>         0.1022
     42 H21        -4.7239   -0.1517    5.7146 H         1 <0>         0.0884
     43 H22        -0.9421    1.2764    6.9964 H         1 <0>         0.0927
     44 H23        -1.8234    2.4468    5.9768 H         1 <0>         0.1131
     45 H24        -3.1748    1.7319    2.4886 H         1 <0>         0.0669
     46 H25        -2.9268    2.3871    4.1249 H         1 <0>         0.0570
     47 H26        -1.6098    2.4561    2.9295 H         1 <0>         0.0587
@<TRIPOS>BOND
     1    1    2 1
     2    1   25 1
     3    1   26 1
     4    1   27 1
     5    2    9 1
     6    2   13 1
     7    2    3 1
     8    3    4 1
     9    3   28 1
    10    3   29 1
    11    4    5 1
    12    4   30 1
    13    4   31 1
    14    5    6 1
    15    5   18 1
    16    5    7 1
    17    7    8 1
    18    7    9 1
    19    7   15 1
    20    9   10 1
    21    9   11 1
    22   11   12 1
    23   11   32 1
    24   11   33 1
    25   12   13 1
    26   12   34 1
    27   12   35 1
    28   13   14 2
    29   15   16 1
    30   15   36 1
    31   15   37 1
    32   16   17 2
    33   16   38 1
    34   17   23 1
    35   17   18 1
    36   18   19 1
    37   18   24 1
    38   19   20 1
    39   19   39 1
    40   19   40 1
    41   20   21 1
    42   20   41 1
    43   20   42 1
    44   21   22 2
    45   21   23 1
    46   23   43 1
    47   23   44 1
    48   24   45 1
    49   24   46 1
    50   24   47 1
@<TRIPOS>MOLECULE
ZINC00162733
   28    30     0     0     0
SMALL
USER_CHARGES
7-hydroxy-4-phenyl-chromen-2-one
@<TRIPOS>ATOM
      1 C1          7.3931    1.4241   -0.0601 C.ar      1 <0>        -0.1023
      2 C2          7.1810    0.4091    0.8561 C.ar      1 <0>        -0.1173
      3 C3          5.9819   -0.2729    0.8691 C.ar      1 <0>        -0.0902
      4 C4          4.9816    0.0628   -0.0445 C.ar      1 <0>        -0.0740
      5 C5          5.2042    1.0838   -0.9698 C.ar      1 <0>        -0.0972
      6 C6          6.4056    1.7619   -0.9685 C.ar      1 <0>        -0.1183
      7 C7          3.6932   -0.6644   -0.0362 C.2       1 <0>         0.0774
      8 C8          3.6540   -2.0459   -0.0428 C.2       1 <0>        -0.2439
      9 C9          2.4121   -2.7033   -0.0345 C.2       1 <0>         0.5125
     10 O1          2.3867   -3.9215   -0.0400 O.2       1 <0>        -0.4590
     11 O2          1.2530   -2.0265   -0.0203 O.3       1 <0>        -0.2712
     12 C10         1.2148   -0.6767   -0.0132 C.ar      1 <0>         0.1700
     13 C11         2.4117    0.0604   -0.0206 C.ar      1 <0>        -0.1577
     14 C12         2.3756    1.4566   -0.0128 C.ar      1 <0>        -0.0390
     15 C13         1.1734    2.1047    0.0022 C.ar      1 <0>        -0.1648
     16 C14        -0.0167    1.3813    0.0096 C.ar      1 <0>         0.1694
     17 C15         0.0021   -0.0041    0.0020 C.ar      1 <0>        -0.1653
     18 O3         -1.2045    2.0387    0.0188 O.3       1 <0>        -0.4902
     19 H1          8.3334    1.9552   -0.0659 H         1 <0>         0.1284
     20 H2          7.9557    0.1505    1.5627 H         1 <0>         0.1307
     21 H3          5.8174   -1.0647    1.5849 H         1 <0>         0.1299
     22 H4          4.4360    1.3452   -1.6825 H         1 <0>         0.1296
     23 H5          6.5774    2.5551   -1.6810 H         1 <0>         0.1307
     24 H6          4.5712   -2.6161   -0.0539 H         1 <0>         0.1669
     25 H7          3.2956    2.0222   -0.0189 H         1 <0>         0.1462
     26 H8          1.1455    3.1844    0.0082 H         1 <0>         0.1438
     27 H9         -0.9248   -0.5584    0.0082 H         1 <0>         0.1527
     28 H10        -1.5444    2.2244    0.9048 H         1 <0>         0.4024
@<TRIPOS>BOND
     1    1    6 ar
     2    1    2 ar
     3    1   19 1
     4    2    3 ar
     5    2   20 1
     6    3    4 ar
     7    3   21 1
     8    4    5 ar
     9    4    7 1
    10    5    6 ar
    11    5   22 1
    12    6   23 1
    13    7   13 1
    14    7    8 2
    15    8    9 1
    16    8   24 1
    17    9   10 2
    18    9   11 1
    19   11   12 1
    20   12   17 ar
    21   12   13 ar
    22   13   14 ar
    23   14   15 ar
    24   14   25 1
    25   15   16 ar
    26   15   26 1
    27   16   17 ar
    28   16   18 1
    29   17   27 1
    30   18   28 1
@<TRIPOS>MOLECULE
ZINC39326742
   63    65     0     0     0
SMALL
USER_CHARGES

@<TRIPOS>ATOM
      1 C1          0.2759   -4.4162   -4.4218 C.3       1 <0>         0.0232
      2 O1          0.3391   -4.0792   -3.0346 O.3       1 <0>        -0.3010
      3 C2          0.8490   -2.8588   -2.7183 C.ar      1 <0>         0.1495
      4 C3          0.9444   -2.4693   -1.3843 C.ar      1 <0>         0.0371
      5 C4          1.4664   -1.2205   -1.0555 C.ar      1 <0>         0.1482
      6 C5          1.8916   -0.3632   -2.0522 C.ar      1 <0>        -0.2156
      7 C6          1.7973   -0.7512   -3.3939 C.ar      1 <0>         0.0068
      8 C7          1.2770   -2.0091   -3.7202 C.ar      1 <0>        -0.2143
      9 C8          2.2484    0.1576   -4.4568 C.2       1 <0>        -0.0474
     10 C9          2.0293    1.4862   -4.3477 C.2       1 <0>        -0.1728
     11 C10         2.6090    2.4520   -5.3071 C.2       1 <0>         0.4343
     12 O2          3.7373    2.3329   -5.7543 O.2       1 <0>        -0.4352
     13 C11         1.7201    3.5732   -5.6840 C.2       1 <0>        -0.1729
     14 C12         1.6716    4.0477   -6.9480 C.2       1 <0>        -0.0475
     15 C13         0.8845    5.2509   -7.2514 C.ar      1 <0>         0.0062
     16 C14         0.7880    6.2822   -6.3097 C.ar      1 <0>        -0.2185
     17 C15         0.0469    7.4120   -6.5986 C.ar      1 <0>         0.1479
     18 C16        -0.6036    7.5255   -7.8250 C.ar      1 <0>         0.0374
     19 C17        -0.5099    6.5015   -8.7645 C.ar      1 <0>         0.1493
     20 C18         0.2341    5.3712   -8.4851 C.ar      1 <0>        -0.2139
     21 O3         -1.1471    6.6166   -9.9604 O.3       1 <0>        -0.3010
     22 C19        -1.0083    5.5289  -10.8768 C.3       1 <0>         0.0232
     23 O4         -1.3320    8.6382   -8.1054 O.3       1 <0>        -0.3123
     24 C20        -0.6456    9.7209   -8.7368 C.3       1 <0>         0.0353
     25 O5         -0.0478    8.4141   -5.6842 O.3       1 <0>        -0.2999
     26 C21         0.6441    8.2314   -4.4473 C.3       1 <0>         0.0220
     27 C22         0.8665    4.1612   -4.5786 C.3       1 <0>        -0.0941
     28 C23         0.1505    3.0228   -3.8468 C.3       1 <0>        -0.1168
     29 C24         1.1719    2.0643   -3.2401 C.3       1 <0>        -0.0894
     30 O6          1.5573   -0.8443    0.2483 O.3       1 <0>        -0.3000
     31 C25         2.1023    0.4497    0.5137 C.3       1 <0>         0.0224
     32 O7          0.5268   -3.3097   -0.4012 O.3       1 <0>        -0.3122
     33 C26         1.4944   -4.2160    0.1320 C.3       1 <0>         0.0353
     34 H1         -0.3509   -3.6928   -4.9433 H         1 <0>         0.0589
     35 H2          1.2799   -4.3994   -4.8459 H         1 <0>         0.0580
     36 H3         -0.1495   -5.4135   -4.5345 H         1 <0>         0.1049
     37 H4          2.2959    0.6050   -1.7964 H         1 <0>         0.1425
     38 H5          1.2068   -2.3136   -4.7540 H         1 <0>         0.1395
     39 H6          2.7552   -0.2366   -5.3252 H         1 <0>         0.1350
     40 H7          2.2114    3.5428   -7.7354 H         1 <0>         0.1349
     41 H8          1.2918    6.1946   -5.3585 H         1 <0>         0.1454
     42 H9          0.3100    4.5795   -9.2158 H         1 <0>         0.1396
     43 H10         0.0454    5.3898  -11.1186 H         1 <0>         0.0581
     44 H11        -1.4001    4.6189  -10.4226 H         1 <0>         0.0590
     45 H12        -1.5643    5.7486  -11.7883 H         1 <0>         0.1049
     46 H13        -0.2413    9.3869   -9.6924 H         1 <0>         0.0450
     47 H14        -1.3408   10.5436   -8.9040 H         1 <0>         0.0941
     48 H15         0.1688   10.0580   -8.0956 H         1 <0>         0.0451
     49 H16         0.4861    9.1018   -3.8106 H         1 <0>         0.1056
     50 H17         0.2639    7.3410   -3.9465 H         1 <0>         0.0586
     51 H18         1.7100    8.1118   -4.6415 H         1 <0>         0.0578
     52 H19         1.5003    4.7043   -3.8776 H         1 <0>         0.0794
     53 H20         0.1294    4.8396   -5.0082 H         1 <0>         0.0947
     54 H21        -0.4729    3.4376   -3.0547 H         1 <0>         0.0792
     55 H22        -0.4778    2.4783   -4.5517 H         1 <0>         0.0712
     56 H23         0.6519    1.2583   -2.7224 H         1 <0>         0.0912
     57 H24         1.8025    2.6062   -2.5352 H         1 <0>         0.0781
     58 H25         2.1182    0.6236    1.5896 H         1 <0>         0.1054
     59 H26         3.1180    0.5035    0.1219 H         1 <0>         0.0578
     60 H27         1.4864    1.2092    0.0319 H         1 <0>         0.0585
     61 H28         1.0315   -4.8275    0.9065 H         1 <0>         0.0941
     62 H29         1.8672   -4.8596   -0.6647 H         1 <0>         0.0450
     63 H30         2.3227   -3.6520    0.5610 H         1 <0>         0.0450
@<TRIPOS>BOND
     1    1    2 1
     2    1   34 1
     3    1   35 1
     4    1   36 1
     5    2    3 1
     6    3    8 ar
     7    3    4 ar
     8    4    5 ar
     9    4   32 1
    10    5    6 ar
    11    5   30 1
    12    6    7 ar
    13    6   37 1
    14    7    8 ar
    15    7    9 1
    16    8   38 1
    17    9   10 2
    18    9   39 1
    19   10   29 1
    20   10   11 1
    21   11   12 2
    22   11   13 1
    23   13   14 2
    24   13   27 1
    25   14   15 1
    26   14   40 1
    27   15   20 ar
    28   15   16 ar
    29   16   17 ar
    30   16   41 1
    31   17   18 ar
    32   17   25 1
    33   18   19 ar
    34   18   23 1
    35   19   20 ar
    36   19   21 1
    37   20   42 1
    38   21   22 1
    39   22   43 1
    40   22   44 1
    41   22   45 1
    42   23   24 1
    43   24   46 1
    44   24   47 1
    45   24   48 1
    46   25   26 1
    47   26   49 1
    48   26   50 1
    49   26   51 1
    50   27   28 1
    51   27   52 1
    52   27   53 1
    53   28   29 1
    54   28   54 1
    55   28   55 1
    56   29   56 1
    57   29   57 1
    58   30   31 1
    59   31   58 1
    60   31   59 1
    61   31   60 1
    62   32   33 1
    63   33   61 1
    64   33   62 1
    65   33   63 1
@<TRIPOS>MOLECULE
ZINC07194666
   27    29     0     0     0
SMALL
USER_CHARGES
7-hydroxy-4-(1,3,4-thiadiazol-2-ylsulfanylmethyl)chromen-2-one
@<TRIPOS>ATOM
      1 C1         -1.2026    1.7443    0.0172 C.ar      1 <0>        -0.1614
      2 C2         -0.0126    1.0758    0.0080 C.ar      1 <0>        -0.0372
      3 C3          1.1883    1.7940    0.0003 C.ar      1 <0>        -0.1608
      4 C4          2.4797    1.1038   -0.0162 C.2       1 <0>         0.0318
      5 C5          3.6101    1.8573   -0.0248 C.2       1 <0>        -0.2160
      6 C6          3.5154    3.2641   -0.0158 C.2       1 <0>         0.5114
      7 O1          4.5367    3.9276   -0.0227 O.2       1 <0>        -0.4497
      8 O2          2.3286    3.8908   -0.0001 O.3       1 <0>        -0.2670
      9 C7          1.1675    3.2015    0.0082 C.ar      1 <0>         0.1700
     10 C8         -0.0500    3.8643    0.0238 C.ar      1 <0>        -0.1634
     11 C9         -1.2295    3.1373    0.0316 C.ar      1 <0>         0.1722
     12 O3         -2.4210    3.7875    0.0465 O.3       1 <0>        -0.4899
     13 C10         2.5528   -0.4014   -0.0246 C.3       1 <0>        -0.0977
     14 S1          2.5648   -0.9953   -1.7343 S.3       1 <0>         0.0953
     15 C11         2.6520   -2.7327   -1.4541 C.2       1 <0>         0.0196
     16 N1          2.6959   -3.4129   -0.3154 N.2       1 <0>        -0.2851
     17 N2          2.7574   -4.6725   -0.2959 N.2       1 <0>        -0.2706
     18 C12         2.7819   -5.3917   -1.3996 C.2       1 <0>         0.0572
     19 S2          2.6989   -4.0877   -2.6238 S.3       1 <0>         0.0280
     20 H1         -2.1294    1.1898    0.0186 H         1 <0>         0.1449
     21 H2          0.0021   -0.0041    0.0020 H         1 <0>         0.1433
     22 H3          4.5788    1.3800   -0.0377 H         1 <0>         0.1716
     23 H4         -0.0790    4.9439    0.0303 H         1 <0>         0.1536
     24 H5         -2.7748    3.9804   -0.8325 H         1 <0>         0.4033
     25 H6          3.4645   -0.7237    0.4784 H         1 <0>         0.1281
     26 H7          1.6867   -0.8101    0.4960 H         1 <0>         0.1246
     27 H8          2.8329   -6.4627   -1.5290 H         1 <0>         0.2439
@<TRIPOS>BOND
     1    1   11 ar
     2    1    2 ar
     3    1   20 1
     4    2    3 ar
     5    2   21 1
     6    3    9 ar
     7    3    4 1
     8    4    5 2
     9    4   13 1
    10    5    6 1
    11    5   22 1
    12    6    7 2
    13    6    8 1
    14    8    9 1
    15    9   10 ar
    16   10   11 ar
    17   10   23 1
    18   11   12 1
    19   12   24 1
    20   13   14 1
    21   13   25 1
    22   13   26 1
    23   14   15 1
    24   15   19 1
    25   15   16 2
    26   16   17 1
    27   17   18 2
    28   18   19 1
    29   18   27 1
@<TRIPOS>MOLECULE
ZINC00057914
   21    22     0     0     0
SMALL
USER_CHARGES

@<TRIPOS>ATOM
      1 C1         -0.0184    1.5028    0.0103 C.3       1 <0>        -0.1387
      2 C2          0.0021   -0.0041    0.0020 C.2       1 <0>         0.0485
      3 C3         -1.2442   -0.7733    0.0036 C.ar      1 <0>        -0.1610
      4 C4         -2.4874   -0.1303    0.0128 C.ar      1 <0>        -0.0322
      5 C5         -3.6338   -0.8708    0.0137 C.ar      1 <0>        -0.1637
      6 C6         -3.5747   -2.2631    0.0059 C.ar      1 <0>         0.1734
      7 C7         -2.3531   -2.9157   -0.0028 C.ar      1 <0>        -0.1634
      8 C8         -1.1782   -2.1788   -0.0048 C.ar      1 <0>         0.1650
      9 O1          0.0230   -2.7955   -0.0152 O.3       1 <0>        -0.2578
     10 C9          1.1693   -2.0974   -0.0180 C.2       1 <0>         0.5191
     11 O2          2.2294   -2.6970   -0.0280 O.2       1 <0>        -0.4376
     12 C10         1.1774   -0.6861   -0.0129 C.2       1 <0>        -0.1879
     13 Cl1         2.6841    0.1760   -0.0228 Cl        1 <0>        -0.0072
     14 O3         -4.7240   -2.9857    0.0073 O.3       1 <0>        -0.4896
     15 H1          1.0042    1.8801    0.0026 H         1 <0>         0.0899
     16 H2         -0.5455    1.8639   -0.8728 H         1 <0>         0.0953
     17 H3         -0.5286    1.8543    0.9071 H         1 <0>         0.0955
     18 H4         -2.5393    0.9484    0.0196 H         1 <0>         0.1482
     19 H5         -4.5930   -0.3745    0.0208 H         1 <0>         0.1460
     20 H6         -2.3155   -3.9950   -0.0081 H         1 <0>         0.1542
     21 H7         -5.0611   -3.1903   -0.8757 H         1 <0>         0.4038
@<TRIPOS>BOND
     1    1    2 1
     2    1   15 1
     3    1   16 1
     4    1   17 1
     5    2   12 2
     6    2    3 1
     7    3    8 ar
     8    3    4 ar
     9    4    5 ar
    10    4   18 1
    11    5    6 ar
    12    5   19 1
    13    6    7 ar
    14    6   14 1
    15    7    8 ar
    16    7   20 1
    17    8    9 1
    18    9   10 1
    19   10   11 2
    20   10   12 1
    21   12   13 1
    22   14   21 1
@<TRIPOS>MOLECULE
ZINC04366104
   31    33     0     0     0
SMALL
USER_CHARGES

@<TRIPOS>ATOM
      1 C1         -0.0167    1.3785    0.0096 C.ar      1 <0>        -0.0560
      2 C2          1.1948    2.0581    0.0017 C.ar      1 <0>        -0.1748
      3 C3          2.3733    1.3397   -0.0134 C.ar      1 <0>         0.1157
      4 N1          2.3615    0.0201   -0.0204 N.ar      1 <0>        -0.4929
      5 C4          1.2275   -0.6643   -0.0132 C.ar      1 <0>         0.1134
      6 C5          0.0021   -0.0041    0.0020 C.ar      1 <0>        -0.1471
      7 S1          1.2703   -2.4257   -0.0231 S.3       1 <0>        -0.0471
      8 C6          3.0405   -2.8215   -0.0421 C.3       1 <0>        -0.0740
      9 C7          3.2207   -4.3177   -0.0519 C.2       1 <0>         0.0381
     10 C8          3.5984   -4.9676   -1.1834 C.2       1 <0>        -0.2235
     11 C9          3.7607   -6.3681   -1.1669 C.2       1 <0>         0.5120
     12 O1          4.1000   -6.9381   -2.1884 O.2       1 <0>        -0.4539
     13 O2          3.5514   -7.0892   -0.0544 O.3       1 <0>        -0.2682
     14 C10         3.1746   -6.5053    1.1034 C.ar      1 <0>         0.1688
     15 C11         2.9993   -5.1098    1.1597 C.ar      1 <0>        -0.1611
     16 C12         2.6138   -4.5001    2.3588 C.ar      1 <0>        -0.0331
     17 C13         2.4136   -5.2622    3.4734 C.ar      1 <0>        -0.1631
     18 C14         2.5907   -6.6434    3.4251 C.ar      1 <0>         0.1707
     19 C15         2.9619   -7.2648    2.2436 C.ar      1 <0>        -0.1652
     20 O3          2.3882   -7.3875    4.5423 O.3       1 <0>        -0.4905
     21 H1         -0.9522    1.9178    0.0259 H         1 <0>         0.1426
     22 H2          1.2144    3.1379    0.0070 H         1 <0>         0.1401
     23 H3          3.3172    1.8643   -0.0200 H         1 <0>         0.1614
     24 H4         -0.9214   -0.5641    0.0082 H         1 <0>         0.1409
     25 H5          3.4987   -2.3945   -0.9342 H         1 <0>         0.1168
     26 H6          3.5157   -2.4041    0.8456 H         1 <0>         0.1176
     27 H7          3.7735   -4.4129   -2.0935 H         1 <0>         0.1689
     28 H8          2.4754   -3.4299    2.4023 H         1 <0>         0.1443
     29 H9          2.1164   -4.7915    4.3989 H         1 <0>         0.1439
     30 H10         3.0969   -8.3359    2.2140 H         1 <0>         0.1526
     31 H11         1.4803   -7.7042    4.6447 H         1 <0>         0.4026
@<TRIPOS>BOND
     1    1    6 ar
     2    1    2 ar
     3    1   21 1
     4    2    3 ar
     5    2   22 1
     6    3    4 ar
     7    3   23 1
     8    4    5 ar
     9    5    6 ar
    10    5    7 1
    11    6   24 1
    12    7    8 1
    13    8    9 1
    14    8   25 1
    15    8   26 1
    16    9   15 1
    17    9   10 2
    18   10   11 1
    19   10   27 1
    20   11   12 2
    21   11   13 1
    22   13   14 1
    23   14   19 ar
    24   14   15 ar
    25   15   16 ar
    26   16   17 ar
    27   16   28 1
    28   17   18 ar
    29   17   29 1
    30   18   19 ar
    31   18   20 1
    32   19   30 1
    33   20   31 1
@<TRIPOS>MOLECULE
ZINC00308176
   30    31     0     0     0
SMALL
USER_CHARGES
7-hydroxy-4-methyl-3-propyl-chromen-2-one
@<TRIPOS>ATOM
      1 C1         -1.4133    0.9757    4.2887 C.3       1 <0>        -0.1525
      2 C2         -1.4160    0.2410    2.9466 C.3       1 <0>        -0.1197
      3 C3          0.0254    0.0157    2.4856 C.3       1 <0>        -0.0641
      4 C4          0.0227   -0.7080    1.1637 C.2       1 <0>        -0.2189
      5 C5          0.0021   -0.0041    0.0020 C.2       1 <0>         0.0264
      6 C6         -0.0059   -0.7494   -1.2585 C.ar      1 <0>        -0.1581
      7 C7         -0.0215   -0.0833   -2.4894 C.ar      1 <0>        -0.0408
      8 C8         -0.0222   -0.8021   -3.6494 C.ar      1 <0>        -0.1645
      9 C9         -0.0028   -2.1953   -3.6165 C.ar      1 <0>         0.1650
     10 C10         0.0174   -2.8707   -2.4073 C.ar      1 <0>        -0.1643
     11 C11         0.0189   -2.1559   -1.2189 C.ar      1 <0>         0.1622
     12 O1          0.0389   -2.7946   -0.0294 O.3       1 <0>        -0.2703
     13 C12         0.0410   -2.1174    1.1295 C.2       1 <0>         0.5145
     14 O2          0.0590   -2.7363    2.1783 O.2       1 <0>        -0.4562
     15 O3         -0.0042   -2.8962   -4.7790 O.3       1 <0>        -0.4908
     16 C13        -0.0184    1.5028    0.0103 C.3       1 <0>        -0.1308
     17 H1         -0.8842    0.3766    5.0298 H         1 <0>         0.0573
     18 H2         -0.9136    1.9377    4.1752 H         1 <0>         0.0551
     19 H3         -2.4402    1.1362    4.6171 H         1 <0>         0.0569
     20 H4         -1.9451    0.8401    2.2055 H         1 <0>         0.0619
     21 H5         -1.9158   -0.7210    3.0601 H         1 <0>         0.0649
     22 H6          0.5544   -0.5834    3.2267 H         1 <0>         0.0846
     23 H7          0.5251    0.9777    2.3721 H         1 <0>         0.0809
     24 H8         -0.0374    0.9961   -2.5211 H         1 <0>         0.1454
     25 H9         -0.0383   -0.2881   -4.5991 H         1 <0>         0.1429
     26 H10         0.0324   -3.9505   -2.3901 H         1 <0>         0.1509
     27 H11        -0.8879   -3.1111   -5.1077 H         1 <0>         0.4017
     28 H12         1.0042    1.8801    0.0026 H         1 <0>         0.0917
     29 H13        -0.5455    1.8639   -0.8728 H         1 <0>         0.0812
     30 H14        -0.5286    1.8543    0.9071 H         1 <0>         0.0874
@<TRIPOS>BOND
     1    1    2 1
     2    1   17 1
     3    1   18 1
     4    1   19 1
     5    2    3 1
     6    2   20 1
     7    2   21 1
     8    3    4 1
     9    3   22 1
    10    3   23 1
    11    4   13 1
    12    4    5 2
    13    5    6 1
    14    5   16 1
    15    6   11 ar
    16    6    7 ar
    17    7    8 ar
    18    7   24 1
    19    8    9 ar
    20    8   25 1
    21    9   10 ar
    22    9   15 1
    23   10   11 ar
    24   10   26 1
    25   11   12 1
    26   12   13 1
    27   13   14 2
    28   15   27 1
    29   16   28 1
    30   16   29 1
    31   16   30 1
@<TRIPOS>MOLECULE
ZINC00073672
   34    36     0     0     0
SMALL
USER_CHARGES

@<TRIPOS>ATOM
      1 C1         -0.1946    1.4902    0.0278 C.3       1 <0>        -0.1326
      2 C2         -0.0809   -0.0124    0.0116 C.2       1 <0>         0.0315
      3 C3         -0.1824   -0.7608   -1.2430 C.ar      1 <0>        -0.1579
      4 C4         -0.3877   -0.1019   -2.4607 C.ar      1 <0>        -0.0404
      5 C5         -0.4782   -0.8235   -3.6153 C.ar      1 <0>        -0.1646
      6 C6         -0.3676   -2.2126   -3.5901 C.ar      1 <0>         0.1659
      7 C7         -0.1643   -2.8809   -2.3941 C.ar      1 <0>        -0.1645
      8 C8         -0.0699   -2.1632   -1.2112 C.ar      1 <0>         0.1631
      9 O1          0.1286   -2.7951   -0.0346 O.3       1 <0>        -0.2692
     10 C9          0.2227   -2.1150    1.1188 C.2       1 <0>         0.5168
     11 O2          0.4021   -2.7276    2.1560 O.2       1 <0>        -0.4551
     12 C10         0.1244   -0.7090    1.1596 C.2       1 <0>        -0.2150
     13 C11         0.2416    0.0187    2.4741 C.3       1 <0>        -0.0243
     14 C12         1.6948    0.2804    2.7755 C.ar      1 <0>        -0.0822
     15 C13         2.4597   -0.6937    3.3893 C.ar      1 <0>        -0.1078
     16 C14         3.7927   -0.4537    3.6658 C.ar      1 <0>        -0.1190
     17 C15         4.3608    0.7605    3.3280 C.ar      1 <0>        -0.1211
     18 C16         3.5961    1.7343    2.7134 C.ar      1 <0>        -0.1215
     19 C17         2.2642    1.4926    2.4331 C.ar      1 <0>        -0.1175
     20 O3         -0.4602   -2.9163   -4.7472 O.3       1 <0>        -0.4908
     21 H1          0.8018    1.9305   -0.0093 H         1 <0>         0.0930
     22 H2         -0.7701    1.8204   -0.8371 H         1 <0>         0.0812
     23 H3         -0.6979    1.8067    0.9414 H         1 <0>         0.0888
     24 H4         -0.4746    0.9743   -2.4863 H         1 <0>         0.1457
     25 H5         -0.6370   -0.3149   -4.5548 H         1 <0>         0.1431
     26 H6         -0.0795   -3.9576   -2.3827 H         1 <0>         0.1510
     27 H7         -0.2934    0.9665    2.4137 H         1 <0>         0.0918
     28 H8         -0.1897   -0.5921    3.2672 H         1 <0>         0.0933
     29 H9          2.0158   -1.6423    3.6531 H         1 <0>         0.1296
     30 H10         4.3901   -1.2145    4.1459 H         1 <0>         0.1224
     31 H11         5.4021    0.9483    3.5447 H         1 <0>         0.1213
     32 H12         4.0399    2.6830    2.4499 H         1 <0>         0.1220
     33 H13         1.6677    2.2521    1.9495 H         1 <0>         0.1210
     34 H14         0.3867   -3.0527   -5.1936 H         1 <0>         0.4018
@<TRIPOS>BOND
     1    1    2 1
     2    1   21 1
     3    1   22 1
     4    1   23 1
     5    2   12 2
     6    2    3 1
     7    3    8 ar
     8    3    4 ar
     9    4    5 ar
    10    4   24 1
    11    5    6 ar
    12    5   25 1
    13    6    7 ar
    14    6   20 1
    15    7    8 ar
    16    7   26 1
    17    8    9 1
    18    9   10 1
    19   10   11 2
    20   10   12 1
    21   12   13 1
    22   13   14 1
    23   13   27 1
    24   13   28 1
    25   14   19 ar
    26   14   15 ar
    27   15   16 ar
    28   15   29 1
    29   16   17 ar
    30   16   30 1
    31   17   18 ar
    32   17   31 1
    33   18   19 ar
    34   18   32 1
    35   19   33 1
    36   20   34 1
@<TRIPOS>MOLECULE
ZINC00057928
   25    26     0     0     0
SMALL
USER_CHARGES
7-hydroxy-4-(methoxymethyl)chromen-2-one
@<TRIPOS>ATOM
      1 C1         -2.2712    8.5749    0.0686 C.3       1 <0>         0.0308
      2 O1         -1.1028    7.7523    0.0534 O.3       1 <0>        -0.3858
      3 C2         -1.3790    6.3503    0.0484 C.3       1 <0>         0.0932
      4 C3         -0.0821    5.5829    0.0324 C.2       1 <0>         0.0157
      5 C4          1.1119    6.2307    0.0249 C.2       1 <0>        -0.2222
      6 C5          2.3116    5.4900    0.0095 C.2       1 <0>         0.5091
      7 O2          3.3752    6.0835    0.0029 O.2       1 <0>        -0.4557
      8 O3          2.3117    4.1478    0.0022 O.3       1 <0>        -0.2710
      9 C6          1.1600    3.4429    0.0090 C.ar      1 <0>         0.1676
     10 C7         -0.0747    4.1185    0.0240 C.ar      1 <0>        -0.1567
     11 C8         -1.2707    3.3921    0.0320 C.ar      1 <0>        -0.0429
     12 C9         -1.2355    2.0276    0.0189 C.ar      1 <0>        -0.1625
     13 C10        -0.0163    1.3533    0.0095 C.ar      1 <0>         0.1667
     14 C11         1.1774    2.0566    0.0019 C.ar      1 <0>        -0.1626
     15 O4          0.0021   -0.0041    0.0020 O.3       1 <0>        -0.4904
     16 H1         -2.8722    8.3686   -0.8171 H         1 <0>         0.0468
     17 H2         -2.8559    8.3590    0.9628 H         1 <0>         0.0467
     18 H3         -1.9768    9.6243    0.0715 H         1 <0>         0.0936
     19 H4         -1.9615    6.0979   -0.8376 H         1 <0>         0.0818
     20 H5         -1.9451    6.0883    0.9422 H         1 <0>         0.0817
     21 H6          1.1422    7.3103    0.0312 H         1 <0>         0.1744
     22 H7         -2.2186    3.9094    0.0431 H         1 <0>         0.1429
     23 H8         -2.1586    1.4671    0.0203 H         1 <0>         0.1438
     24 H9          2.1184    1.5267   -0.0093 H         1 <0>         0.1526
     25 H10         0.0158   -0.4021    0.8832 H         1 <0>         0.4024
@<TRIPOS>BOND
     1    1    2 1
     2    1   16 1
     3    1   17 1
     4    1   18 1
     5    2    3 1
     6    3    4 1
     7    3   19 1
     8    3   20 1
     9    4   10 1
    10    4    5 2
    11    5    6 1
    12    5   21 1
    13    6    7 2
    14    6    8 1
    15    8    9 1
    16    9   14 ar
    17    9   10 ar
    18   10   11 ar
    19   11   12 ar
    20   11   22 1
    21   12   13 ar
    22   12   23 1
    23   13   14 ar
    24   13   15 1
    25   14   24 1
    26   15   25 1
@<TRIPOS>MOLECULE
ZINC14488849
   21    22     0     0     0
SMALL
USER_CHARGES
7-hydroxy-3-methyl-chromen-2-one
@<TRIPOS>ATOM
      1 C1         -1.2915   -0.7772    0.0107 C.3       1 <0>        -0.0991
      2 C2          0.0021   -0.0041    0.0020 C.2       1 <0>        -0.2121
      3 C3         -0.0163    1.3543    0.0095 C.2       1 <0>        -0.0084
      4 C4          1.2647    2.0636    0.0011 C.ar      1 <0>        -0.1644
      5 C5          1.3140    3.4624    0.0080 C.ar      1 <0>        -0.0380
      6 C6          2.5214    4.0984    0.0004 C.ar      1 <0>        -0.1651
      7 C7          3.7059    3.3641   -0.0142 C.ar      1 <0>         0.1653
      8 C8          3.6757    1.9793   -0.0218 C.ar      1 <0>        -0.1645
      9 C9          2.4574    1.3168   -0.0143 C.ar      1 <0>         0.1597
     10 O1          2.4055   -0.0324   -0.0210 O.3       1 <0>        -0.2685
     11 C10         1.2346   -0.6886   -0.0134 C.2       1 <0>         0.5119
     12 O2          1.2369   -1.9066   -0.0196 O.2       1 <0>        -0.4552
     13 O3          4.8991    4.0114   -0.0216 O.3       1 <0>        -0.4909
     14 H1         -1.6135   -0.9581   -1.0148 H         1 <0>         0.0779
     15 H2         -1.1417   -1.7303    0.5180 H         1 <0>         0.0798
     16 H3         -2.0548   -0.2025    0.5352 H         1 <0>         0.0756
     17 H4         -0.9505    1.8963    0.0169 H         1 <0>         0.1549
     18 H5          0.3994    4.0366    0.0190 H         1 <0>         0.1455
     19 H6          2.5592    5.1777    0.0062 H         1 <0>         0.1430
     20 H7          4.5979    1.4174   -0.0332 H         1 <0>         0.1508
     21 H8          5.2366    4.2040   -0.9071 H         1 <0>         0.4019
@<TRIPOS>BOND
     1    1    2 1
     2    1   14 1
     3    1   15 1
     4    1   16 1
     5    2   11 1
     6    2    3 2
     7    3    4 1
     8    3   17 1
     9    4    9 ar
    10    4    5 ar
    11    5    6 ar
    12    5   18 1
    13    6    7 ar
    14    6   19 1
    15    7    8 ar
    16    7   13 1
    17    8    9 ar
    18    8   20 1
    19    9   10 1
    20   10   11 1
    21   11   12 2
    22   13   21 1
@<TRIPOS>MOLECULE
ZINC00058013
   22    23     0     0     0
SMALL
USER_CHARGES
7-hydroxy-4-methyl-2-oxo-chromene-3-carbonitrile
@<TRIPOS>ATOM
      1 C1         -0.0184    1.5028    0.0103 C.3       1 <0>        -0.1439
      2 C2          0.0021   -0.0041    0.0020 C.2       1 <0>         0.1060
      3 C3         -0.0057   -0.7187   -1.2199 C.ar      1 <0>        -0.1749
      4 C4         -0.0218   -0.0257   -2.4415 C.ar      1 <0>        -0.0250
      5 C5         -0.0235   -0.7167   -3.6159 C.ar      1 <0>        -0.1678
      6 C6         -0.0048   -2.1112   -3.6141 C.ar      1 <0>         0.1879
      7 C7          0.0161   -2.8124   -2.4198 C.ar      1 <0>        -0.1709
      8 C8          0.0186   -2.1265   -1.2133 C.ar      1 <0>         0.1854
      9 O1          0.0389   -2.8131   -0.0504 O.3       1 <0>        -0.2552
     10 C9          0.0420   -2.1821    1.1357 C.2       1 <0>         0.5324
     11 O2          0.0601   -2.8279    2.1670 O.2       1 <0>        -0.4386
     12 C10         0.0230   -0.7162    1.1902 C.2       1 <0>        -0.1727
     13 C11         0.0257   -0.0336    2.4490 C.1       1 <0>         0.2689
     14 N1          0.0278    0.5079    3.4476 N.1       1 <0>        -0.3923
     15 O3         -0.0076   -2.7862   -4.7912 O.3       1 <0>        -0.4891
     16 H1          1.0042    1.8801    0.0026 H         1 <0>         0.1050
     17 H2         -0.5455    1.8639   -0.8728 H         1 <0>         0.0950
     18 H3         -0.5286    1.8543    0.9071 H         1 <0>         0.0873
     19 H4         -0.0367    1.0542   -2.4500 H         1 <0>         0.1520
     20 H5         -0.0398   -0.1814   -4.5537 H         1 <0>         0.1477
     21 H6          0.0308   -3.8922   -2.4274 H         1 <0>         0.1563
     22 H7         -0.8917   -2.9934   -5.1238 H         1 <0>         0.4064
@<TRIPOS>BOND
     1    1    2 1
     2    1   16 1
     3    1   17 1
     4    1   18 1
     5    2   12 2
     6    2    3 1
     7    3    8 ar
     8    3    4 ar
     9    4    5 ar
    10    4   19 1
    11    5    6 ar
    12    5   20 1
    13    6    7 ar
    14    6   15 1
    15    7    8 ar
    16    7   21 1
    17    8    9 1
    18    9   10 1
    19   10   11 2
    20   10   12 1
    21   12   13 1
    22   13   14 3
    23   15   22 1
@<TRIPOS>MOLECULE
ZINC00090067
   24    25     0     0     0
SMALL
USER_CHARGES
4-ethyl-7-hydroxy-chromen-2-one
@<TRIPOS>ATOM
      1 C1         -1.8687    6.4941    1.4908 C.3       1 <0>        -0.1503
      2 C2         -1.3790    6.3503    0.0484 C.3       1 <0>        -0.0974
      3 C3         -0.0821    5.5829    0.0324 C.2       1 <0>         0.0360
      4 C4          1.1119    6.2307    0.0249 C.2       1 <0>        -0.2533
      5 C5          2.3116    5.4900    0.0095 C.2       1 <0>         0.5104
      6 O1          3.3752    6.0835    0.0029 O.2       1 <0>        -0.4612
      7 O2          2.3117    4.1478    0.0022 O.3       1 <0>        -0.2713
      8 C6          1.1600    3.4429    0.0090 C.ar      1 <0>         0.1661
      9 C7         -0.0747    4.1185    0.0240 C.ar      1 <0>        -0.1626
     10 C8         -1.2707    3.3921    0.0320 C.ar      1 <0>        -0.0384
     11 C9         -1.2355    2.0276    0.0189 C.ar      1 <0>        -0.1655
     12 C10        -0.0163    1.3533    0.0095 C.ar      1 <0>         0.1676
     13 C11         1.1774    2.0566    0.0019 C.ar      1 <0>        -0.1655
     14 O3          0.0021   -0.0041    0.0020 O.3       1 <0>        -0.4907
     15 H1         -2.0264    5.5052    1.9212 H         1 <0>         0.0602
     16 H2         -1.1219    7.0304    2.0763 H         1 <0>         0.0619
     17 H3         -2.8067    7.0491    1.5024 H         1 <0>         0.0699
     18 H4         -1.2213    7.3392   -0.3821 H         1 <0>         0.0899
     19 H5         -2.1257    5.8140   -0.5371 H         1 <0>         0.0876
     20 H6          1.1422    7.3103    0.0312 H         1 <0>         0.1645
     21 H7         -2.2186    3.9094    0.0431 H         1 <0>         0.1452
     22 H8         -2.1586    1.4671    0.0203 H         1 <0>         0.1432
     23 H9          2.1184    1.5267   -0.0093 H         1 <0>         0.1515
     24 H10         0.0158   -0.4021    0.8832 H         1 <0>         0.4022
@<TRIPOS>BOND
     1    1    2 1
     2    1   15 1
     3    1   16 1
     4    1   17 1
     5    2    3 1
     6    2   18 1
     7    2   19 1
     8    3    9 1
     9    3    4 2
    10    4    5 1
    11    4   20 1
    12    5    6 2
    13    5    7 1
    14    7    8 1
    15    8   13 ar
    16    8    9 ar
    17    9   10 ar
    18   10   11 ar
    19   10   21 1
    20   11   12 ar
    21   11   22 1
    22   12   13 ar
    23   12   14 1
    24   13   23 1
    25   14   24 1
@<TRIPOS>MOLECULE
ZINC00127661
   32    34     0     0     0
SMALL
USER_CHARGES
7-hydroxy-4-(phenylsulfanylmethyl)chromen-2-one
@<TRIPOS>ATOM
      1 C1          2.7872   -5.5021   -1.3314 C.ar      1 <0>        -0.1211
      2 C2          2.7472   -4.9239   -2.5871 C.ar      1 <0>        -0.0989
      3 C3          2.6793   -3.5507   -2.7150 C.ar      1 <0>        -0.0973
      4 C4          2.6516   -2.7494   -1.5799 C.ar      1 <0>        -0.0901
      5 C5          2.6981   -3.3335   -0.3197 C.ar      1 <0>        -0.1345
      6 C6          2.7594   -4.7078   -0.1995 C.ar      1 <0>        -0.0990
      7 S1          2.5648   -0.9966   -1.7381 S.3       1 <0>        -0.0845
      8 C7          2.5528   -0.4014   -0.0246 C.3       1 <0>        -0.0880
      9 C8          2.4797    1.1038   -0.0162 C.2       1 <0>         0.0403
     10 C9          3.6101    1.8573   -0.0248 C.2       1 <0>        -0.2217
     11 C10         3.5154    3.2641   -0.0158 C.2       1 <0>         0.5118
     12 O1          4.5367    3.9276   -0.0227 O.2       1 <0>        -0.4525
     13 O2          2.3286    3.8908   -0.0001 O.3       1 <0>        -0.2680
     14 C11         1.1675    3.2015    0.0082 C.ar      1 <0>         0.1688
     15 C12         1.1883    1.7940    0.0003 C.ar      1 <0>        -0.1588
     16 C13        -0.0126    1.0758    0.0080 C.ar      1 <0>        -0.0355
     17 C14        -1.2026    1.7443    0.0172 C.ar      1 <0>        -0.1625
     18 C15        -1.2295    3.1373    0.0316 C.ar      1 <0>         0.1707
     19 C16        -0.0500    3.8643    0.0238 C.ar      1 <0>        -0.1640
     20 O3         -2.4210    3.7875    0.0465 O.3       1 <0>        -0.4903
     21 H1          2.8400   -6.5764   -1.2344 H         1 <0>         0.1272
     22 H2          2.7688   -5.5473   -3.4688 H         1 <0>         0.1304
     23 H3          2.6481   -3.1000   -3.6959 H         1 <0>         0.1290
     24 H4          2.6813   -2.7137    0.5645 H         1 <0>         0.1224
     25 H5          2.7904   -5.1627    0.7795 H         1 <0>         0.1276
     26 H6          3.4645   -0.7237    0.4784 H         1 <0>         0.1148
     27 H7          1.6867   -0.8101    0.4960 H         1 <0>         0.1115
     28 H8          4.5788    1.3800   -0.0377 H         1 <0>         0.1693
     29 H9          0.0021   -0.0041    0.0020 H         1 <0>         0.1428
     30 H10        -2.1294    1.1898    0.0186 H         1 <0>         0.1442
     31 H11        -0.0790    4.9439    0.0303 H         1 <0>         0.1530
     32 H12        -2.7748    3.9804   -0.8325 H         1 <0>         0.4030
@<TRIPOS>BOND
     1    1    6 ar
     2    1    2 ar
     3    1   21 1
     4    2    3 ar
     5    2   22 1
     6    3    4 ar
     7    3   23 1
     8    4    5 ar
     9    4    7 1
    10    5    6 ar
    11    5   24 1
    12    6   25 1
    13    7    8 1
    14    8    9 1
    15    8   26 1
    16    8   27 1
    17    9   15 1
    18    9   10 2
    19   10   11 1
    20   10   28 1
    21   11   12 2
    22   11   13 1
    23   13   14 1
    24   14   19 ar
    25   14   15 ar
    26   15   16 ar
    27   16   17 ar
    28   16   29 1
    29   17   18 ar
    30   17   30 1
    31   18   19 ar
    32   18   20 1
    33   19   31 1
    34   20   32 1
@<TRIPOS>MOLECULE
ZINC00090155
   27    28     0     0     0
SMALL
USER_CHARGES
7-hydroxy-4-propyl-chromen-2-one
@<TRIPOS>ATOM
      1 C1         -3.1854    7.2732    1.5070 C.3       1 <0>        -0.1541
      2 C2         -1.8687    6.4941    1.4908 C.3       1 <0>        -0.1204
      3 C3         -1.3790    6.3503    0.0484 C.3       1 <0>        -0.0943
      4 C4         -0.0821    5.5829    0.0324 C.2       1 <0>         0.0364
      5 C5          1.1119    6.2307    0.0249 C.2       1 <0>        -0.2527
      6 C6          2.3116    5.4900    0.0095 C.2       1 <0>         0.5104
      7 O1          3.3752    6.0835    0.0029 O.2       1 <0>        -0.4611
      8 O2          2.3117    4.1478    0.0022 O.3       1 <0>        -0.2713
      9 C7          1.1600    3.4429    0.0090 C.ar      1 <0>         0.1662
     10 C8         -0.0747    4.1185    0.0240 C.ar      1 <0>        -0.1623
     11 C9         -1.2707    3.3921    0.0320 C.ar      1 <0>        -0.0383
     12 C10        -1.2355    2.0276    0.0189 C.ar      1 <0>        -0.1655
     13 C11        -0.0163    1.3533    0.0095 C.ar      1 <0>         0.1677
     14 C12         1.1774    2.0566    0.0019 C.ar      1 <0>        -0.1655
     15 O3          0.0021   -0.0041    0.0020 O.3       1 <0>        -0.4907
     16 H1         -3.9321    6.7369    0.9215 H         1 <0>         0.0571
     17 H2         -3.5343    7.3756    2.5346 H         1 <0>         0.0598
     18 H3         -3.0277    8.2621    1.0766 H         1 <0>         0.0580
     19 H4         -2.0264    5.5052    1.9212 H         1 <0>         0.0674
     20 H5         -1.1219    7.0304    2.0763 H         1 <0>         0.0690
     21 H6         -1.2213    7.3392   -0.3821 H         1 <0>         0.0901
     22 H7         -2.1257    5.8140   -0.5371 H         1 <0>         0.0880
     23 H8          1.1422    7.3103    0.0312 H         1 <0>         0.1645
     24 H9         -2.2186    3.9094    0.0431 H         1 <0>         0.1450
     25 H10        -2.1586    1.4671    0.0203 H         1 <0>         0.1431
     26 H11         2.1184    1.5267   -0.0093 H         1 <0>         0.1514
     27 H12         0.0158   -0.4021    0.8832 H         1 <0>         0.4021
@<TRIPOS>BOND
     1    1    2 1
     2    1   16 1
     3    1   17 1
     4    1   18 1
     5    2    3 1
     6    2   19 1
     7    2   20 1
     8    3    4 1
     9    3   21 1
    10    3   22 1
    11    4   10 1
    12    4    5 2
    13    5    6 1
    14    5   23 1
    15    6    7 2
    16    6    8 1
    17    8    9 1
    18    9   14 ar
    19    9   10 ar
    20   10   11 ar
    21   11   12 ar
    22   11   24 1
    23   12   13 ar
    24   12   25 1
    25   13   14 ar
    26   13   15 1
    27   14   26 1
    28   15   27 1
@<TRIPOS>MOLECULE
ZINC26476322
   21    22     0     0     0
SMALL
USER_CHARGES
3-fluoro-7-hydroxy-4-methyl-chromen-2-one
@<TRIPOS>ATOM
      1 C1         -0.0184    1.5028    0.0103 C.3       1 <0>        -0.1314
      2 C2          0.0021   -0.0041    0.0020 C.2       1 <0>         0.0093
      3 C3         -0.0058   -0.7496   -1.2588 C.ar      1 <0>        -0.1845
      4 C4         -0.0201   -0.0831   -2.4893 C.ar      1 <0>        -0.0121
      5 C5         -0.0213   -0.8014   -3.6499 C.ar      1 <0>        -0.1744
      6 C6         -0.0023   -2.1943   -3.6176 C.ar      1 <0>         0.2230
      7 C7          0.0180   -2.8701   -2.4089 C.ar      1 <0>        -0.2360
      8 C8          0.0195   -2.1558   -1.2199 C.ar      1 <0>         0.1839
      9 O1          0.0394   -2.7958   -0.0311 O.3       1 <0>        -0.2556
     10 C9          0.0416   -2.1205    1.1287 C.2       1 <0>         0.5054
     11 O2          0.0600   -2.7406    2.1768 O.2       1 <0>        -0.4417
     12 C10         0.0227   -0.7083    1.1643 C.2       1 <0>        -0.0553
     13 F1          0.0246   -0.0601    2.3496 F         1 <0>        -0.1049
     14 O3         -0.0042   -2.8947   -4.7807 O.3       1 <0>        -0.4949
     15 H1         -0.0333    1.8750   -1.0247 H         1 <0>         0.0860
     16 H2          0.8796    1.8789    0.5224 H         1 <0>         0.0942
     17 H3         -0.9165    1.8544    0.5393 H         1 <0>         0.0943
     18 H4         -0.0348    0.9964   -2.5204 H         1 <0>         0.1510
     19 H5         -0.0373   -0.2868   -4.5993 H         1 <0>         0.1456
     20 H6          0.0329   -3.9499   -2.3921 H         1 <0>         0.1514
     21 H7          0.0107   -3.9944   -4.7605 H         1 <0>         0.4468
@<TRIPOS>BOND
     1    1    2 1
     2    1   15 1
     3    1   16 1
     4    1   17 1
     5    2   12 2
     6    2    3 1
     7    3    8 ar
     8    3    4 ar
     9    4    5 ar
    10    4   18 1
    11    5    6 ar
    12    5   19 1
    13    6    7 ar
    14    6   14 1
    15    7    8 ar
    16    7   20 1
    17    8    9 1
    18    9   10 1
    19   10   11 2
    20   10   12 1
    21   12   13 1
    22   14   21 1
@<TRIPOS>MOLECULE
ZINC03875364
   51    54     0     0     0
SMALL
USER_CHARGES

@<TRIPOS>ATOM
      1 C1         -0.0029    1.5259    0.0192 C.3       1 <0>        -0.1496
      2 C2          0.0189   -0.0039    0.0113 C.3       1 <0>        -0.0475
      3 C3         -1.4159   -0.5356    0.0299 C.3       1 <0>        -0.1093
      4 C4         -1.3917   -2.0656    0.0163 C.3       1 <0>        -0.1538
      5 C5         -0.6439   -2.5750    1.2500 C.3       1 <0>         0.1048
      6 H1         -1.1509   -2.2290    2.1507 H         1 <0>         0.0514
      7 C6          0.7896   -2.0408    1.2346 C.3       1 <0>        -0.1107
      8 C7          0.7649   -0.5109    1.2478 C.3       1 <0>        -0.0719
      9 H2          0.2551   -0.1654    2.1472 H         1 <0>         0.0705
     10 C8          2.1980    0.0246    1.2337 C.3       1 <0>        -0.1151
     11 C9          2.9125   -0.4598   -0.0295 C.3       1 <0>        -0.1166
     12 C10         2.1671    0.0502   -1.2638 C.3       1 <0>        -0.0746
     13 H3          2.1452    1.1399   -1.2564 H         1 <0>         0.0850
     14 C11         0.7320   -0.4981   -1.2480 C.3       1 <0>        -0.0731
     15 H4          0.7710   -1.5872   -1.2264 H         1 <0>         0.0749
     16 C12        -0.0453   -0.0718   -2.4886 C.3       1 <0>        -0.1199
     17 C13         0.6939   -0.4716   -3.7769 C.3       1 <0>        -0.0973
     18 C14         2.0671    0.1673   -3.7259 C.3       1 <0>        -0.1241
     19 C15         2.8461   -0.4405   -2.5295 C.3       1 <0>        -0.0786
     20 H5          2.8163   -1.5288   -2.5819 H         1 <0>         0.0798
     21 C16         4.2636    0.0930   -2.7725 C.3       1 <0>        -0.1110
     22 C17         4.4120   -0.0355   -4.3132 C.3       1 <0>        -0.1800
     23 C18         2.9760   -0.0803   -4.8930 C.2       1 <0>         0.3772
     24 O1          2.6530   -0.2367   -6.0461 O.2       1 <0>        -0.4381
     25 C19         1.9251    1.6731   -3.4953 C.3       1 <0>        -0.1434
     26 O2         -0.6199   -4.0038    1.2360 O.3       1 <0>        -0.5697
     27 H6          1.0194    1.9039    0.0067 H         1 <0>         0.0630
     28 H7         -0.5342    1.8863   -0.8617 H         1 <0>         0.0575
     29 H8         -0.5093    1.8775    0.9181 H         1 <0>         0.0538
     30 H9         -1.9207   -0.1880    0.9313 H         1 <0>         0.0625
     31 H10        -1.9495   -0.1726   -0.8486 H         1 <0>         0.0695
     32 H11        -2.4134   -2.4452    0.0283 H         1 <0>         0.0617
     33 H12        -0.8857   -2.4129   -0.8845 H         1 <0>         0.0741
     34 H13         1.3217   -2.4031    2.1142 H         1 <0>         0.0667
     35 H14         1.2971   -2.3881    0.3346 H         1 <0>         0.0768
     36 H15         2.1786    1.1144    1.2447 H         1 <0>         0.0677
     37 H16         2.7298   -0.3379    2.1134 H         1 <0>         0.0626
     38 H17         3.9336   -0.0784   -0.0383 H         1 <0>         0.0637
     39 H18         2.9315   -1.5495   -0.0410 H         1 <0>         0.0651
     40 H19        -1.0253   -0.5487   -2.4770 H         1 <0>         0.0659
     41 H20        -0.1760    1.0102   -2.4734 H         1 <0>         0.0704
     42 H21         0.7912   -1.5561   -3.8273 H         1 <0>         0.0647
     43 H22         0.1473   -0.1066   -4.6465 H         1 <0>         0.0693
     44 H23         4.3438    1.1346   -2.4614 H         1 <0>         0.0780
     45 H24         5.0022   -0.5232   -2.2598 H         1 <0>         0.0775
     46 H25         4.9746    0.8115   -4.7059 H         1 <0>         0.0983
     47 H26         4.9176   -0.9682   -4.5631 H         1 <0>         0.0926
     48 H27         1.3281    1.8490   -2.6005 H         1 <0>         0.0821
     49 H28         2.9128    2.1156   -3.3658 H         1 <0>         0.0626
     50 H29         1.4334    2.1276   -4.3554 H         1 <0>         0.0571
     51 H30        -1.4964   -4.4120    1.2449 H         1 <0>         0.3773
@<TRIPOS>BOND
     1    1    2 1
     2    1   27 1
     3    1   28 1
     4    1   29 1
     5    2    8 1
     6    2   14 1
     7    2    3 1
     8    3    4 1
     9    3   30 1
    10    3   31 1
    11    4    5 1
    12    4   32 1
    13    4   33 1
    14    5    6 1
    15    5    7 1
    16    5   26 1
    17    7    8 1
    18    7   34 1
    19    7   35 1
    20    8    9 1
    21    8   10 1
    22   10   11 1
    23   10   36 1
    24   10   37 1
    25   11   12 1
    26   11   38 1
    27   11   39 1
    28   12   13 1
    29   12   19 1
    30   12   14 1
    31   14   15 1
    32   14   16 1
    33   16   17 1
    34   16   40 1
    35   16   41 1
    36   17   18 1
    37   17   42 1
    38   17   43 1
    39   18   23 1
    40   18   19 1
    41   18   25 1
    42   19   20 1
    43   19   21 1
    44   21   22 1
    45   21   44 1
    46   21   45 1
    47   22   23 1
    48   22   46 1
    49   22   47 1
    50   23   24 2
    51   25   48 1
    52   25   49 1
    53   25   50 1
    54   26   51 1
