@<TRIPOS>MOLECULE
ZINC38206526
   36    38     0     0     0
SMALL
USER_CHARGES

@<TRIPOS>ATOM
      1 C1          2.4082    1.3809   -0.2764 C.ar      1 <0>        -0.1153
      2 C2          1.1985    2.0511   -0.3291 C.ar      1 <0>        -0.0800
      3 C3          0.0074    1.3445   -0.3492 C.ar      1 <0>        -0.0939
      4 C4          0.0192   -0.0347   -0.3163 C.ar      1 <0>        -0.1121
      5 C5          1.2381   -0.7187   -0.2630 C.ar      1 <0>        -0.0689
      6 C6          2.4364    0.0027   -0.2435 C.ar      1 <0>        -0.0803
      7 C7          1.2597   -2.1895   -0.2271 C.2       1 <0>        -0.0126
      8 C8          0.1087   -2.8778   -0.0769 C.2       1 <0>        -0.1968
      9 C9         -0.0037   -4.3232    0.1089 C.2       1 <0>         0.4235
     10 O1          0.9357   -5.0985    0.1528 O.2       1 <0>        -0.4456
     11 C10        -1.4102   -4.7005    0.2349 C.2       1 <0>        -0.1968
     12 C11        -1.8769   -5.9535    0.4171 C.2       1 <0>        -0.0127
     13 C12        -3.3259   -6.2090    0.3967 C.ar      1 <0>        -0.0689
     14 C13        -4.2275   -5.1406    0.3545 C.ar      1 <0>        -0.1123
     15 C14        -5.5846   -5.3887    0.3351 C.ar      1 <0>        -0.0940
     16 C15        -6.0541   -6.6916    0.3578 C.ar      1 <0>        -0.0800
     17 C16        -5.1676   -7.7535    0.4000 C.ar      1 <0>        -0.1153
     18 C17        -3.8084   -7.5219    0.4136 C.ar      1 <0>        -0.0803
     19 Br1        -6.8065   -3.9466    0.2780 Br        1 <0>        -0.0447
     20 C18        -2.2521   -3.4534    0.1273 C.3       1 <0>        -0.0996
     21 C19        -1.2780   -2.2842   -0.0661 C.3       1 <0>        -0.0995
     22 Br2        -1.6387    2.2724   -0.4212 Br        1 <0>        -0.0446
     23 H1          3.3329    1.9388   -0.2655 H         1 <0>         0.1370
     24 H2          1.1832    3.1307   -0.3543 H         1 <0>         0.1351
     25 H3         -0.9102   -0.5847   -0.3313 H         1 <0>         0.1713
     26 H4          3.3814   -0.5185   -0.2028 H         1 <0>         0.1354
     27 H5          2.1968   -2.7182   -0.3210 H         1 <0>         0.1410
     28 H6         -1.1870   -6.7687    0.5780 H         1 <0>         0.1410
     29 H7         -3.8625   -4.1243    0.3375 H         1 <0>         0.1715
     30 H8         -7.1175   -6.8797    0.3428 H         1 <0>         0.1351
     31 H9         -5.5414   -8.7666    0.4179 H         1 <0>         0.1370
     32 H10        -3.1181   -8.3520    0.4417 H         1 <0>         0.1355
     33 H11        -2.9248   -3.5294   -0.7270 H         1 <0>         0.0978
     34 H12        -2.8253   -3.3095    1.0431 H         1 <0>         0.0978
     35 H13        -1.3744   -1.5749    0.7559 H         1 <0>         0.0976
     36 H14        -1.4788   -1.7866   -1.0149 H         1 <0>         0.0979
@<TRIPOS>BOND
     1    1    6 ar
     2    1    2 ar
     3    1   23 1
     4    2    3 ar
     5    2   24 1
     6    3    4 ar
     7    3   22 1
     8    4    5 ar
     9    4   25 1
    10    5    6 ar
    11    5    7 1
    12    6   26 1
    13    7    8 2
    14    7   27 1
    15    8   21 1
    16    8    9 1
    17    9   10 2
    18    9   11 1
    19   11   12 2
    20   11   20 1
    21   12   13 1
    22   12   28 1
    23   13   18 ar
    24   13   14 ar
    25   14   15 ar
    26   14   29 1
    27   15   16 ar
    28   15   19 1
    29   16   17 ar
    30   16   30 1
    31   17   18 ar
    32   17   31 1
    33   18   32 1
    34   20   21 1
    35   20   33 1
    36   20   34 1
    37   21   35 1
    38   21   36 1
@<TRIPOS>MOLECULE
ZINC00028155
   46    47     0     0     0
SMALL
USER_CHARGES
1,5-bis(4-ethoxyphenyl)penta-1,4-dien-3-one
@<TRIPOS>ATOM
      1 C1         -4.8339    3.9117    0.0673 C.3       1 <0>        -0.1538
      2 C2         -3.6053    3.0000    0.0512 C.3       1 <0>         0.0524
      3 O1         -2.4200    3.7982    0.0441 O.3       1 <0>        -0.3130
      4 C3         -1.2334    3.1392    0.0297 C.ar      1 <0>         0.1470
      5 C4         -1.2132    1.7490    0.0173 C.ar      1 <0>        -0.2139
      6 C5         -0.0126    1.0758    0.0080 C.ar      1 <0>        -0.0496
      7 C6          1.1896    1.7935    0.0003 C.ar      1 <0>        -0.1231
      8 C7          1.1635    3.1934    0.0076 C.ar      1 <0>        -0.0563
      9 C8         -0.0425    3.8567    0.0222 C.ar      1 <0>        -0.1562
     10 C9          2.4741    1.0801   -0.0157 C.2       1 <0>        -0.0079
     11 C10         3.6326    1.7749   -0.0231 C.2       1 <0>        -0.2402
     12 C11         4.9120    1.0644   -0.0391 C.2       1 <0>         0.4112
     13 O2          4.9322   -0.1548   -0.0458 O.2       1 <0>        -0.4729
     14 C12         6.1671    1.8171   -0.0470 C.2       1 <0>        -0.2412
     15 C13         7.3479    1.1613   -0.0618 C.2       1 <0>        -0.0070
     16 C14         8.6081    1.9172   -0.0698 C.ar      1 <0>        -0.1235
     17 C15         8.5876    3.3171   -0.0679 C.ar      1 <0>        -0.0547
     18 C16         9.7710    4.0203   -0.0706 C.ar      1 <0>        -0.2139
     19 C17        10.9850    3.3428   -0.0858 C.ar      1 <0>         0.1472
     20 C18        11.0109    1.9527   -0.0930 C.ar      1 <0>        -0.1565
     21 C19         9.8334    1.2399   -0.0851 C.ar      1 <0>        -0.0507
     22 O3         12.1490    4.0410   -0.0941 O.3       1 <0>        -0.3130
     23 C20        12.0506    5.4665   -0.0859 C.3       1 <0>         0.0525
     24 C21        13.4544    6.0748   -0.0971 C.3       1 <0>        -0.1539
     25 H1         -4.8278    4.5453   -0.8197 H         1 <0>         0.0674
     26 H2         -5.7380    3.3029    0.0726 H         1 <0>         0.0805
     27 H3         -4.8112    4.5364    0.9602 H         1 <0>         0.0674
     28 H4         -3.6280    2.3754   -0.8418 H         1 <0>         0.0644
     29 H5         -3.6114    2.3664    0.9381 H         1 <0>         0.0644
     30 H6         -2.1411    1.1964    0.0187 H         1 <0>         0.1325
     31 H7          0.0021   -0.0041    0.0020 H         1 <0>         0.1319
     32 H8          2.0879    3.7517    0.0014 H         1 <0>         0.1363
     33 H9         -0.0638    4.9365    0.0282 H         1 <0>         0.1355
     34 H10         2.4921    0.0003   -0.0217 H         1 <0>         0.1331
     35 H11         3.6146    2.8548   -0.0171 H         1 <0>         0.1319
     36 H12         6.1491    2.8970   -0.0411 H         1 <0>         0.1313
     37 H13         7.3659    0.0815   -0.0677 H         1 <0>         0.1338
     38 H14         7.6451    3.8443   -0.0606 H         1 <0>         0.1320
     39 H15         9.7564    5.1002   -0.0654 H         1 <0>         0.1321
     40 H16        11.9567    1.4313   -0.1044 H         1 <0>         0.1360
     41 H17         9.8547    0.1601   -0.0910 H         1 <0>         0.1365
     42 H18        11.5039    5.7980   -0.9688 H         1 <0>         0.0643
     43 H19        11.5219    5.7891    0.8111 H         1 <0>         0.0643
     44 H20        13.9830    5.7522   -0.9941 H         1 <0>         0.0675
     45 H21        13.3793    7.1622   -0.0909 H         1 <0>         0.0804
     46 H22        14.0010    5.7433    0.7858 H         1 <0>         0.0675
@<TRIPOS>BOND
     1    1    2 1
     2    1   25 1
     3    1   26 1
     4    1   27 1
     5    2    3 1
     6    2   28 1
     7    2   29 1
     8    3    4 1
     9    4    9 ar
    10    4    5 ar
    11    5    6 ar
    12    5   30 1
    13    6    7 ar
    14    6   31 1
    15    7    8 ar
    16    7   10 1
    17    8    9 ar
    18    8   32 1
    19    9   33 1
    20   10   11 2
    21   10   34 1
    22   11   12 1
    23   11   35 1
    24   12   13 2
    25   12   14 1
    26   14   15 2
    27   14   36 1
    28   15   16 1
    29   15   37 1
    30   16   21 ar
    31   16   17 ar
    32   17   18 ar
    33   17   38 1
    34   18   19 ar
    35   18   39 1
    36   19   20 ar
    37   19   22 1
    38   20   21 ar
    39   20   40 1
    40   21   41 1
    41   22   23 1
    42   23   24 1
    43   23   42 1
    44   23   43 1
    45   24   44 1
    46   24   45 1
    47   24   46 1
@<TRIPOS>MOLECULE
ZINC00899824
   47    48     0     0     0
SMALL
USER_CHARGES

@<TRIPOS>ATOM
      1 C1         -0.0173    1.4248    0.0099 C.3       1 <0>         0.0223
      2 O1          0.0021   -0.0041    0.0020 O.3       1 <0>        -0.3062
      3 C2          0.6062   -0.6075   -1.0564 C.ar      1 <0>         0.1006
      4 C3          1.1701    0.1578   -2.0573 C.ar      1 <0>        -0.1693
      5 C4          1.7915   -0.4674   -3.1460 C.ar      1 <0>        -0.0548
      6 C5          1.8369   -1.8658   -3.2124 C.ar      1 <0>        -0.1153
      7 C6          1.2717   -2.6208   -2.2092 C.ar      1 <0>        -0.1104
      8 C7          0.6608   -1.9995   -1.1274 C.ar      1 <0>         0.0921
      9 O2          0.1105   -2.7497   -0.1383 O.3       1 <0>        -0.4848
     10 C8          2.3926    0.3403   -4.2140 C.2       1 <0>        -0.0031
     11 C9          2.9934   -0.2669   -5.2666 C.2       1 <0>        -0.2426
     12 C10         3.5700    0.5078   -6.2910 C.2       1 <0>         0.3746
     13 C11         4.2380   -0.1673   -7.4611 C.3       1 <0>        -0.2163
     14 C12         4.7690    0.8780   -8.4080 C.2       1 <0>         0.3746
     15 O3          4.6195    2.0570   -8.1569 O.2       1 <0>        -0.4254
     16 C13         5.4382    0.4879   -9.5835 C.2       1 <0>        -0.2426
     17 C14         5.9159    1.4282  -10.4353 C.2       1 <0>        -0.0031
     18 C15         6.6137    1.0215  -11.6609 C.ar      1 <0>        -0.0549
     19 C16         6.7822   -0.3375  -11.9554 C.ar      1 <0>        -0.1153
     20 C17         7.4373   -0.7158  -13.1059 C.ar      1 <0>        -0.1104
     21 C18         7.9326    0.2469  -13.9763 C.ar      1 <0>         0.0920
     22 C19         7.7694    1.6023  -13.6901 C.ar      1 <0>         0.1006
     23 C20         7.1082    1.9913  -12.5425 C.ar      1 <0>        -0.1693
     24 O4          8.2569    2.5409  -14.5450 O.3       1 <0>        -0.3062
     25 C21         8.0541    3.9101  -14.1894 C.3       1 <0>         0.0223
     26 O5          8.5781   -0.1327  -15.1090 O.3       1 <0>        -0.4848
     27 O6          3.5292    1.7203   -6.2316 O.2       1 <0>        -0.4254
     28 H1          1.0053    1.8021    0.0021 H         1 <0>         0.0579
     29 H2         -0.5445    1.7859   -0.8732 H         1 <0>         0.0575
     30 H3         -0.5275    1.7763    0.9067 H         1 <0>         0.1046
     31 H4          1.1319    1.2357   -2.0014 H         1 <0>         0.1391
     32 H5          2.3148   -2.3516   -4.0503 H         1 <0>         0.1371
     33 H6          1.3073   -3.6990   -2.2614 H         1 <0>         0.1423
     34 H7         -0.8182   -2.9751   -0.2859 H         1 <0>         0.3908
     35 H8          2.3563    1.4184   -4.1613 H         1 <0>         0.1367
     36 H9          3.0298   -1.3450   -5.3193 H         1 <0>         0.1356
     37 H10         5.0615   -0.7848   -7.1027 H         1 <0>         0.1288
     38 H11         5.5711   -0.5604   -9.8068 H         1 <0>         0.1356
     39 H12         5.7830    2.4765  -10.2120 H         1 <0>         0.1368
     40 H13         6.3989   -1.0882  -11.2802 H         1 <0>         0.1371
     41 H14         7.5667   -1.7639  -13.3320 H         1 <0>         0.1423
     42 H15         6.9767    3.0405  -12.3226 H         1 <0>         0.1391
     43 H16         6.9855    4.1110  -14.1123 H         1 <0>         0.0575
     44 H17         8.5317    4.1110  -13.2305 H         1 <0>         0.0580
     45 H18         8.4902    4.5526  -14.9543 H         1 <0>         0.1045
     46 H19         7.9975   -0.2431  -15.8744 H         1 <0>         0.3910
     47 H20         3.5134   -0.7940   -7.9810 H         1 <0>         0.1286
@<TRIPOS>BOND
     1    1    2 1
     2    1   28 1
     3    1   29 1
     4    1   30 1
     5    2    3 1
     6    3    8 ar
     7    3    4 ar
     8    4    5 ar
     9    4   31 1
    10    5    6 ar
    11    5   10 1
    12    6    7 ar
    13    6   32 1
    14    7    8 ar
    15    7   33 1
    16    8    9 1
    17    9   34 1
    18   10   11 2
    19   10   35 1
    20   11   12 1
    21   11   36 1
    22   12   13 1
    23   12   27 2
    24   13   14 1
    25   13   37 1
    26   13   47 1
    27   14   15 2
    28   14   16 1
    29   16   17 2
    30   16   38 1
    31   17   18 1
    32   17   39 1
    33   18   23 ar
    34   18   19 ar
    35   19   20 ar
    36   19   40 1
    37   20   21 ar
    38   20   41 1
    39   21   22 ar
    40   21   26 1
    41   22   23 ar
    42   22   24 1
    43   23   42 1
    44   24   25 1
    45   25   43 1
    46   25   44 1
    47   25   45 1
    48   26   46 1
@<TRIPOS>MOLECULE
ZINC39326742
   63    65     0     0     0
SMALL
USER_CHARGES

@<TRIPOS>ATOM
      1 C1          0.2759   -4.4162   -4.4218 C.3       1 <0>         0.0232
      2 O1          0.3391   -4.0792   -3.0346 O.3       1 <0>        -0.3010
      3 C2          0.8490   -2.8588   -2.7183 C.ar      1 <0>         0.1495
      4 C3          0.9444   -2.4693   -1.3843 C.ar      1 <0>         0.0371
      5 C4          1.4664   -1.2205   -1.0555 C.ar      1 <0>         0.1482
      6 C5          1.8916   -0.3632   -2.0522 C.ar      1 <0>        -0.2156
      7 C6          1.7973   -0.7512   -3.3939 C.ar      1 <0>         0.0068
      8 C7          1.2770   -2.0091   -3.7202 C.ar      1 <0>        -0.2143
      9 C8          2.2484    0.1576   -4.4568 C.2       1 <0>        -0.0474
     10 C9          2.0293    1.4862   -4.3477 C.2       1 <0>        -0.1728
     11 C10         2.6090    2.4520   -5.3071 C.2       1 <0>         0.4343
     12 O2          3.7373    2.3329   -5.7543 O.2       1 <0>        -0.4352
     13 C11         1.7201    3.5732   -5.6840 C.2       1 <0>        -0.1729
     14 C12         1.6716    4.0477   -6.9480 C.2       1 <0>        -0.0475
     15 C13         0.8845    5.2509   -7.2514 C.ar      1 <0>         0.0062
     16 C14         0.7880    6.2822   -6.3097 C.ar      1 <0>        -0.2185
     17 C15         0.0469    7.4120   -6.5986 C.ar      1 <0>         0.1479
     18 C16        -0.6036    7.5255   -7.8250 C.ar      1 <0>         0.0374
     19 C17        -0.5099    6.5015   -8.7645 C.ar      1 <0>         0.1493
     20 C18         0.2341    5.3712   -8.4851 C.ar      1 <0>        -0.2139
     21 O3         -1.1471    6.6166   -9.9604 O.3       1 <0>        -0.3010
     22 C19        -1.0083    5.5289  -10.8768 C.3       1 <0>         0.0232
     23 O4         -1.3320    8.6382   -8.1054 O.3       1 <0>        -0.3123
     24 C20        -0.6456    9.7209   -8.7368 C.3       1 <0>         0.0353
     25 O5         -0.0478    8.4141   -5.6842 O.3       1 <0>        -0.2999
     26 C21         0.6441    8.2314   -4.4473 C.3       1 <0>         0.0220
     27 C22         0.8665    4.1612   -4.5786 C.3       1 <0>        -0.0941
     28 C23         0.1505    3.0228   -3.8468 C.3       1 <0>        -0.1168
     29 C24         1.1719    2.0643   -3.2401 C.3       1 <0>        -0.0894
     30 O6          1.5573   -0.8443    0.2483 O.3       1 <0>        -0.3000
     31 C25         2.1023    0.4497    0.5137 C.3       1 <0>         0.0224
     32 O7          0.5268   -3.3097   -0.4012 O.3       1 <0>        -0.3122
     33 C26         1.4944   -4.2160    0.1320 C.3       1 <0>         0.0353
     34 H1         -0.3509   -3.6928   -4.9433 H         1 <0>         0.0589
     35 H2          1.2799   -4.3994   -4.8459 H         1 <0>         0.0580
     36 H3         -0.1495   -5.4135   -4.5345 H         1 <0>         0.1049
     37 H4          2.2959    0.6050   -1.7964 H         1 <0>         0.1425
     38 H5          1.2068   -2.3136   -4.7540 H         1 <0>         0.1395
     39 H6          2.7552   -0.2366   -5.3252 H         1 <0>         0.1350
     40 H7          2.2114    3.5428   -7.7354 H         1 <0>         0.1349
     41 H8          1.2918    6.1946   -5.3585 H         1 <0>         0.1454
     42 H9          0.3100    4.5795   -9.2158 H         1 <0>         0.1396
     43 H10         0.0454    5.3898  -11.1186 H         1 <0>         0.0581
     44 H11        -1.4001    4.6189  -10.4226 H         1 <0>         0.0590
     45 H12        -1.5643    5.7486  -11.7883 H         1 <0>         0.1049
     46 H13        -0.2413    9.3869   -9.6924 H         1 <0>         0.0450
     47 H14        -1.3408   10.5436   -8.9040 H         1 <0>         0.0941
     48 H15         0.1688   10.0580   -8.0956 H         1 <0>         0.0451
     49 H16         0.4861    9.1018   -3.8106 H         1 <0>         0.1056
     50 H17         0.2639    7.3410   -3.9465 H         1 <0>         0.0586
     51 H18         1.7100    8.1118   -4.6415 H         1 <0>         0.0578
     52 H19         1.5003    4.7043   -3.8776 H         1 <0>         0.0794
     53 H20         0.1294    4.8396   -5.0082 H         1 <0>         0.0947
     54 H21        -0.4729    3.4376   -3.0547 H         1 <0>         0.0792
     55 H22        -0.4778    2.4783   -4.5517 H         1 <0>         0.0712
     56 H23         0.6519    1.2583   -2.7224 H         1 <0>         0.0912
     57 H24         1.8025    2.6062   -2.5352 H         1 <0>         0.0781
     58 H25         2.1182    0.6236    1.5896 H         1 <0>         0.1054
     59 H26         3.1180    0.5035    0.1219 H         1 <0>         0.0578
     60 H27         1.4864    1.2092    0.0319 H         1 <0>         0.0585
     61 H28         1.0315   -4.8275    0.9065 H         1 <0>         0.0941
     62 H29         1.8672   -4.8596   -0.6647 H         1 <0>         0.0450
     63 H30         2.3227   -3.6520    0.5610 H         1 <0>         0.0450
@<TRIPOS>BOND
     1    1    2 1
     2    1   34 1
     3    1   35 1
     4    1   36 1
     5    2    3 1
     6    3    8 ar
     7    3    4 ar
     8    4    5 ar
     9    4   32 1
    10    5    6 ar
    11    5   30 1
    12    6    7 ar
    13    6   37 1
    14    7    8 ar
    15    7    9 1
    16    8   38 1
    17    9   10 2
    18    9   39 1
    19   10   29 1
    20   10   11 1
    21   11   12 2
    22   11   13 1
    23   13   14 2
    24   13   27 1
    25   14   15 1
    26   14   40 1
    27   15   20 ar
    28   15   16 ar
    29   16   17 ar
    30   16   41 1
    31   17   18 ar
    32   17   25 1
    33   18   19 ar
    34   18   23 1
    35   19   20 ar
    36   19   21 1
    37   20   42 1
    38   21   22 1
    39   22   43 1
    40   22   44 1
    41   22   45 1
    42   23   24 1
    43   24   46 1
    44   24   47 1
    45   24   48 1
    46   25   26 1
    47   26   49 1
    48   26   50 1
    49   26   51 1
    50   27   28 1
    51   27   52 1
    52   27   53 1
    53   28   29 1
    54   28   54 1
    55   28   55 1
    56   29   56 1
    57   29   57 1
    58   30   31 1
    59   31   58 1
    60   31   59 1
    61   31   60 1
    62   32   33 1
    63   33   61 1
    64   33   62 1
    65   33   63 1
@<TRIPOS>MOLECULE
ZINC01081487
   32    33     0     0     0
SMALL
USER_CHARGES

@<TRIPOS>ATOM
      1 C1         -0.0166    1.3735    0.0096 C.ar      1 <0>        -0.0635
      2 C2          1.1875    2.0865    0.0019 C.ar      1 <0>        -0.0927
      3 C3          2.4034    1.3939   -0.0134 C.ar      1 <0>        -0.0701
      4 C4          2.4078    0.0162   -0.0208 C.ar      1 <0>        -0.1558
      5 C5          1.2107   -0.6843   -0.0132 C.ar      1 <0>         0.1125
      6 C6          0.0021   -0.0041    0.0020 C.ar      1 <0>        -0.1560
      7 F1          1.2220   -2.0352   -0.0205 F         1 <0>        -0.1350
      8 C7          1.1752    3.5569    0.0095 C.2       1 <0>        -0.0158
      9 C8          2.3387    4.2418    0.0020 C.2       1 <0>        -0.2293
     10 C9          2.3265    5.7059    0.0095 C.2       1 <0>         0.4100
     11 O1          1.2656    6.3066    0.0225 O.2       1 <0>        -0.4657
     12 C10         3.5883    6.4486    0.0015 C.2       1 <0>        -0.2293
     13 C11         3.5770    7.7987    0.0084 C.2       1 <0>        -0.0158
     14 C12         4.8442    8.5446    0.0003 C.ar      1 <0>        -0.0928
     15 C13         6.0636    7.8583   -0.0204 C.ar      1 <0>        -0.0701
     16 C14         7.2472    8.5634   -0.0278 C.ar      1 <0>        -0.1558
     17 C15         7.2321    9.9502   -0.0149 C.ar      1 <0>         0.1125
     18 C16         6.0270   10.6366    0.0056 C.ar      1 <0>        -0.1560
     19 C17         4.8361    9.9440    0.0074 C.ar      1 <0>        -0.0635
     20 F2          8.3963   10.6355   -0.0218 F         1 <0>        -0.1350
     21 H1         -0.9584    1.9019    0.0259 H         1 <0>         0.1402
     22 H2          3.3363    1.9381   -0.0197 H         1 <0>         0.1396
     23 H3          3.3455   -0.5196   -0.0330 H         1 <0>         0.1408
     24 H4         -0.9265   -0.5555    0.0083 H         1 <0>         0.1412
     25 H5          0.2355    4.0890    0.0209 H         1 <0>         0.1373
     26 H6          3.2785    3.7097   -0.0094 H         1 <0>         0.1344
     27 H7          4.5280    5.9165   -0.0100 H         1 <0>         0.1344
     28 H8          2.6372    8.3308    0.0198 H         1 <0>         0.1373
     29 H9          6.0767    6.7784   -0.0301 H         1 <0>         0.1396
     30 H10         8.1890    8.0349   -0.0434 H         1 <0>         0.1408
     31 H11         6.0223   11.7166    0.0160 H         1 <0>         0.1412
     32 H12         3.8984   10.4797    0.0188 H         1 <0>         0.1402
@<TRIPOS>BOND
     1    1    6 ar
     2    1    2 ar
     3    1   21 1
     4    2    3 ar
     5    2    8 1
     6    3    4 ar
     7    3   22 1
     8    4    5 ar
     9    4   23 1
    10    5    6 ar
    11    5    7 1
    12    6   24 1
    13    8    9 2
    14    8   25 1
    15    9   10 1
    16    9   26 1
    17   10   11 2
    18   10   12 1
    19   12   13 2
    20   12   27 1
    21   13   14 1
    22   13   28 1
    23   14   19 ar
    24   14   15 ar
    25   15   16 ar
    26   15   29 1
    27   16   17 ar
    28   16   30 1
    29   17   18 ar
    30   17   20 1
    31   18   19 ar
    32   18   31 1
    33   19   32 1
