@<TRIPOS>MOLECULE
ZINC19203131
   79    83     0     0     0
SMALL
USER_CHARGES

@<TRIPOS>ATOM
      1 C1          0.4728    1.2638   -2.5373 C.3       1 <0>        -0.1453
      2 C2          0.5659   -0.2603   -2.5689 C.3       1 <0>        -0.0436
      3 C3         -0.7274   -0.8397   -3.1412 C.3       1 <0>        -0.1021
      4 C4         -1.9076   -0.5242   -2.2273 C.3       1 <0>        -0.0883
      5 C5         -1.6737   -1.0494   -0.8135 C.3       1 <0>        -0.1254
      6 C6         -0.3635   -0.5044   -0.2441 C.3       1 <0>        -0.0766
      7 C7          0.8019   -0.8177   -1.1676 C.3       1 <0>        -0.0495
      8 H1          0.9219   -1.9079   -1.2407 H         1 <0>         0.0798
      9 C8          2.0968   -0.2452   -0.6259 C.2       1 <0>        -0.0068
     10 C9          2.0888    0.2608    0.6067 C.2       1 <0>        -0.2597
     11 C10         3.3159    0.8078    1.2119 C.2       1 <0>         0.3996
     12 O1          3.2472    1.4848    2.2154 O.2       1 <0>        -0.4514
     13 C11         4.6120    0.4416    0.5262 C.3       1 <0>        -0.1125
     14 H2          4.7766   -0.6430    0.7099 H         1 <0>         0.0950
     15 C12         5.8177    1.1540    1.1304 C.3       1 <0>        -0.0230
     16 C13         6.0278    0.6085    2.5540 C.3       1 <0>        -0.1166
     17 C14         7.2812    1.2327    3.1599 C.3       1 <0>        -0.1468
     18 C15         8.5107    0.8346    2.3542 C.3       1 <0>         0.1188
     19 H3          8.6616   -0.2474    2.4399 H         1 <0>         0.0474
     20 C16         8.3805    1.1993    0.8761 C.3       1 <0>        -0.0368
     21 C17         7.0445    0.7997    0.2951 C.3       1 <0>        -0.0597
     22 H4          7.0507   -0.3175    0.2270 H         1 <0>         0.0593
     23 C18         6.8452    1.2956   -1.1367 C.3       1 <0>        -0.1137
     24 C19         5.7031    0.4800   -1.7608 C.3       1 <0>        -0.1071
     25 C20         4.4163    0.6494   -0.9686 C.3       1 <0>        -0.0216
     26 C21         3.3288   -0.2993   -1.4852 C.3       1 <0>        -0.0139
     27 C22         3.0390   -0.0304   -2.9542 C.3       1 <0>        -0.1046
     28 C23         1.7502   -0.6848   -3.4418 C.3       1 <0>        -0.1101
     29 C24         3.8613   -1.7371   -1.3874 C.3       1 <0>        -0.1491
     30 C25         3.8884    2.0744   -1.2110 C.3       1 <0>        -0.1707
     31 C26         9.4833    0.4010    0.1348 C.3       1 <0>        -0.1463
     32 C27         8.6956    2.6818    0.6756 C.3       1 <0>        -0.1327
     33 O2          9.6631    1.4926    2.8961 O.3       1 <0>        -0.5663
     34 C28         5.6034    2.6605    1.2285 C.3       1 <0>        -0.1601
     35 C29        -1.6538   -2.5782   -0.8159 C.3       1 <0>        -0.1185
     36 C30        -2.8131   -0.5861    0.0688 C.2       1 <0>         0.4997
     37 O3         -3.9583   -0.9123   -0.1929 O.co2     1 <0>        -0.7001
     38 O4         -2.5855    0.1133    1.0412 O.co2     1 <0>        -0.6966
     39 H5          1.4030    1.6767   -2.1470 H         1 <0>         0.0565
     40 H6          0.3044    1.6385   -3.5470 H         1 <0>         0.0486
     41 H7         -0.3555    1.5640   -1.8956 H         1 <0>         0.0641
     42 H8         -0.9070   -0.3913   -4.1254 H         1 <0>         0.0521
     43 H9         -0.6208   -1.9161   -3.2703 H         1 <0>         0.0580
     44 H10        -2.0885    0.5497   -2.1934 H         1 <0>         0.0539
     45 H11        -2.8078   -1.0027   -2.6337 H         1 <0>         0.0579
     46 H12        -0.4517    0.5698   -0.0832 H         1 <0>         0.0694
     47 H13        -0.1860   -0.9801    0.7303 H         1 <0>         0.0545
     48 H14         1.1756    0.2770    1.1841 H         1 <0>         0.1443
     49 H15         5.1612    0.8568    3.1640 H         1 <0>         0.0820
     50 H16         6.1422   -0.4741    2.5041 H         1 <0>         0.0567
     51 H17         7.1963    2.3129    3.2228 H         1 <0>         0.0774
     52 H18         7.3962    0.8516    4.1861 H         1 <0>         0.0560
     53 H19         6.6122    2.3509   -1.1698 H         1 <0>         0.0709
     54 H20         7.7484    1.1145   -1.7252 H         1 <0>         0.0629
     55 H21         5.5508    0.8257   -2.7879 H         1 <0>         0.0676
     56 H22         6.0226   -0.5618   -1.7899 H         1 <0>         0.0668
     57 H23         3.0207    1.0230   -3.2073 H         1 <0>         0.0738
     58 H24         3.8698   -0.4674   -3.5442 H         1 <0>         0.0569
     59 H25         1.8467   -1.7704   -3.4156 H         1 <0>         0.0606
     60 H26         1.5557   -0.3753   -4.4732 H         1 <0>         0.0615
     61 H27         3.1022   -2.4310   -1.7484 H         1 <0>         0.0616
     62 H28         4.7605   -1.8337   -1.9958 H         1 <0>         0.0639
     63 H29         4.0989   -1.9667   -0.3487 H         1 <0>         0.0560
     64 H30         4.6488    2.7983   -0.9179 H         1 <0>         0.0676
     65 H31         3.6551    2.2005   -2.2683 H         1 <0>         0.0645
     66 H32         2.9874    2.2339   -0.6186 H         1 <0>         0.0600
     67 H33         9.3261   -0.6663    0.2905 H         1 <0>         0.0486
     68 H34         9.4381    0.6231   -0.9314 H         1 <0>         0.0555
     69 H35        10.4611    0.6848    0.5239 H         1 <0>         0.0593
     70 H36         9.7493    2.8614    0.8889 H         1 <0>         0.0584
     71 H37         8.4806    2.9627   -0.3554 H         1 <0>         0.0517
     72 H38         8.0815    3.2782    1.3503 H         1 <0>         0.0569
     73 H39         9.8421    1.2742    3.8210 H         1 <0>         0.3732
     74 H40         4.6128    2.8608    1.6367 H         1 <0>         0.0742
     75 H41         6.3602    3.0933    1.8827 H         1 <0>         0.0601
     76 H42         5.6841    3.1044    0.2362 H         1 <0>         0.0592
     77 H43        -0.8518   -2.9301   -1.4649 H         1 <0>         0.0380
     78 H44        -1.4862   -2.9410    0.1982 H         1 <0>         0.0413
     79 H45        -2.6091   -2.9534   -1.1829 H         1 <0>         0.0539
@<TRIPOS>BOND
     1    1    2 1
     2    1   39 1
     3    1   40 1
     4    1   41 1
     5    2    7 1
     6    2   28 1
     7    2    3 1
     8    3    4 1
     9    3   42 1
    10    3   43 1
    11    4    5 1
    12    4   44 1
    13    4   45 1
    14    5    6 1
    15    5   35 1
    16    5   36 1
    17    6    7 1
    18    6   46 1
    19    6   47 1
    20    7    8 1
    21    7    9 1
    22    9   26 1
    23    9   10 2
    24   10   11 1
    25   10   48 1
    26   11   12 2
    27   11   13 1
    28   13   14 1
    29   13   25 1
    30   13   15 1
    31   15   21 1
    32   15   16 1
    33   15   34 1
    34   16   17 1
    35   16   49 1
    36   16   50 1
    37   17   18 1
    38   17   51 1
    39   17   52 1
    40   18   19 1
    41   18   20 1
    42   18   33 1
    43   20   21 1
    44   20   31 1
    45   20   32 1
    46   21   22 1
    47   21   23 1
    48   23   24 1
    49   23   53 1
    50   23   54 1
    51   24   25 1
    52   24   55 1
    53   24   56 1
    54   25   26 1
    55   25   30 1
    56   26   27 1
    57   26   29 1
    58   27   28 1
    59   27   57 1
    60   27   58 1
    61   28   59 1
    62   28   60 1
    63   29   61 1
    64   29   62 1
    65   29   63 1
    66   30   64 1
    67   30   65 1
    68   30   66 1
    69   31   67 1
    70   31   68 1
    71   31   69 1
    72   32   70 1
    73   32   71 1
    74   32   72 1
    75   33   73 1
    76   34   74 1
    77   34   75 1
    78   34   76 1
    79   35   77 1
    80   35   78 1
    81   35   79 1
    82   36   37 2
    83   36   38 1
@<TRIPOS>MOLECULE
ZINC19203131
   79    83     0     0     0
SMALL
USER_CHARGES

@<TRIPOS>ATOM
      1 C1          0.6456    1.7280   -2.5152 C.3       1 <0>        -0.1468
      2 C2          0.6518    0.1970   -2.6000 C.3       1 <0>        -0.0447
      3 C3         -0.6848   -0.2429   -3.1979 C.3       1 <0>        -0.1006
      4 C4         -0.7983   -1.7627   -3.2148 C.3       1 <0>        -0.0867
      5 C5         -0.6469   -2.3346   -1.8057 C.3       1 <0>        -0.1308
      6 C6          0.6905   -1.8984   -1.2096 C.3       1 <0>        -0.0666
      7 C7          0.8269   -0.3802   -1.1995 C.3       1 <0>        -0.0489
      8 H1          0.0653    0.0529   -0.5359 H         1 <0>         0.1118
      9 C8          2.1956   -0.0004   -0.6658 C.2       1 <0>         0.0093
     10 C9          2.2431    0.3732    0.6187 C.2       1 <0>        -0.2654
     11 C10         3.5050    0.7729    1.2574 C.2       1 <0>         0.4015
     12 O1          3.4908    1.2728    2.3648 O.2       1 <0>        -0.4605
     13 C11         4.7755    0.5041    0.4842 C.3       1 <0>        -0.1130
     14 H2          4.9710   -0.5882    0.5585 H         1 <0>         0.0967
     15 C12         5.9968    1.1756    1.1081 C.3       1 <0>        -0.0223
     16 C13         6.2668    0.5019    2.4653 C.3       1 <0>        -0.1186
     17 C14         7.5457    1.0708    3.0731 C.3       1 <0>        -0.1465
     18 C15         8.7380    0.7505    2.1811 C.3       1 <0>         0.1179
     19 H3          8.8771   -0.3354    2.1410 H         1 <0>         0.0474
     20 C16         8.5467    1.2746    0.7575 C.3       1 <0>        -0.0367
     21 C17         7.1909    0.9192    0.1935 C.3       1 <0>        -0.0601
     22 H4          7.2045   -0.1851    0.0186 H         1 <0>         0.0594
     23 C18         6.9293    1.5468   -1.1745 C.3       1 <0>        -0.1134
     24 C19         5.7696    0.7824   -1.8319 C.3       1 <0>        -0.1067
     25 C20         4.5187    0.8570   -0.9725 C.3       1 <0>        -0.0239
     26 C21         3.4148   -0.0527   -1.5342 C.3       1 <0>        -0.0148
     27 C22         3.1328    0.2991   -2.9871 C.3       1 <0>        -0.1033
     28 C23         1.8055   -0.2685   -3.4816 C.3       1 <0>        -0.1081
     29 C24         3.9437   -1.4937   -1.5089 C.3       1 <0>        -0.1536
     30 C25         3.9623    2.2877   -1.0594 C.3       1 <0>        -0.1702
     31 C26         9.6271    0.5811   -0.1099 C.3       1 <0>        -0.1461
     32 C27         8.8355    2.7751    0.7129 C.3       1 <0>        -0.1331
     33 O2          9.9195    1.3359    2.7401 O.3       1 <0>        -0.5661
     34 C28         5.7635    2.6614    1.3574 C.3       1 <0>        -0.1571
     35 C29        -0.6693   -3.8687   -1.8928 C.3       1 <0>        -0.1216
     36 C30        -1.7831   -1.8866   -0.9274 C.2       1 <0>         0.5075
     37 O3         -2.9311   -2.1716   -1.2230 O.co2     1 <0>        -0.7014
     38 O4         -1.5560   -1.2384    0.0799 O.co2     1 <0>        -0.6930
     39 H5          1.5894    2.0723   -2.0923 H         1 <0>         0.0573
     40 H6          0.5207    2.1467   -3.5138 H         1 <0>         0.0482
     41 H7         -0.1776    2.0534   -1.8792 H         1 <0>         0.0546
     42 H8         -1.5018    0.1991   -2.6316 H         1 <0>         0.0653
     43 H9         -0.7422    0.1284   -4.2285 H         1 <0>         0.0478
     44 H10        -1.7739   -2.0497   -3.6162 H         1 <0>         0.0592
     45 H11        -0.0202   -2.1807   -3.8586 H         1 <0>         0.0444
     46 H12         0.7656   -2.2770   -0.1853 H         1 <0>         0.0555
     47 H13         1.4905   -2.3449   -1.8038 H         1 <0>         0.0434
     48 H14         1.3291    0.3819    1.1968 H         1 <0>         0.1347
     49 H15         5.4279    0.6968    3.1338 H         1 <0>         0.0852
     50 H16         6.3728   -0.5717    2.3148 H         1 <0>         0.0565
     51 H17         7.4651    2.1408    3.2332 H         1 <0>         0.0764
     52 H18         7.7039    0.5997    4.0543 H         1 <0>         0.0559
     53 H19         6.6826    2.5986   -1.0936 H         1 <0>         0.0701
     54 H20         7.8089    1.4405   -1.8139 H         1 <0>         0.0628
     55 H21         5.5698    1.2324   -2.8096 H         1 <0>         0.0677
     56 H22         6.0904   -0.2480   -1.9838 H         1 <0>         0.0670
     57 H23         3.1728    1.3627   -3.1865 H         1 <0>         0.0715
     58 H24         3.9326   -0.1572   -3.6049 H         1 <0>         0.0561
     59 H25         1.8481   -1.3584   -3.4851 H         1 <0>         0.0668
     60 H26         1.6326    0.0715   -4.5080 H         1 <0>         0.0575
     61 H27         3.1774   -2.1687   -1.8900 H         1 <0>         0.0693
     62 H28         4.8340   -1.5650   -2.1336 H         1 <0>         0.0628
     63 H29         4.1952   -1.7705   -0.4850 H         1 <0>         0.0558
     64 H30         4.7333    2.9963   -0.7568 H         1 <0>         0.0655
     65 H31         3.6583    2.4976   -2.0849 H         1 <0>         0.0648
     66 H32         3.1011    2.3834   -0.3983 H         1 <0>         0.0605
     67 H33         9.4879   -0.4992   -0.0686 H         1 <0>         0.0487
     68 H34         9.5371    0.9199   -1.1420 H         1 <0>         0.0555
     69 H35        10.6165    0.8347    0.2707 H         1 <0>         0.0594
     70 H36         9.8913    2.9483    0.9212 H         1 <0>         0.0585
     71 H37         8.5919    3.1627   -0.2763 H         1 <0>         0.0516
     72 H38         8.2291    3.2842    1.4620 H         1 <0>         0.0568
     73 H39        10.1330    1.0190    3.6284 H         1 <0>         0.3731
     74 H40         4.7879    2.8030    1.8225 H         1 <0>         0.0701
     75 H41         6.5404    3.0452    2.0186 H         1 <0>         0.0597
     76 H42         5.7954    3.1983    0.4094 H         1 <0>         0.0596
     77 H43         0.1537   -4.2090   -2.5213 H         1 <0>         0.0357
     78 H44        -0.5621   -4.2909   -0.8937 H         1 <0>         0.0427
     79 H45        -1.6154   -4.1942   -2.3252 H         1 <0>         0.0551
@<TRIPOS>BOND
     1    1    2 1
     2    1   39 1
     3    1   40 1
     4    1   41 1
     5    2    7 1
     6    2   28 1
     7    2    3 1
     8    3    4 1
     9    3   42 1
    10    3   43 1
    11    4    5 1
    12    4   44 1
    13    4   45 1
    14    5    6 1
    15    5   35 1
    16    5   36 1
    17    6    7 1
    18    6   46 1
    19    6   47 1
    20    7    8 1
    21    7    9 1
    22    9   26 1
    23    9   10 2
    24   10   11 1
    25   10   48 1
    26   11   12 2
    27   11   13 1
    28   13   14 1
    29   13   25 1
    30   13   15 1
    31   15   21 1
    32   15   16 1
    33   15   34 1
    34   16   17 1
    35   16   49 1
    36   16   50 1
    37   17   18 1
    38   17   51 1
    39   17   52 1
    40   18   19 1
    41   18   20 1
    42   18   33 1
    43   20   21 1
    44   20   31 1
    45   20   32 1
    46   21   22 1
    47   21   23 1
    48   23   24 1
    49   23   53 1
    50   23   54 1
    51   24   25 1
    52   24   55 1
    53   24   56 1
    54   25   26 1
    55   25   30 1
    56   26   27 1
    57   26   29 1
    58   27   28 1
    59   27   57 1
    60   27   58 1
    61   28   59 1
    62   28   60 1
    63   29   61 1
    64   29   62 1
    65   29   63 1
    66   30   64 1
    67   30   65 1
    68   30   66 1
    69   31   67 1
    70   31   68 1
    71   31   69 1
    72   32   70 1
    73   32   71 1
    74   32   72 1
    75   33   73 1
    76   34   74 1
    77   34   75 1
    78   34   76 1
    79   35   77 1
    80   35   78 1
    81   35   79 1
    82   36   37 2
    83   36   38 1
@<TRIPOS>MOLECULE
ZINC28896391
   49    52     0     0     0
SMALL
USER_CHARGES
1-adamantyl-[4-(2-hydroxyethyl)piperazin-1-yl]methanone
@<TRIPOS>ATOM
      1 C1         -7.5476    1.8597    1.4135 C.3       1 <0>         0.0391
      2 C2         -6.5882    0.7373    1.0036 C.3       1 <0>         0.1141
      3 N1         -5.2274    1.2902    0.9278 N.am      1 <0>        -0.6106
      4 C3         -4.7186    2.0471    2.0817 C.3       1 <0>         0.0876
      5 C4         -5.7537    3.1230    2.4468 C.3       1 <0>         0.0389
      6 N2         -7.0623    2.4872    2.6499 N.3       1 <0>        -0.5255
      7 C5         -8.0409    3.4513    3.1703 C.3       1 <0>         0.0524
      8 C6         -9.1972    2.6980    3.8309 C.3       1 <0>         0.0920
      9 O1         -8.7081    1.9682    4.9580 O.3       1 <0>        -0.5876
     10 C7         -4.4649    1.1035   -0.1677 C.2       1 <0>         0.5259
     11 O2         -4.9282    0.5489   -1.1417 O.2       1 <0>        -0.5387
     12 C8         -3.0365    1.5837   -0.1824 C.3       1 <0>        -0.0668
     13 C9         -2.3448    1.0878   -1.4538 C.3       1 <0>        -0.0872
     14 C10        -0.8946    1.5754   -1.4687 C.3       1 <0>        -0.0868
     15 C11        -0.1604    1.0294   -0.2424 C.3       1 <0>        -0.1110
     16 C12        -0.8521    1.5252    1.0290 C.3       1 <0>        -0.0839
     17 C13        -2.3023    1.0377    1.0438 C.3       1 <0>        -0.1217
     18 C14        -0.8280    3.0547    1.0593 C.3       1 <0>        -0.1114
     19 C15        -1.5622    3.6008   -0.1669 C.3       1 <0>        -0.0838
     20 C16        -0.8705    3.1049   -1.4383 C.3       1 <0>        -0.1108
     21 C17        -3.0124    3.1132   -0.1521 C.3       1 <0>        -0.1115
     22 H1         -8.5510    1.4422    1.5836 H         1 <0>         0.0872
     23 H2         -7.5949    2.6135    0.6138 H         1 <0>         0.0375
     24 H3         -6.6249   -0.0680    1.7521 H         1 <0>         0.0761
     25 H4         -6.8868    0.3397    0.0224 H         1 <0>         0.0962
     26 H5         -4.5686    1.3642    2.9309 H         1 <0>         0.0795
     27 H6         -3.7609    2.5191    1.8172 H         1 <0>         0.1164
     28 H7         -5.4434    3.6315    3.3716 H         1 <0>         0.0896
     29 H8         -5.8232    3.8570    1.6304 H         1 <0>         0.0381
     30 H9         -7.5555    4.1020    3.9126 H         1 <0>         0.0826
     31 H10        -8.4277    4.0641    2.3427 H         1 <0>         0.0513
     32 H11        -9.9610    3.4167    4.1628 H         1 <0>         0.0440
     33 H12        -9.6413    1.9995    3.1064 H         1 <0>         0.0402
     34 H13        -9.3987    1.3618    5.5624 H         1 <0>         0.4036
     35 H14        -2.3622   -0.0118   -1.4756 H         1 <0>         0.0678
     36 H15        -2.8727    1.4803   -2.3354 H         1 <0>         0.0704
     37 H16        -0.3972    1.2189   -2.3828 H         1 <0>         0.0745
     38 H17        -0.1777   -0.0702   -0.2642 H         1 <0>         0.0632
     39 H18         0.8822    1.3799   -0.2530 H         1 <0>         0.0647
     40 H19        -0.3242    1.1326    1.9105 H         1 <0>         0.0755
     41 H20        -2.7997    1.3943    1.9578 H         1 <0>         0.0835
     42 H21        -2.3197   -0.0619    1.0221 H         1 <0>         0.0682
     43 H22        -1.3254    3.4112    1.9734 H         1 <0>         0.0632
     44 H23         0.2146    3.4053    1.0487 H         1 <0>         0.0670
     45 H24        -1.5447    4.7004   -0.1450 H         1 <0>         0.0750
     46 H25         0.1721    3.4554   -1.4490 H         1 <0>         0.0652
     47 H26        -1.3984    3.4975   -2.3199 H         1 <0>         0.0631
     48 H27        -3.5403    3.5057   -1.0337 H         1 <0>         0.0682
     49 H28        -3.5098    3.4697    0.7619 H         1 <0>         0.0756
@<TRIPOS>BOND
     1    1    6 1
     2    1    2 1
     3    1   22 1
     4    1   23 1
     5    2    3 1
     6    2   24 1
     7    2   25 1
     8    3    4 1
     9    3   10 am
    10    4    5 1
    11    4   26 1
    12    4   27 1
    13    5    6 1
    14    5   28 1
    15    5   29 1
    16    6    7 1
    17    7    8 1
    18    7   30 1
    19    7   31 1
    20    8    9 1
    21    8   32 1
    22    8   33 1
    23    9   34 1
    24   10   11 2
    25   10   12 1
    26   12   17 1
    27   12   21 1
    28   12   13 1
    29   13   14 1
    30   13   35 1
    31   13   36 1
    32   14   20 1
    33   14   15 1
    34   14   37 1
    35   15   16 1
    36   15   38 1
    37   15   39 1
    38   16   17 1
    39   16   18 1
    40   16   40 1
    41   17   41 1
    42   17   42 1
    43   18   19 1
    44   18   43 1
    45   18   44 1
    46   19   20 1
    47   19   21 1
    48   19   45 1
    49   20   46 1
    50   20   47 1
    51   21   48 1
    52   21   49 1
@<TRIPOS>MOLECULE
ZINC04031797
   43    46     0     0     0
SMALL
USER_CHARGES

@<TRIPOS>ATOM
      1 C1         -0.2397    1.6225    1.9580 C.3       1 <0>        -0.1207
      2 C2         -0.2335    0.1032    2.1415 C.3       1 <0>        -0.1387
      3 C3          0.7278   -0.5257    1.1279 C.3       1 <0>         0.0796
      4 N1          2.0468    0.1051    1.2728 N.am      1 <0>        -0.6095
      5 C4          2.1410    1.5697    1.2036 C.3       1 <0>         0.1090
      6 C5          1.1640    2.1750    2.2163 C.3       1 <0>        -0.1348
      7 C6          3.1494   -0.6456    1.4661 C.2       1 <0>         0.5250
      8 O1          4.2432   -0.1221    1.4882 O.2       1 <0>        -0.5383
      9 C7          3.0231   -2.1354    1.6547 C.3       1 <0>        -0.0677
     10 C8          2.1202   -2.4227    2.8559 C.3       1 <0>        -0.1152
     11 C9          1.9920   -3.9352    3.0474 C.3       1 <0>        -0.0841
     12 C10         3.3767   -4.5372    3.2948 C.3       1 <0>        -0.1102
     13 C11         4.2796   -4.2499    2.0935 C.3       1 <0>        -0.0869
     14 C12         4.4078   -2.7373    1.9020 C.3       1 <0>        -0.0864
     15 C13         3.6697   -4.8732    0.8364 C.3       1 <0>        -0.1102
     16 C14         2.2850   -4.2713    0.5890 C.3       1 <0>        -0.0840
     17 C15         1.3820   -4.5586    1.7903 C.3       1 <0>        -0.1106
     18 C16         2.4132   -2.7587    0.3976 C.3       1 <0>        -0.1165
     19 H1         -0.5432    1.8640    0.9393 H         1 <0>         0.0648
     20 H2         -0.9414    2.0704    2.6616 H         1 <0>         0.0666
     21 H3          0.0938   -0.1398    3.1524 H         1 <0>         0.0685
     22 H4         -1.2384   -0.2868    1.9803 H         1 <0>         0.0766
     23 H5          0.8114   -1.5956    1.3187 H         1 <0>         0.1144
     24 H6          0.3529   -0.3607    0.1178 H         1 <0>         0.0690
     25 H7          3.1571    1.8823    1.4443 H         1 <0>         0.0914
     26 H8          1.8814    1.9055    0.1996 H         1 <0>         0.0663
     27 H9          1.1536    3.2596    2.1083 H         1 <0>         0.0757
     28 H10         1.4780    1.9125    3.2266 H         1 <0>         0.0660
     29 H11         2.5547   -1.9786    3.7515 H         1 <0>         0.0671
     30 H12         1.1337   -1.9938    2.6797 H         1 <0>         0.0808
     31 H13         1.3487   -4.1399    3.9032 H         1 <0>         0.0746
     32 H14         3.8112   -4.0931    4.1904 H         1 <0>         0.0628
     33 H15         3.2853   -5.6147    3.4312 H         1 <0>         0.0646
     34 H16         5.2661   -4.6787    2.2697 H         1 <0>         0.0742
     35 H17         5.0511   -2.5327    1.0462 H         1 <0>         0.0692
     36 H18         4.8424   -2.2933    2.7976 H         1 <0>         0.0681
     37 H19         4.3130   -4.6686   -0.0194 H         1 <0>         0.0631
     38 H20         3.5784   -5.9508    0.9728 H         1 <0>         0.0646
     39 H21         1.8505   -4.7154   -0.3065 H         1 <0>         0.0750
     40 H22         1.2907   -5.6361    1.9267 H         1 <0>         0.0666
     41 H23         0.3956   -4.1297    1.6141 H         1 <0>         0.0626
     42 H24         1.4267   -2.3299    0.2214 H         1 <0>         0.0793
     43 H25         3.0565   -2.5541   -0.4582 H         1 <0>         0.0683
@<TRIPOS>BOND
     1    1    6 1
     2    1    2 1
     3    1   19 1
     4    1   20 1
     5    2    3 1
     6    2   21 1
     7    2   22 1
     8    3    4 1
     9    3   23 1
    10    3   24 1
    11    4    5 1
    12    4    7 am
    13    5    6 1
    14    5   25 1
    15    5   26 1
    16    6   27 1
    17    6   28 1
    18    7    8 2
    19    7    9 1
    20    9   14 1
    21    9   18 1
    22    9   10 1
    23   10   11 1
    24   10   29 1
    25   10   30 1
    26   11   17 1
    27   11   12 1
    28   11   31 1
    29   12   13 1
    30   12   32 1
    31   12   33 1
    32   13   14 1
    33   13   15 1
    34   13   34 1
    35   14   35 1
    36   14   36 1
    37   15   16 1
    38   15   37 1
    39   15   38 1
    40   16   17 1
    41   16   18 1
    42   16   39 1
    43   17   40 1
    44   17   41 1
    45   18   42 1
    46   18   43 1
@<TRIPOS>MOLECULE
ZINC13154390
   58    62     0     0     0
SMALL
USER_CHARGES

@<TRIPOS>ATOM
      1 C1         -0.3879    1.4882    0.0082 C.3       1 <0>        -0.1160
      2 C2         -0.2909   -0.0156    0.0003 C.ar      1 <0>        -0.0906
      3 C3         -0.2299   -0.6980   -1.2003 C.ar      1 <0>        -0.1200
      4 C4         -0.1409   -2.0775   -1.2075 C.ar      1 <0>        -0.1106
      5 C5         -0.1125   -2.7745   -0.0141 C.ar      1 <0>        -0.0750
      6 C6         -0.1726   -2.0920    1.1865 C.ar      1 <0>        -0.1153
      7 C7         -0.2573   -0.7123    1.1938 C.ar      1 <0>        -0.1185
      8 C8         -0.0164   -4.2784   -0.0220 C.3       1 <0>        -0.0107
      9 C9         -1.2211   -4.8625   -0.7626 C.3       1 <0>        -0.0999
     10 C10        -1.1236   -6.3894   -0.7706 C.3       1 <0>        -0.0835
     11 H1         -1.9819   -6.8055   -1.2982 H         1 <0>         0.0779
     12 C11         0.1649   -6.8144   -1.4777 C.3       1 <0>        -0.1109
     13 C12         1.3695   -6.2304   -0.7370 C.3       1 <0>        -0.0833
     14 H2          2.2875   -6.5332   -1.2408 H         1 <0>         0.0775
     15 C13         1.2721   -4.7035   -0.7290 C.3       1 <0>        -0.0996
     16 C14         1.3832   -6.7481    0.7026 C.3       1 <0>        -0.1107
     17 C15         0.0947   -6.3230    1.4097 C.3       1 <0>        -0.0674
     18 C16        -1.1100   -6.9071    0.6691 C.3       1 <0>        -0.1206
     19 C17        -0.0028   -4.7961    1.4177 C.3       1 <0>        -0.0802
     20 C18         0.1081   -6.8329    2.8277 C.2       1 <0>         0.5269
     21 O1          0.1939   -6.0524    3.7521 O.2       1 <0>        -0.5368
     22 N1          0.0248   -8.1564    3.0688 N.am      1 <0>        -0.6118
     23 C19         0.0352   -9.1270    1.9638 C.3       1 <0>         0.0893
     24 C20         1.0980  -10.1905    2.2602 C.3       1 <0>         0.0369
     25 N2          0.8536  -10.7654    3.5897 N.3       1 <0>        -0.5423
     26 C21         0.9883   -9.7497    4.6424 C.3       1 <0>         0.0405
     27 C22        -0.0728   -8.6685    4.4441 C.3       1 <0>         0.1142
     28 C23         1.7440  -11.9062    3.8418 C.3       1 <0>         0.0241
     29 H3          0.6142    1.9169    0.0198 H         1 <0>         0.0695
     30 H4         -0.9160    1.8229   -0.8847 H         1 <0>         0.0654
     31 H5         -0.9321    1.8126    0.8952 H         1 <0>         0.0656
     32 H6         -0.2520   -0.1534   -2.1327 H         1 <0>         0.1198
     33 H7         -0.0939   -2.6107   -2.1455 H         1 <0>         0.1197
     34 H8         -0.1507   -2.6366    2.1189 H         1 <0>         0.1271
     35 H9         -0.3005   -0.1789    2.1319 H         1 <0>         0.1201
     36 H10        -2.1391   -4.5597   -0.2588 H         1 <0>         0.0650
     37 H11        -1.2309   -4.4937   -1.7882 H         1 <0>         0.0672
     38 H12         0.2343   -7.9022   -1.4834 H         1 <0>         0.0643
     39 H13         0.1551   -6.4456   -2.5033 H         1 <0>         0.0676
     40 H14         1.2623   -4.3347   -1.7547 H         1 <0>         0.0676
     41 H15         2.1303   -4.2874   -0.2014 H         1 <0>         0.0650
     42 H16         1.4526   -7.8359    0.6969 H         1 <0>         0.0755
     43 H17         2.2414   -6.3320    1.2303 H         1 <0>         0.0689
     44 H18        -2.0279   -6.6043    1.1728 H         1 <0>         0.0688
     45 H19        -1.0405   -7.9949    0.6634 H         1 <0>         0.0834
     46 H20         0.8554   -4.3800    1.9453 H         1 <0>         0.0741
     47 H21        -0.9208   -4.4933    1.9214 H         1 <0>         0.0712
     48 H22        -0.9434   -9.6001    1.8828 H         1 <0>         0.0789
     49 H23         0.2772   -8.6175    1.0311 H         1 <0>         0.1146
     50 H24         1.0445  -10.9776    1.5081 H         1 <0>         0.0892
     51 H25         2.0869   -9.7325    2.2381 H         1 <0>         0.0396
     52 H26         0.8552  -10.2172    5.6180 H         1 <0>         0.0890
     53 H27         1.9787   -9.2978    4.5872 H         1 <0>         0.0385
     54 H28         0.0977   -7.8560    5.1503 H         1 <0>         0.0964
     55 H29        -1.0621   -9.0966    4.6060 H         1 <0>         0.0755
     56 H30         2.7814  -11.5760    3.7892 H         1 <0>         0.0264
     57 H31         1.5419  -12.3128    4.8327 H         1 <0>         0.0712
     58 H32         1.5693  -12.6764    3.0905 H         1 <0>         0.0714
@<TRIPOS>BOND
     1    1    2 1
     2    1   29 1
     3    1   30 1
     4    1   31 1
     5    2    7 ar
     6    2    3 ar
     7    3    4 ar
     8    3   32 1
     9    4    5 ar
    10    4   33 1
    11    5    6 ar
    12    5    8 1
    13    6    7 ar
    14    6   34 1
    15    7   35 1
    16    8   15 1
    17    8   19 1
    18    8    9 1
    19    9   10 1
    20    9   36 1
    21    9   37 1
    22   10   11 1
    23   10   18 1
    24   10   12 1
    25   12   13 1
    26   12   38 1
    27   12   39 1
    28   13   14 1
    29   13   15 1
    30   13   16 1
    31   15   40 1
    32   15   41 1
    33   16   17 1
    34   16   42 1
    35   16   43 1
    36   17   18 1
    37   17   19 1
    38   17   20 1
    39   18   44 1
    40   18   45 1
    41   19   46 1
    42   19   47 1
    43   20   21 2
    44   20   22 am
    45   22   27 1
    46   22   23 1
    47   23   24 1
    48   23   48 1
    49   23   49 1
    50   24   25 1
    51   24   50 1
    52   24   51 1
    53   25   26 1
    54   25   28 1
    55   26   27 1
    56   26   52 1
    57   26   53 1
    58   27   54 1
    59   27   55 1
    60   28   56 1
    61   28   57 1
    62   28   58 1
@<TRIPOS>MOLECULE
ZINC13154390
   59    63     0     0     0
SMALL
USER_CHARGES

@<TRIPOS>ATOM
      1 C1         -0.4091    1.4864    0.0066 C.3       1 <0>        -0.1194
      2 C2         -0.3071   -0.0171   -0.0009 C.ar      1 <0>        -0.0840
      3 C3         -0.2410   -0.6994   -1.2014 C.ar      1 <0>        -0.1178
      4 C4         -0.1474   -2.0785   -1.2083 C.ar      1 <0>        -0.1093
      5 C5         -0.1194   -2.7754   -0.0148 C.ar      1 <0>        -0.0829
      6 C6         -0.1846   -2.0931    1.1857 C.ar      1 <0>        -0.1165
      7 C7         -0.2739   -0.7136    1.1927 C.ar      1 <0>        -0.1181
      8 C8         -0.0184   -4.2790   -0.0224 C.3       1 <0>        -0.0072
      9 C9          1.2732   -4.6998   -0.7264 C.3       1 <0>        -0.1033
     10 C10         1.3758   -6.2263   -0.7341 C.3       1 <0>        -0.0844
     11 H1          2.2959   -6.5261   -1.2357 H         1 <0>         0.0817
     12 C11         0.1748   -6.8144   -1.4775 C.3       1 <0>        -0.1124
     13 C12        -1.1168   -6.3936   -0.7735 C.3       1 <0>        -0.0845
     14 H2         -1.9724   -6.8126   -1.3030 H         1 <0>         0.0817
     15 C13        -1.2194   -4.8671   -0.7658 C.3       1 <0>        -0.1037
     16 C14        -1.1047   -6.9112    0.6663 C.3       1 <0>        -0.1179
     17 C15         0.0963   -6.3231    1.4097 C.3       1 <0>        -0.0700
     18 C16         1.3878   -6.7439    0.7056 C.3       1 <0>        -0.1070
     19 C17        -0.0063   -4.7966    1.4174 C.3       1 <0>        -0.0833
     20 C18         0.1081   -6.8329    2.8277 C.2       1 <0>         0.5352
     21 O1          0.1926   -6.0523    3.7521 O.2       1 <0>        -0.5042
     22 N1          0.0248   -8.1564    3.0688 N.am      1 <0>        -0.6321
     23 C19         0.0352   -9.1284    1.9647 C.3       1 <0>         0.0588
     24 C20         1.0851  -10.2013    2.2720 C.3       1 <0>        -0.0254
     25 N2          0.8144  -10.7859    3.5915 N.4       1 <0>        -0.3849
     26 C21         0.9767   -9.7644    4.6338 C.3       1 <0>        -0.0199
     27 C22        -0.0729   -8.6701    4.4438 C.3       1 <0>         0.0855
     28 C23         1.7532  -11.8884    3.8386 C.3       1 <0>        -0.0474
     29 H3          0.5915    1.9184    0.0205 H         1 <0>         0.0721
     30 H4         -0.9362    1.8193   -0.8875 H         1 <0>         0.0678
     31 H5         -0.9565    1.8090    0.8923 H         1 <0>         0.0673
     32 H6         -0.2628   -0.1549   -2.1338 H         1 <0>         0.1225
     33 H7         -0.0964   -2.6116   -2.1462 H         1 <0>         0.1200
     34 H8         -0.1631   -2.6376    2.1181 H         1 <0>         0.1242
     35 H9         -0.3211   -0.1803    2.1306 H         1 <0>         0.1216
     36 H10         1.2646   -4.3310   -1.7521 H         1 <0>         0.0726
     37 H11         2.1288   -4.2808   -0.1969 H         1 <0>         0.0677
     38 H12         0.1662   -6.4457   -2.5032 H         1 <0>         0.0735
     39 H13         0.2479   -7.9020   -1.4830 H         1 <0>         0.0620
     40 H14        -2.1395   -4.5673   -0.2642 H         1 <0>         0.0676
     41 H15        -1.2279   -4.4983   -1.7914 H         1 <0>         0.0721
     42 H16        -2.0249   -6.6115    1.1679 H         1 <0>         0.0734
     43 H17        -1.0316   -7.9988    0.6608 H         1 <0>         0.0742
     44 H18         1.4609   -7.8315    0.7001 H         1 <0>         0.0657
     45 H19         2.2435   -6.3249    1.2352 H         1 <0>         0.0744
     46 H20         0.8493   -4.3776    1.9469 H         1 <0>         0.0776
     47 H21        -0.9264   -4.4968    1.9189 H         1 <0>         0.0746
     48 H22        -0.9472   -9.5921    1.8757 H         1 <0>         0.0990
     49 H23         0.2903   -8.6224    1.0336 H         1 <0>         0.1543
     50 H24         1.0401  -10.9819    1.5125 H         1 <0>         0.1457
     51 H25         2.0772   -9.7499    2.2710 H         1 <0>         0.1340
     52 H26         0.8518  -10.2230    5.6147 H         1 <0>         0.1448
     53 H27         1.9721   -9.3261    4.5614 H         1 <0>         0.1331
     54 H28         0.1108   -7.8612    5.1509 H         1 <0>         0.1362
     55 H29        -1.0664   -9.0867    4.6094 H         1 <0>         0.0947
     56 H30         2.7746  -11.5089    3.8112 H         1 <0>         0.1222
     57 H31         1.5533  -12.3232    4.8179 H         1 <0>         0.1263
     58 H32         1.6282  -12.6512    3.0700 H         1 <0>         0.1263
     59 H33        -0.1301  -11.1402    3.6137 H         1 <0>         0.4258
@<TRIPOS>BOND
     1    1    2 1
     2    1   29 1
     3    1   30 1
     4    1   31 1
     5    2    7 ar
     6    2    3 ar
     7    3    4 ar
     8    3   32 1
     9    4    5 ar
    10    4   33 1
    11    5    6 ar
    12    5    8 1
    13    6    7 ar
    14    6   34 1
    15    7   35 1
    16    8   15 1
    17    8   19 1
    18    8    9 1
    19    9   10 1
    20    9   36 1
    21    9   37 1
    22   10   11 1
    23   10   18 1
    24   10   12 1
    25   12   13 1
    26   12   38 1
    27   12   39 1
    28   13   14 1
    29   13   15 1
    30   13   16 1
    31   15   40 1
    32   15   41 1
    33   16   17 1
    34   16   42 1
    35   16   43 1
    36   17   18 1
    37   17   19 1
    38   17   20 1
    39   18   44 1
    40   18   45 1
    41   19   46 1
    42   19   47 1
    43   20   21 2
    44   20   22 am
    45   22   27 1
    46   22   23 1
    47   23   24 1
    48   23   48 1
    49   23   49 1
    50   24   25 1
    51   24   50 1
    52   24   51 1
    53   25   26 1
    54   25   28 1
    55   25   59 1
    56   26   27 1
    57   26   52 1
    58   26   53 1
    59   27   54 1
    60   27   55 1
    61   28   56 1
    62   28   57 1
    63   28   58 1
@<TRIPOS>MOLECULE
ZINC04170167
   47    51     0     0     0
SMALL
USER_CHARGES
1-adamantyl-(3,4-dihydro-2H-quinolin-1-yl)methanone
@<TRIPOS>ATOM
      1 C1         -6.0658    2.9272    0.7454 C.ar      1 <0>        -0.1397
      2 C2         -6.0531    1.6209    0.2913 C.ar      1 <0>        -0.1029
      3 C3         -4.8517    1.0006    0.0133 C.ar      1 <0>        -0.1513
      4 C4         -3.6560    1.6862    0.1955 C.ar      1 <0>         0.1539
      5 C5         -3.6697    2.9982    0.6415 C.ar      1 <0>        -0.1181
      6 C6         -4.8795    3.6130    0.9190 C.ar      1 <0>        -0.1007
      7 C7         -2.3953    3.7764    0.8366 C.3       1 <0>        -0.0782
      8 C8         -1.2055    2.8278    0.9803 C.3       1 <0>        -0.1385
      9 C9         -1.2175    1.8359   -0.1901 C.3       1 <0>         0.0800
     10 N1         -2.4466    1.0372   -0.0892 N.am      1 <0>        -0.5496
     11 C10        -2.4117   -0.2989   -0.2623 C.2       1 <0>         0.5243
     12 O1         -3.4100   -0.9613   -0.0732 O.2       1 <0>        -0.5122
     13 C11        -1.1321   -0.9700   -0.6907 C.3       1 <0>        -0.0654
     14 C12        -0.1262   -0.9329    0.4615 C.3       1 <0>        -0.1102
     15 C13         1.1729   -1.6142    0.0265 C.3       1 <0>        -0.0834
     16 C14         0.8842   -3.0683   -0.3519 C.3       1 <0>        -0.1106
     17 C15        -0.1217   -3.1054   -1.5041 C.3       1 <0>        -0.0862
     18 C16        -1.4208   -2.4241   -1.0691 C.3       1 <0>        -0.0875
     19 C17         0.4600   -2.3697   -2.7129 C.3       1 <0>        -0.1109
     20 C18         0.7487   -0.9156   -2.3345 C.3       1 <0>        -0.0832
     21 C19         1.7546   -0.8785   -1.1823 C.3       1 <0>        -0.1110
     22 C20        -0.5504   -0.2343   -1.8995 C.3       1 <0>        -0.1248
     23 H1         -7.0055    3.4123    0.9645 H         1 <0>         0.1215
     24 H2         -6.9818    1.0868    0.1548 H         1 <0>         0.1241
     25 H3         -4.8403   -0.0193   -0.3416 H         1 <0>         0.1647
     26 H4         -4.8953    4.6334    1.2723 H         1 <0>         0.1239
     27 H5         -2.2354    4.4263   -0.0237 H         1 <0>         0.0779
     28 H6         -2.4802    4.3859    1.7363 H         1 <0>         0.0808
     29 H7         -0.2781    3.4003    0.9643 H         1 <0>         0.0875
     30 H8         -1.2843    2.2832    1.9213 H         1 <0>         0.0733
     31 H9         -1.2071    2.3795   -1.1348 H         1 <0>         0.0793
     32 H10        -0.3464    1.1835   -0.1301 H         1 <0>         0.1160
     33 H11         0.0794    0.1030    0.7311 H         1 <0>         0.0749
     34 H12        -0.5407   -1.4571    1.3227 H         1 <0>         0.0711
     35 H13         1.8895   -1.5878    0.8474 H         1 <0>         0.0766
     36 H14         0.4697   -3.5925    0.5093 H         1 <0>         0.0640
     37 H15         1.8097   -3.5537   -0.6618 H         1 <0>         0.0659
     38 H16        -0.3274   -4.1413   -1.7737 H         1 <0>         0.0756
     39 H17        -1.8352   -2.9482   -0.2080 H         1 <0>         0.0730
     40 H18        -2.1374   -2.4505   -1.8900 H         1 <0>         0.0681
     41 H19         1.3855   -2.8550   -3.0228 H         1 <0>         0.0655
     42 H20        -0.2566   -2.3961   -3.5338 H         1 <0>         0.0633
     43 H21         1.1631   -0.3914   -3.1956 H         1 <0>         0.0759
     44 H22         1.9603    0.1574   -0.9127 H         1 <0>         0.0632
     45 H23         2.6801   -1.3639   -1.4921 H         1 <0>         0.0676
     46 H24        -1.2670   -0.2607   -2.7204 H         1 <0>         0.0685
     47 H25        -0.3447    0.8016   -1.6299 H         1 <0>         0.0839
@<TRIPOS>BOND
     1    1    6 ar
     2    1    2 ar
     3    1   23 1
     4    2    3 ar
     5    2   24 1
     6    3    4 ar
     7    3   25 1
     8    4   10 1
     9    4    5 ar
    10    5    6 ar
    11    5    7 1
    12    6   26 1
    13    7    8 1
    14    7   27 1
    15    7   28 1
    16    8    9 1
    17    8   29 1
    18    8   30 1
    19    9   10 1
    20    9   31 1
    21    9   32 1
    22   10   11 am
    23   11   12 2
    24   11   13 1
    25   13   18 1
    26   13   22 1
    27   13   14 1
    28   14   15 1
    29   14   33 1
    30   14   34 1
    31   15   21 1
    32   15   16 1
    33   15   35 1
    34   16   17 1
    35   16   36 1
    36   16   37 1
    37   17   18 1
    38   17   19 1
    39   17   38 1
    40   18   39 1
    41   18   40 1
    42   19   20 1
    43   19   41 1
    44   19   42 1
    45   20   21 1
    46   20   22 1
    47   20   43 1
    48   21   44 1
    49   21   45 1
    50   22   46 1
    51   22   47 1
@<TRIPOS>MOLECULE
ZINC05092562
   53    55     0     0     0
SMALL
USER_CHARGES

@<TRIPOS>ATOM
      1 C1          0.0507    1.5566    0.0255 C.3       1 <0>        -0.1397
      2 C2          0.0560    0.0266    0.0202 C.3       1 <0>        -0.0393
      3 C3          0.8028   -0.4851    1.2536 C.3       1 <0>        -0.1414
      4 C4         -1.3845   -0.4884    0.0461 C.3       1 <0>        -0.1480
      5 C5          0.7443   -0.4690   -1.2254 C.ar      1 <0>        -0.0095
      6 C6          0.0562   -1.2583   -2.1278 C.ar      1 <0>        -0.1413
      7 C7          0.6877   -1.7130   -3.2704 C.ar      1 <0>        -0.0174
      8 C8          2.0071   -1.3780   -3.5107 C.ar      1 <0>        -0.6839
      9 C9          2.6949   -0.5879   -2.6088 C.ar      1 <0>        -0.0178
     10 C10         2.0622   -0.1297   -1.4683 C.ar      1 <0>        -0.1356
     11 S1          2.8123   -1.9585   -4.9665 S.o2      1 <0>         2.6891
     12 O1          4.2056   -1.9579   -4.6876 O.2       1 <0>        -0.9502
     13 O2          2.1177   -3.1287   -5.3756 O.2       1 <0>        -0.9501
     14 N1          2.5656   -0.8244   -6.1478 N.pl3     1 <0>        -0.9970
     15 C11         1.3905   -0.9033   -7.0268 C.3       1 <0>         0.1031
     16 C12         0.6255    0.4233   -6.9427 C.3       1 <0>         0.0974
     17 N2          1.5776    1.5271   -7.1304 N.pl3     1 <0>        -0.6086
     18 C13         2.7527    1.6060   -6.2514 C.3       1 <0>         0.0978
     19 C14         3.5147    0.2825   -6.3319 C.3       1 <0>         0.1034
     20 C15         1.3695    2.4836   -8.1267 C.ar      1 <0>         0.2696
     21 C16         0.3204    2.3361   -9.0251 C.ar      1 <0>        -0.2016
     22 C17         0.1172    3.2840  -10.0087 C.ar      1 <0>        -0.0009
     23 C18         0.9568    4.3790  -10.0999 C.ar      1 <0>        -0.1131
     24 C19         2.0021    4.5289   -9.2071 C.ar      1 <0>        -0.0009
     25 C20         2.2078    3.5875   -8.2179 C.ar      1 <0>        -0.2013
     26 N3          0.7363    5.3926  -11.1556 N.pl3     1 <0>         0.0443
     27 O3         -0.1770    5.2627  -11.9370 O.2       1 <0>        -0.1728
     28 O4          1.4695    6.3505  -11.2365 O.3       1 <0>        -0.1730
     29 H1          1.0769    1.9235    0.0071 H         1 <0>         0.0591
     30 H2         -0.4813    1.9212   -0.8532 H         1 <0>         0.0573
     31 H3         -0.4472    1.9151    0.9265 H         1 <0>         0.0645
     32 H4          0.3049   -0.1266    2.1545 H         1 <0>         0.0647
     33 H5          0.8065   -1.5751    1.2498 H         1 <0>         0.0589
     34 H6          1.8290   -0.1182    1.2352 H         1 <0>         0.0596
     35 H7         -1.9166   -0.1239   -0.8326 H         1 <0>         0.0604
     36 H8         -1.3808   -1.5784    0.0423 H         1 <0>         0.0613
     37 H9         -1.8824   -0.1299    0.9470 H         1 <0>         0.0638
     38 H10        -0.9746   -1.5201   -1.9400 H         1 <0>         0.1380
     39 H11         0.1503   -2.3303   -3.9751 H         1 <0>         0.1386
     40 H12         3.7259   -0.3265   -2.7964 H         1 <0>         0.1386
     41 H13         2.5985    0.4906   -0.7655 H         1 <0>         0.1325
     42 H14         1.7127   -1.0754   -8.0538 H         1 <0>         0.0855
     43 H15         0.7448   -1.7192   -6.7019 H         1 <0>         0.1066
     44 H16        -0.1336    0.4581   -7.7242 H         1 <0>         0.1023
     45 H17         0.1518    0.5111   -5.9649 H         1 <0>         0.0784
     46 H18         3.3984    2.4218   -6.5764 H         1 <0>         0.1023
     47 H19         2.4305    1.7780   -5.2245 H         1 <0>         0.0777
     48 H20         4.2715    0.2496   -5.5481 H         1 <0>         0.1069
     49 H21         3.9917    0.1969   -7.3082 H         1 <0>         0.0850
     50 H22        -0.3355    1.4809   -8.9547 H         1 <0>         0.1463
     51 H23        -0.6981    3.1698  -10.7078 H         1 <0>         0.1523
     52 H24         2.6562    5.3852   -9.2813 H         1 <0>         0.1522
     53 H25         3.0219    3.7073   -7.5184 H         1 <0>         0.1459
@<TRIPOS>BOND
     1    1    2 1
     2    1   29 1
     3    1   30 1
     4    1   31 1
     5    2    3 1
     6    2    4 1
     7    2    5 1
     8    3   32 1
     9    3   33 1
    10    3   34 1
    11    4   35 1
    12    4   36 1
    13    4   37 1
    14    5   10 ar
    15    5    6 ar
    16    6    7 ar
    17    6   38 1
    18    7    8 ar
    19    7   39 1
    20    8    9 ar
    21    8   11 1
    22    9   10 ar
    23    9   40 1
    24   10   41 1
    25   11   12 2
    26   11   13 2
    27   11   14 1
    28   14   19 1
    29   14   15 1
    30   15   16 1
    31   15   42 1
    32   15   43 1
    33   16   17 1
    34   16   44 1
    35   16   45 1
    36   17   18 1
    37   17   20 1
    38   18   19 1
    39   18   46 1
    40   18   47 1
    41   19   48 1
    42   19   49 1
    43   20   25 ar
    44   20   21 ar
    45   21   22 ar
    46   21   50 1
    47   22   23 ar
    48   22   51 1
    49   23   24 ar
    50   23   26 1
    51   24   25 ar
    52   24   52 1
    53   25   53 1
    54   26   27 2
    55   26   28 1
@<TRIPOS>MOLECULE
ZINC20405015
   44    46     0     0     0
SMALL
USER_CHARGES

@<TRIPOS>ATOM
      1 C1          0.0043    1.5253    0.0613 C.3       1 <0>        -0.1263
      2 C2          0.0296    0.0256    0.2080 C.ar      1 <0>        -0.0274
      3 C3         -0.0950   -0.7802   -0.9082 C.ar      1 <0>        -0.1413
      4 C4         -0.0718   -2.1558   -0.7736 C.ar      1 <0>        -0.0155
      5 C5          0.0766   -2.7255    0.4771 C.ar      1 <0>        -0.6838
      6 C6          0.2022   -1.9196    1.5932 C.ar      1 <0>        -0.0154
      7 C7          0.1832   -0.5440    1.4581 C.ar      1 <0>        -0.1413
      8 S1          0.1051   -4.4789    0.6488 S.o2      1 <0>         2.6896
      9 O1         -0.2927   -4.7629    1.9831 O.2       1 <0>        -0.9533
     10 O2         -0.5782   -5.0086   -0.4790 O.2       1 <0>        -0.9533
     11 N1          1.6843   -4.9585    0.5136 N.pl3     1 <0>        -0.9924
     12 C8          2.2544   -5.2941   -0.7988 C.3       1 <0>         0.1048
     13 C9          3.5051   -4.4355   -1.0239 C.3       1 <0>         0.1332
     14 N2          4.3619   -4.5327    0.1663 N.pl3     1 <0>        -0.6656
     15 C10         3.7918   -4.1972    1.4786 C.3       1 <0>         0.1331
     16 C11         2.5426   -5.0504    1.7030 C.3       1 <0>         0.1047
     17 C12         5.6874   -4.9353    0.0527 C.ar      1 <0>         0.4318
     18 C13         6.6820   -3.9838   -0.1510 C.ar      1 <0>        -0.2407
     19 C14         7.9967   -4.3983   -0.2622 C.ar      1 <0>        -0.0223
     20 C15         8.2741   -5.7556   -0.1655 C.ar      1 <0>        -0.1785
     21 C16         7.2380   -6.6447    0.0371 C.ar      1 <0>         0.1439
     22 N3          5.9931   -6.2202    0.1448 N.ar      1 <0>        -0.4890
     23 C17         6.3312   -2.5215   -0.2497 C.3       1 <0>         0.5223
     24 F1          7.4967   -1.7751   -0.4541 F         1 <0>        -0.1791
     25 F2          5.4562   -2.3232   -1.3232 F         1 <0>        -0.1721
     26 F3          5.7151   -2.1086    0.9365 F         1 <0>        -0.1720
     27 H1          1.0184    1.8920   -0.0970 H         1 <0>         0.0798
     28 H2         -0.6175    1.7964   -0.7919 H         1 <0>         0.0734
     29 H3         -0.4064    1.9720    0.9667 H         1 <0>         0.0733
     30 H4         -0.2110   -0.3352   -1.8853 H         1 <0>         0.1327
     31 H5         -0.1699   -2.7854   -1.6456 H         1 <0>         0.1387
     32 H6          0.3178   -2.3647    2.5704 H         1 <0>         0.1387
     33 H7          0.2851    0.0856    2.3297 H         1 <0>         0.1327
     34 H8          2.5263   -6.3494   -0.8205 H         1 <0>         0.0837
     35 H9          1.5226   -5.0862   -1.5795 H         1 <0>         0.0987
     36 H10         4.0475   -4.8008   -1.8959 H         1 <0>         0.0831
     37 H11         3.2128   -3.3971   -1.1803 H         1 <0>         0.0686
     38 H12         4.5236   -4.4051    2.2593 H         1 <0>         0.0834
     39 H13         3.5199   -3.1419    1.5004 H         1 <0>         0.0681
     40 H14         2.0012   -4.6816    2.5742 H         1 <0>         0.0989
     41 H15         2.8356   -6.0879    1.8635 H         1 <0>         0.0834
     42 H16         8.7897   -3.6825   -0.4209 H         1 <0>         0.1509
     43 H17         9.2903   -6.1119   -0.2484 H         1 <0>         0.1500
     44 H18         7.4493   -7.7012    0.1125 H         1 <0>         0.1678
@<TRIPOS>BOND
     1    1    2 1
     2    1   27 1
     3    1   28 1
     4    1   29 1
     5    2    7 ar
     6    2    3 ar
     7    3    4 ar
     8    3   30 1
     9    4    5 ar
    10    4   31 1
    11    5    6 ar
    12    5    8 1
    13    6    7 ar
    14    6   32 1
    15    7   33 1
    16    8    9 2
    17    8   10 2
    18    8   11 1
    19   11   16 1
    20   11   12 1
    21   12   13 1
    22   12   34 1
    23   12   35 1
    24   13   14 1
    25   13   36 1
    26   13   37 1
    27   14   15 1
    28   14   17 1
    29   15   16 1
    30   15   38 1
    31   15   39 1
    32   16   40 1
    33   16   41 1
    34   17   22 ar
    35   17   18 ar
    36   18   19 ar
    37   18   23 1
    38   19   20 ar
    39   19   42 1
    40   20   21 ar
    41   20   43 1
    42   21   22 ar
    43   21   44 1
    44   23   24 1
    45   23   25 1
    46   23   26 1
@<TRIPOS>MOLECULE
ZINC00979201
   56    58     0     0     0
SMALL
USER_CHARGES

@<TRIPOS>ATOM
      1 C1          0.4113    1.8174   -0.5755 C.3       1 <0>        -0.1271
      2 C2          0.2436    0.3198   -0.5649 C.ar      1 <0>        -0.0237
      3 C3          0.0949   -0.3675   -1.7550 C.ar      1 <0>        -0.1388
      4 C4         -0.0589   -1.7412   -1.7453 C.ar      1 <0>        -0.0099
      5 C5         -0.0636   -2.4277   -0.5455 C.ar      1 <0>        -0.6842
      6 C6          0.0860   -1.7406    0.6446 C.ar      1 <0>        -0.0173
      7 C7          0.2441   -0.3673    0.6346 C.ar      1 <0>        -0.1396
      8 S1         -0.2609   -4.1786   -0.5330 S.o2      1 <0>         2.6841
      9 O1         -0.9435   -4.5019    0.6706 O.2       1 <0>        -0.9445
     10 O2         -0.7610   -4.5401   -1.8131 O.2       1 <0>        -0.9348
     11 N1          1.2521   -4.8409   -0.4116 N.pl3     1 <0>        -0.9297
     12 C8          1.7706   -5.2481    0.8966 C.3       1 <0>         0.1017
     13 C9          1.5033   -6.7160    1.1082 C.2       1 <0>         0.4964
     14 O3          0.9356   -7.3588    0.2507 O.2       1 <0>        -0.5242
     15 N2          1.8952   -7.3145    2.2504 N.am      1 <0>        -0.6009
     16 C10         2.5644   -6.5192    3.2554 C.3       1 <0>         0.1027
     17 C11         4.0915   -6.5345    2.9981 C.3       1 <0>        -0.1391
     18 C12         4.6503   -7.8569    3.3187 C.3       1 <0>        -0.1196
     19 C13         4.1104   -8.9933    2.4557 C.3       1 <0>        -0.1170
     20 C14         2.8180   -9.4999    3.0469 C.3       1 <0>        -0.1308
     21 C15         1.6182   -8.7536    2.4263 C.3       1 <0>         0.1101
     22 C16         2.0337   -5.0114   -1.5566 C.ar      1 <0>         0.1342
     23 C17         1.9790   -6.2048   -2.2652 C.ar      1 <0>        -0.0718
     24 C18         2.7539   -6.3700   -3.3976 C.ar      1 <0>        -0.0387
     25 C19         3.5834   -5.3476   -3.8251 C.ar      1 <0>        -0.0921
     26 C20         3.6393   -4.1590   -3.1214 C.ar      1 <0>        -0.1068
     27 C21         2.8630   -3.9857   -1.9920 C.ar      1 <0>        -0.0714
     28 C22         2.9200   -2.6870   -1.2298 C.3       1 <0>        -0.1318
     29 Cl1         2.6873   -7.8611   -4.2842 Cl        1 <0>        -0.0622
     30 H1          1.4708    2.0638   -0.6441 H         1 <0>         0.0809
     31 H2         -0.1154    2.2359   -1.4331 H         1 <0>         0.0741
     32 H3         -0.0003    2.2356    0.3431 H         1 <0>         0.0739
     33 H4          0.0985    0.1688   -2.6924 H         1 <0>         0.1346
     34 H5         -0.1758   -2.2781   -2.6751 H         1 <0>         0.1419
     35 H6          0.0820   -2.2769    1.5820 H         1 <0>         0.1370
     36 H7          0.3647    0.1691    1.5642 H         1 <0>         0.1344
     37 H8          2.8445   -5.0651    0.9348 H         1 <0>         0.1172
     38 H9          1.2759   -4.6723    1.6788 H         1 <0>         0.1192
     39 H10         2.1989   -5.4933    3.2091 H         1 <0>         0.0797
     40 H11         2.3585   -6.9332    4.2424 H         1 <0>         0.0854
     41 H12         4.2830   -6.3066    1.9495 H         1 <0>         0.0642
     42 H13         4.5701   -5.7797    3.6220 H         1 <0>         0.0780
     43 H14         5.7326   -7.8140    3.1971 H         1 <0>         0.0593
     44 H15         4.4315   -8.0811    4.3627 H         1 <0>         0.0614
     45 H16         3.9294   -8.6279    1.4449 H         1 <0>         0.0646
     46 H17         4.8385   -9.8039    2.4248 H         1 <0>         0.0640
     47 H18         2.7227  -10.5671    2.8468 H         1 <0>         0.0766
     48 H19         2.8244   -9.3353    4.1244 H         1 <0>         0.0671
     49 H20         0.7501   -8.8703    3.0751 H         1 <0>         0.0659
     50 H21         1.3929   -9.1921    1.4541 H         1 <0>         0.0916
     51 H22         1.3322   -7.0027   -1.9316 H         1 <0>         0.1540
     52 H23         4.1883   -5.4788   -4.7101 H         1 <0>         0.1381
     53 H24         4.2875   -3.3632   -3.4575 H         1 <0>         0.1386
     54 H25         3.7711   -2.7023   -0.5490 H         1 <0>         0.0775
     55 H26         3.0300   -1.8591   -1.9302 H         1 <0>         0.0741
     56 H27         2.0002   -2.5601   -0.6588 H         1 <0>         0.0739
@<TRIPOS>BOND
     1    1    2 1
     2    1   30 1
     3    1   31 1
     4    1   32 1
     5    2    7 ar
     6    2    3 ar
     7    3    4 ar
     8    3   33 1
     9    4    5 ar
    10    4   34 1
    11    5    6 ar
    12    5    8 1
    13    6    7 ar
    14    6   35 1
    15    7   36 1
    16    8    9 2
    17    8   10 2
    18    8   11 1
    19   11   12 1
    20   11   22 1
    21   12   13 1
    22   12   37 1
    23   12   38 1
    24   13   14 2
    25   13   15 am
    26   15   21 1
    27   15   16 1
    28   16   17 1
    29   16   39 1
    30   16   40 1
    31   17   18 1
    32   17   41 1
    33   17   42 1
    34   18   19 1
    35   18   43 1
    36   18   44 1
    37   19   20 1
    38   19   45 1
    39   19   46 1
    40   20   21 1
    41   20   47 1
    42   20   48 1
    43   21   49 1
    44   21   50 1
    45   22   27 ar
    46   22   23 ar
    47   23   24 ar
    48   23   51 1
    49   24   25 ar
    50   24   29 1
    51   25   26 ar
    52   25   52 1
    53   26   27 ar
    54   26   53 1
    55   27   28 1
    56   28   54 1
    57   28   55 1
    58   28   56 1
@<TRIPOS>MOLECULE
ZINC05494877
   45    49     0     0     0
SMALL
USER_CHARGES
8-(1-adamantyl)-7,9,10-triazabicyclo[5.3.0]deca-8,10-diene
@<TRIPOS>ATOM
      1 C1         -1.3389    6.4099    4.6910 C.3       1 <0>        -0.1250
      2 C2         -2.4653    5.5359    5.2341 C.3       1 <0>        -0.1239
      3 C3         -1.8809    4.4526    6.1456 C.3       1 <0>        -0.0368
      4 C4         -1.5180    3.2511    5.3118 C.2       1 <0>         0.1766
      5 N1         -1.7900    2.0035    5.5686 N.2       1 <0>        -0.2937
      6 N2         -1.3064    1.2568    4.6378 N.2       1 <0>        -0.2907
      7 C5         -0.7002    1.9984    3.7486 C.2       1 <0>         0.1857
      8 N3         -0.8297    3.2832    4.1468 N.pl3     1 <0>        -0.4631
      9 C6         -0.3386    4.4770    3.4579 C.3       1 <0>         0.0992
     10 C7         -0.0714    5.5820    4.4837 C.3       1 <0>        -0.1419
     11 C8          0.0052    1.5124    2.5088 C.3       1 <0>         0.0377
     12 C9         -0.5575    2.2373    1.2846 C.3       1 <0>        -0.1075
     13 C10         0.1586    1.7439    0.0258 C.3       1 <0>        -0.0830
     14 H1         -0.2423    2.2604   -0.8464 H         1 <0>         0.0748
     15 C11         1.6565    2.0319    0.1452 C.3       1 <0>        -0.1101
     16 C12         2.2192    1.3069    1.3694 C.3       1 <0>        -0.0834
     17 H2          3.2864    1.5121    1.4544 H         1 <0>         0.0750
     18 C13         1.5031    1.8003    2.6282 C.3       1 <0>        -0.1033
     19 C14         2.0002   -0.1995    1.2153 C.3       1 <0>        -0.1105
     20 C15         0.5023   -0.4875    1.0959 C.3       1 <0>        -0.0869
     21 H3          0.3462   -1.5606    0.9862 H         1 <0>         0.0768
     22 C16        -0.0604    0.2375   -0.1282 C.3       1 <0>        -0.1107
     23 C17        -0.2139    0.0060    2.3547 C.3       1 <0>        -0.0894
     24 H4         -1.1326    7.2121    5.3995 H         1 <0>         0.0748
     25 H5         -1.6461    6.8420    3.7387 H         1 <0>         0.0700
     26 H6         -3.1611    6.1525    5.8031 H         1 <0>         0.0818
     27 H7         -2.9926    5.0661    4.4038 H         1 <0>         0.0643
     28 H8         -0.9886    4.8354    6.6410 H         1 <0>         0.0920
     29 H9         -2.6201    4.1684    6.8944 H         1 <0>         0.1004
     30 H10         0.5854    4.2387    2.9313 H         1 <0>         0.0985
     31 H11        -1.0872    4.8178    2.7427 H         1 <0>         0.0894
     32 H12         0.2274    5.1330    5.4309 H         1 <0>         0.0817
     33 H13         0.7282    6.2278    4.1210 H         1 <0>         0.0889
     34 H14        -0.4015    3.3105    1.3943 H         1 <0>         0.0623
     35 H15        -1.6247    2.0322    1.1995 H         1 <0>         0.0674
     36 H16         2.1667    1.6804   -0.7516 H         1 <0>         0.0674
     37 H17         1.8125    3.1051    0.2549 H         1 <0>         0.0611
     38 H18         1.9040    1.2838    3.5003 H         1 <0>         0.0692
     39 H19         1.6591    2.8735    2.7379 H         1 <0>         0.0605
     40 H20         2.4011   -0.7160    2.0875 H         1 <0>         0.0647
     41 H21         2.5104   -0.5510    0.3186 H         1 <0>         0.0657
     42 H22        -1.1276    0.0324   -0.2133 H         1 <0>         0.0639
     43 H23         0.4497   -0.1140   -1.0250 H         1 <0>         0.0657
     44 H24        -1.2810   -0.1992    2.2697 H         1 <0>         0.0705
     45 H25         0.1870   -0.5105    3.2269 H         1 <0>         0.0739
@<TRIPOS>BOND
     1    1   10 1
     2    1    2 1
     3    1   24 1
     4    1   25 1
     5    2    3 1
     6    2   26 1
     7    2   27 1
     8    3    4 1
     9    3   28 1
    10    3   29 1
    11    4    8 1
    12    4    5 2
    13    5    6 1
    14    6    7 2
    15    7    8 1
    16    7   11 1
    17    8    9 1
    18    9   10 1
    19    9   30 1
    20    9   31 1
    21   10   32 1
    22   10   33 1
    23   11   18 1
    24   11   23 1
    25   11   12 1
    26   12   13 1
    27   12   34 1
    28   12   35 1
    29   13   14 1
    30   13   22 1
    31   13   15 1
    32   15   16 1
    33   15   36 1
    34   15   37 1
    35   16   17 1
    36   16   18 1
    37   16   19 1
    38   18   38 1
    39   18   39 1
    40   19   20 1
    41   19   40 1
    42   19   41 1
    43   20   21 1
    44   20   22 1
    45   20   23 1
    46   22   42 1
    47   22   43 1
    48   23   44 1
    49   23   45 1
@<TRIPOS>MOLECULE
ZINC07979162
   53    55     0     0     0
SMALL
USER_CHARGES

@<TRIPOS>ATOM
      1 C1         -0.0187    1.5258    0.0104 C.3       1 <0>        -0.1390
      2 C2          0.0021   -0.0041    0.0020 C.3       1 <0>        -0.0383
      3 C3          0.7421   -0.5109    1.2415 C.3       1 <0>        -0.1412
      4 C4         -1.4333   -0.5336    0.0129 C.3       1 <0>        -0.1474
      5 C5          0.7074   -0.4901   -1.2379 C.ar      1 <0>        -0.0133
      6 C6          0.0361   -1.2843   -2.1485 C.ar      1 <0>        -0.1423
      7 C7          0.6831   -1.7301   -3.2859 C.ar      1 <0>        -0.0168
      8 C8          2.0014   -1.3813   -3.5127 C.ar      1 <0>        -0.6810
      9 C9          2.6724   -0.5863   -2.6025 C.ar      1 <0>        -0.0172
     10 C10         2.0241   -0.1370   -1.4673 C.ar      1 <0>        -0.1367
     11 S1          2.8264   -1.9505   -4.9618 S.o2      1 <0>         2.6883
     12 O1          4.2169   -1.9365   -4.6694 O.2       1 <0>        -0.9542
     13 O2          2.1477   -3.1268   -5.3801 O.2       1 <0>        -0.9541
     14 N1          2.5798   -0.8164   -6.1431 N.pl3     1 <0>        -0.9826
     15 C11         1.4140   -0.9053   -7.0336 C.3       1 <0>         0.1057
     16 C12         0.6350    0.4134   -6.9542 C.3       1 <0>         0.1354
     17 N2          1.5776    1.5271   -7.1304 N.pl3     1 <0>        -0.6726
     18 C13         2.7433    1.6160   -6.2399 C.3       1 <0>         0.1354
     19 C14         3.5194    0.3004   -6.3157 C.3       1 <0>         0.1057
     20 C15         1.3695    2.4836   -8.1267 C.ar      1 <0>         0.2407
     21 C16         0.6304    3.6271   -7.8506 C.ar      1 <0>        -0.1272
     22 C17         0.4270    4.5710   -8.8377 C.ar      1 <0>        -0.0619
     23 C18         0.9581    4.3790  -10.1002 C.ar      1 <0>        -0.1219
     24 C19         1.6938    3.2419  -10.3786 C.ar      1 <0>        -0.0522
     25 C20         1.9059    2.2965   -9.3941 C.ar      1 <0>        -0.0627
     26 N3          2.6987    1.0826   -9.6913 N.pl3     1 <0>         0.0347
     27 O3          3.1653    0.9204  -10.7948 O.2       1 <0>        -0.1842
     28 O4          2.8798    0.2531   -8.8305 O.3       1 <0>        -0.1288
     29 H1          1.0039    1.9031    0.0027 H         1 <0>         0.0588
     30 H2         -0.5459    1.8868   -0.8726 H         1 <0>         0.0571
     31 H3         -0.5289    1.8773    0.9072 H         1 <0>         0.0631
     32 H4          0.2319   -0.1594    2.1383 H         1 <0>         0.0634
     33 H5          0.7568   -1.6008    1.2356 H         1 <0>         0.0587
     34 H6          1.7647   -0.1336    1.2338 H         1 <0>         0.0594
     35 H7         -1.9605   -0.1726   -0.8702 H         1 <0>         0.0602
     36 H8         -1.4185   -1.6235    0.0069 H         1 <0>         0.0611
     37 H9         -1.9435   -0.1821    0.9097 H         1 <0>         0.0625
     38 H10        -0.9938   -1.5568   -1.9713 H         1 <0>         0.1361
     39 H11         0.1588   -2.3512   -3.9970 H         1 <0>         0.1380
     40 H12         3.7024   -0.3141   -2.7796 H         1 <0>         0.1379
     41 H13         2.5473    0.4872   -0.7580 H         1 <0>         0.1306
     42 H14         1.7479   -1.0719   -8.0578 H         1 <0>         0.0970
     43 H15         0.7735   -1.7283   -6.7167 H         1 <0>         0.0922
     44 H16        -0.1168    0.4422   -7.7429 H         1 <0>         0.0760
     45 H17         0.1510    0.4943   -5.9809 H         1 <0>         0.0628
     46 H18         3.3839    2.4390   -6.5569 H         1 <0>         0.0763
     47 H19         2.4094    1.7825   -5.2158 H         1 <0>         0.0624
     48 H20         4.2688    0.2735   -5.5247 H         1 <0>         0.0923
     49 H21         4.0066    0.2217   -7.2875 H         1 <0>         0.0964
     50 H22         0.2151    3.7774   -6.8650 H         1 <0>         0.1453
     51 H23        -0.1478    5.4600   -8.6237 H         1 <0>         0.1431
     52 H24         0.7976    5.1188  -10.8704 H         1 <0>         0.1468
     53 H25         2.1066    3.0948  -11.3657 H         1 <0>         0.1525
@<TRIPOS>BOND
     1    1    2 1
     2    1   29 1
     3    1   30 1
     4    1   31 1
     5    2    3 1
     6    2    4 1
     7    2    5 1
     8    3   32 1
     9    3   33 1
    10    3   34 1
    11    4   35 1
    12    4   36 1
    13    4   37 1
    14    5   10 ar
    15    5    6 ar
    16    6    7 ar
    17    6   38 1
    18    7    8 ar
    19    7   39 1
    20    8    9 ar
    21    8   11 1
    22    9   10 ar
    23    9   40 1
    24   10   41 1
    25   11   12 2
    26   11   13 2
    27   11   14 1
    28   14   19 1
    29   14   15 1
    30   15   16 1
    31   15   42 1
    32   15   43 1
    33   16   17 1
    34   16   44 1
    35   16   45 1
    36   17   18 1
    37   17   20 1
    38   18   19 1
    39   18   46 1
    40   18   47 1
    41   19   48 1
    42   19   49 1
    43   20   25 ar
    44   20   21 ar
    45   21   22 ar
    46   21   50 1
    47   22   23 ar
    48   22   51 1
    49   23   24 ar
    50   23   52 1
    51   24   25 ar
    52   24   53 1
    53   25   26 1
    54   26   27 2
    55   26   28 1
@<TRIPOS>MOLECULE
ZINC00711821
   51    54     0     0     0
SMALL
USER_CHARGES
isobutyl 4-(9-oxofluoren-3-yl)carbonylaminobenzoate
@<TRIPOS>ATOM
      1 C1         -3.3375    7.9186    1.3250 C.3       1 <0>        -0.1492
      2 C2         -2.6440    8.2997    0.0156 C.3       1 <0>        -0.0959
      3 C3         -2.5923    9.8237   -0.1093 C.3       1 <0>        -0.1476
      4 C4         -1.2205    7.7390    0.0103 C.3       1 <0>         0.0716
      5 O1         -1.2718    6.2879    0.0096 O.3       1 <0>        -0.3509
      6 C5         -0.0936    5.6341    0.0051 C.2       1 <0>         0.5111
      7 O2          0.9482    6.2594    0.0020 O.2       1 <0>        -0.5074
      8 C6         -0.0686    4.1597    0.0041 C.ar      1 <0>        -0.1425
      9 C7          1.1530    3.4797   -0.0005 C.ar      1 <0>        -0.0323
     10 C8          1.1727    2.1035   -0.0010 C.ar      1 <0>        -0.1552
     11 C9         -0.0216    1.3888    0.0030 C.ar      1 <0>         0.1803
     12 C10        -1.2394    2.0625    0.0022 C.ar      1 <0>        -0.1352
     13 C11        -1.2664    3.4386    0.0081 C.ar      1 <0>        -0.0394
     14 N1          0.0021   -0.0041    0.0020 N.am      1 <0>        -0.6677
     15 C12        -0.9384   -0.6945    0.6768 C.2       1 <0>         0.5623
     16 O3         -1.8545   -0.1056    1.2162 O.2       1 <0>        -0.5015
     17 C13        -0.8554   -2.1694    0.7610 C.ar      1 <0>        -0.1052
     18 C14         0.1927   -2.8440    0.1372 C.ar      1 <0>        -0.0890
     19 C15         0.2765   -4.2224    0.2186 C.ar      1 <0>        -0.0507
     20 C16        -0.6910   -4.9392    0.9134 C.ar      1 <0>        -0.1428
     21 C17        -1.7534   -4.2662    1.5398 C.ar      1 <0>        -0.0255
     22 C18        -1.8315   -2.8843    1.4612 C.ar      1 <0>        -0.0400
     23 C19        -2.6278   -5.2702    2.2010 C.ar      1 <0>        -0.0258
     24 C20        -3.7926   -5.1367    2.9439 C.ar      1 <0>        -0.0971
     25 C21        -4.4211   -6.2606    3.4563 C.ar      1 <0>        -0.0829
     26 C22        -3.8963   -7.5190    3.2329 C.ar      1 <0>        -0.1208
     27 C23        -2.7350   -7.6694    2.4939 C.ar      1 <0>        -0.0432
     28 C24        -2.0944   -6.5496    1.9746 C.ar      1 <0>        -0.1742
     29 C25        -0.8655   -6.3921    1.1625 C.2       1 <0>         0.4481
     30 O4         -0.1384   -7.2832    0.7737 O.2       1 <0>        -0.4106
     31 H1         -2.7805    8.3333    2.1652 H         1 <0>         0.0549
     32 H2         -4.3516    8.3180    1.3287 H         1 <0>         0.0590
     33 H3         -3.3743    6.8328    1.4140 H         1 <0>         0.0623
     34 H4         -3.2009    7.8850   -0.8246 H         1 <0>         0.0829
     35 H5         -2.0982   10.0953   -1.0422 H         1 <0>         0.0589
     36 H6         -3.6064   10.2232   -0.1056 H         1 <0>         0.0667
     37 H7         -2.0354   10.2385    0.7309 H         1 <0>         0.0592
     38 H8         -0.6911    8.0833    0.8988 H         1 <0>         0.0722
     39 H9         -0.6971    8.0845   -0.8812 H         1 <0>         0.0719
     40 H10         2.0801    4.0336   -0.0033 H         1 <0>         0.1438
     41 H11         2.1160    1.5775   -0.0042 H         1 <0>         0.1385
     42 H12        -2.1643    1.5049    0.0012 H         1 <0>         0.1490
     43 H13        -2.2118    3.9608    0.0121 H         1 <0>         0.1434
     44 H14         0.6954   -0.4770   -0.4843 H         1 <0>         0.4151
     45 H15         0.9430   -2.2894   -0.4068 H         1 <0>         0.1399
     46 H16         1.0917   -4.7426   -0.2621 H         1 <0>         0.1455
     47 H17        -2.6457   -2.3607    1.9400 H         1 <0>         0.1486
     48 H18        -4.2096   -4.1565    3.1224 H         1 <0>         0.1353
     49 H19        -5.3273   -6.1521    4.0338 H         1 <0>         0.1375
     50 H20        -4.3940   -8.3887    3.6358 H         1 <0>         0.1380
     51 H21        -2.3273   -8.6545    2.3214 H         1 <0>         0.1366
@<TRIPOS>BOND
     1    1    2 1
     2    1   31 1
     3    1   32 1
     4    1   33 1
     5    2    3 1
     6    2    4 1
     7    2   34 1
     8    3   35 1
     9    3   36 1
    10    3   37 1
    11    4    5 1
    12    4   38 1
    13    4   39 1
    14    5    6 1
    15    6    7 2
    16    6    8 1
    17    8   13 ar
    18    8    9 ar
    19    9   10 ar
    20    9   40 1
    21   10   11 ar
    22   10   41 1
    23   11   12 ar
    24   11   14 1
    25   12   13 ar
    26   12   42 1
    27   13   43 1
    28   14   15 am
    29   14   44 1
    30   15   16 2
    31   15   17 1
    32   17   22 ar
    33   17   18 ar
    34   18   19 ar
    35   18   45 1
    36   19   20 ar
    37   19   46 1
    38   20   29 1
    39   20   21 ar
    40   21   22 ar
    41   21   23 1
    42   22   47 1
    43   23   28 ar
    44   23   24 ar
    45   24   25 ar
    46   24   48 1
    47   25   26 ar
    48   25   49 1
    49   26   27 ar
    50   26   50 1
    51   27   28 ar
    52   27   51 1
    53   28   29 1
    54   29   30 2
@<TRIPOS>MOLECULE
ZINC20405018
   41    43     0     0     0
SMALL
USER_CHARGES

@<TRIPOS>ATOM
      1 C1         -0.0516    1.2961    0.1394 C.ar      1 <0>        -0.1784
      2 C2          0.4574    1.0920   -1.1365 C.ar      1 <0>        -0.0218
      3 C3          1.6856    0.4694   -1.2653 C.ar      1 <0>        -0.2393
      4 C4          2.3657    0.0708   -0.1188 C.ar      1 <0>         0.4314
      5 N1          1.8468    0.2834    1.0805 N.ar      1 <0>        -0.4901
      6 C5          0.6771    0.8750    1.2334 C.ar      1 <0>         0.1429
      7 N2          3.6008   -0.5565   -0.2336 N.pl3     1 <0>        -0.6670
      8 C6          4.8417    0.2309   -0.2427 C.3       1 <0>         0.1367
      9 C7          5.7623   -0.2923    0.8668 C.3       1 <0>         0.1019
     10 N3          5.8507   -1.7549    0.7529 N.pl3     1 <0>        -0.9921
     11 C8          4.6098   -2.5423    0.7619 C.3       1 <0>         0.1019
     12 C9          3.6895   -2.0194   -0.3419 C.3       1 <0>         0.1367
     13 S1          7.3221   -2.5022    0.6161 S.o2      1 <0>         2.6898
     14 O1          7.0855   -3.7521   -0.0173 O.2       1 <0>        -0.9484
     15 O2          8.2200   -1.5371    0.0855 O.2       1 <0>        -0.9484
     16 C10         7.8773   -2.8624    2.2491 C.ar      1 <0>        -0.6777
     17 C11         8.6356   -1.9365    2.9410 C.ar      1 <0>        -0.0068
     18 C12         9.0713   -2.2184    4.2220 C.ar      1 <0>        -0.1311
     19 C13         8.7485   -3.4275    4.8118 C.ar      1 <0>         0.0174
     20 C14         7.9895   -4.3538    4.1189 C.ar      1 <0>        -0.1311
     21 C15         7.5495   -4.0684    2.8401 C.ar      1 <0>        -0.0068
     22 Cl1         9.2959   -3.7825    6.4205 Cl        1 <0>        -0.0518
     23 C16         2.2790    0.2255   -2.6290 C.3       1 <0>         0.5218
     24 F1          1.4096    0.7143   -3.6100 F         1 <0>        -0.1788
     25 F2          3.5096    0.8836   -2.7266 F         1 <0>        -0.1713
     26 F3          2.4684   -1.1479   -2.8162 F         1 <0>        -0.1713
     27 H1         -1.0059    1.7834    0.2745 H         1 <0>         0.1498
     28 H2         -0.0936    1.4120   -2.0085 H         1 <0>         0.1514
     29 H3          0.2851    1.0321    2.2274 H         1 <0>         0.1672
     30 H4          5.3356    0.1243   -1.2085 H         1 <0>         0.0725
     31 H5          4.6103    1.2805   -0.0613 H         1 <0>         0.0841
     32 H6          6.7548    0.1440    0.7547 H         1 <0>         0.1018
     33 H7          5.3504   -0.0255    1.8401 H         1 <0>         0.0782
     34 H8          4.8412   -3.5919    0.5806 H         1 <0>         0.1021
     35 H9          4.1159   -2.4356    1.7277 H         1 <0>         0.0779
     36 H10         2.6973   -2.4557   -0.2261 H         1 <0>         0.0841
     37 H11         4.0995   -2.2900   -1.3150 H         1 <0>         0.0721
     38 H12         8.8879   -0.9928    2.4804 H         1 <0>         0.1497
     39 H13         9.6641   -1.4951    4.7623 H         1 <0>         0.1455
     40 H14         7.7374   -5.2979    4.5787 H         1 <0>         0.1455
     41 H15         6.9531   -4.7894    2.3009 H         1 <0>         0.1498
@<TRIPOS>BOND
     1    1    6 ar
     2    1    2 ar
     3    1   27 1
     4    2    3 ar
     5    2   28 1
     6    3    4 ar
     7    3   23 1
     8    4    5 ar
     9    4    7 1
    10    5    6 ar
    11    6   29 1
    12    7   12 1
    13    7    8 1
    14    8    9 1
    15    8   30 1
    16    8   31 1
    17    9   10 1
    18    9   32 1
    19    9   33 1
    20   10   11 1
    21   10   13 1
    22   11   12 1
    23   11   34 1
    24   11   35 1
    25   12   36 1
    26   12   37 1
    27   13   14 2
    28   13   15 2
    29   13   16 1
    30   16   21 ar
    31   16   17 ar
    32   17   18 ar
    33   17   38 1
    34   18   19 ar
    35   18   39 1
    36   19   20 ar
    37   19   22 1
    38   20   21 ar
    39   20   40 1
    40   21   41 1
    41   23   24 1
    42   23   25 1
    43   23   26 1
@<TRIPOS>MOLECULE
ZINC00714227
   51    53     0     0     0
SMALL
USER_CHARGES

@<TRIPOS>ATOM
      1 C1          0.0511    1.5568    0.0256 C.3       1 <0>        -0.1397
      2 C2          0.0563    0.0268    0.0203 C.3       1 <0>        -0.0390
      3 C3          0.8031   -0.4850    1.2537 C.3       1 <0>        -0.1412
      4 C4         -1.3842   -0.4882    0.0463 C.3       1 <0>        -0.1479
      5 C5          0.7445   -0.4689   -1.2253 C.ar      1 <0>        -0.0106
      6 C6          0.0563   -1.2582   -2.1277 C.ar      1 <0>        -0.1415
      7 C7          0.6877   -1.7129   -3.2703 C.ar      1 <0>        -0.0171
      8 C8          2.0071   -1.3780   -3.5107 C.ar      1 <0>        -0.6828
      9 C9          2.6951   -0.5879   -2.6088 C.ar      1 <0>        -0.0175
     10 C10         2.0624   -0.1297   -1.4683 C.ar      1 <0>        -0.1359
     11 S1          2.8122   -1.9585   -4.9666 S.o2      1 <0>         2.6892
     12 O1          4.2056   -1.9581   -4.6877 O.2       1 <0>        -0.9521
     13 O2          2.1175   -3.1287   -5.3756 O.2       1 <0>        -0.9520
     14 N1          2.5655   -0.8244   -6.1478 N.pl3     1 <0>        -0.9952
     15 C11         1.3904   -0.9033   -7.0268 C.3       1 <0>         0.1031
     16 C12         0.6255    0.4234   -6.9426 C.3       1 <0>         0.1050
     17 N2          1.5776    1.5271   -7.1304 N.pl3     1 <0>        -0.6242
     18 C13         2.7528    1.6060   -6.2515 C.3       1 <0>         0.1053
     19 C14         3.5147    0.2824   -6.3320 C.3       1 <0>         0.1034
     20 C15         1.3693    2.4846   -8.1278 C.ar      1 <0>         0.2113
     21 C16         2.2112    3.5851   -8.2220 C.ar      1 <0>        -0.1722
     22 C17         2.0039    4.5295   -9.2083 C.ar      1 <0>        -0.1010
     23 C18         0.9576    4.3797  -10.1027 C.ar      1 <0>         0.0364
     24 C19         0.1169    3.2833  -10.0107 C.ar      1 <0>        -0.1010
     25 C20         0.3237    2.3337   -9.0293 C.ar      1 <0>        -0.1724
     26 F1          0.7563    5.3049  -11.0664 F         1 <0>        -0.1457
     27 H1          1.0773    1.9236    0.0071 H         1 <0>         0.0591
     28 H2         -0.4810    1.9213   -0.8531 H         1 <0>         0.0577
     29 H3         -0.4467    1.9153    0.9266 H         1 <0>         0.0640
     30 H4          0.3053   -0.1264    2.1546 H         1 <0>         0.0642
     31 H5          0.8068   -1.5750    1.2499 H         1 <0>         0.0587
     32 H6          1.8294   -0.1181    1.2352 H         1 <0>         0.0595
     33 H7         -1.9163   -0.1236   -0.8324 H         1 <0>         0.0606
     34 H8         -1.3806   -1.5782    0.0425 H         1 <0>         0.0611
     35 H9         -1.8821   -0.1296    0.9472 H         1 <0>         0.0633
     36 H10        -0.9745   -1.5199   -1.9399 H         1 <0>         0.1375
     37 H11         0.1502   -2.3301   -3.9750 H         1 <0>         0.1384
     38 H12         3.7260   -0.3265   -2.7965 H         1 <0>         0.1384
     39 H13         2.5988    0.4906   -0.7655 H         1 <0>         0.1320
     40 H14         1.7125   -1.0754   -8.0537 H         1 <0>         0.0834
     41 H15         0.7446   -1.7191   -6.7018 H         1 <0>         0.1024
     42 H16        -0.1336    0.4582   -7.7240 H         1 <0>         0.0978
     43 H17         0.1519    0.5112   -5.9649 H         1 <0>         0.0700
     44 H18         3.3985    2.4217   -6.5765 H         1 <0>         0.0979
     45 H19         2.4306    1.7780   -5.2245 H         1 <0>         0.0693
     46 H20         4.2715    0.2495   -5.5482 H         1 <0>         0.1026
     47 H21         3.9916    0.1967   -7.3083 H         1 <0>         0.0830
     48 H22         3.0272    3.7025   -7.5243 H         1 <0>         0.1326
     49 H23         2.6581    5.3856   -9.2817 H         1 <0>         0.1344
     50 H24        -0.6987    3.1686  -10.7092 H         1 <0>         0.1345
     51 H25        -0.3295    1.4763   -8.9607 H         1 <0>         0.1330
@<TRIPOS>BOND
     1    1    2 1
     2    1   27 1
     3    1   28 1
     4    1   29 1
     5    2    3 1
     6    2    4 1
     7    2    5 1
     8    3   30 1
     9    3   31 1
    10    3   32 1
    11    4   33 1
    12    4   34 1
    13    4   35 1
    14    5   10 ar
    15    5    6 ar
    16    6    7 ar
    17    6   36 1
    18    7    8 ar
    19    7   37 1
    20    8    9 ar
    21    8   11 1
    22    9   10 ar
    23    9   38 1
    24   10   39 1
    25   11   12 2
    26   11   13 2
    27   11   14 1
    28   14   19 1
    29   14   15 1
    30   15   16 1
    31   15   40 1
    32   15   41 1
    33   16   17 1
    34   16   42 1
    35   16   43 1
    36   17   18 1
    37   17   20 1
    38   18   19 1
    39   18   44 1
    40   18   45 1
    41   19   46 1
    42   19   47 1
    43   20   25 ar
    44   20   21 ar
    45   21   22 ar
    46   21   48 1
    47   22   23 ar
    48   22   49 1
    49   23   24 ar
    50   23   26 1
    51   24   25 ar
    52   24   50 1
    53   25   51 1
@<TRIPOS>MOLECULE
ZINC02852414
   51    53     0     0     0
SMALL
USER_CHARGES

@<TRIPOS>ATOM
      1 C1         -0.0187    1.5258    0.0104 C.3       1 <0>        -0.1393
      2 C2          0.0021   -0.0041    0.0020 C.3       1 <0>        -0.0385
      3 C3          0.7421   -0.5109    1.2415 C.3       1 <0>        -0.1411
      4 C4         -1.4333   -0.5336    0.0129 C.3       1 <0>        -0.1475
      5 C5          0.7074   -0.4901   -1.2379 C.ar      1 <0>        -0.0120
      6 C6          0.0361   -1.2843   -2.1485 C.ar      1 <0>        -0.1418
      7 C7          0.6831   -1.7301   -3.2859 C.ar      1 <0>        -0.0164
      8 C8          2.0014   -1.3813   -3.5127 C.ar      1 <0>        -0.6807
      9 C9          2.6724   -0.5863   -2.6025 C.ar      1 <0>        -0.0168
     10 C10         2.0241   -0.1370   -1.4673 C.ar      1 <0>        -0.1362
     11 S1          2.8264   -1.9505   -4.9618 S.o2      1 <0>         2.6882
     12 O1          4.2169   -1.9365   -4.6694 O.2       1 <0>        -0.9543
     13 O2          2.1477   -3.1268   -5.3801 O.2       1 <0>        -0.9543
     14 N1          2.5798   -0.8164   -6.1431 N.pl3     1 <0>        -0.9903
     15 C11         1.4140   -0.9053   -7.0336 C.3       1 <0>         0.1023
     16 C12         0.6350    0.4134   -6.9542 C.3       1 <0>         0.1334
     17 N2          1.5776    1.5271   -7.1304 N.pl3     1 <0>        -0.6702
     18 C13         2.7433    1.6160   -6.2399 C.3       1 <0>         0.1332
     19 C14         3.5194    0.3004   -6.3157 C.3       1 <0>         0.1023
     20 C15         1.3694    2.4841   -8.1273 C.ar      1 <0>         0.1781
     21 C16         0.6306    3.6272   -7.8513 C.ar      1 <0>        -0.1125
     22 C17         0.4270    4.5715   -8.8385 C.ar      1 <0>        -0.1098
     23 C18         0.9574    4.3799  -10.1012 C.ar      1 <0>        -0.1104
     24 C19         1.6936    3.2433  -10.3803 C.ar      1 <0>        -0.1074
     25 C20         1.9061    2.2970   -9.3956 C.ar      1 <0>        -0.0441
     26 Cl1         2.8361    0.8732   -9.7445 Cl        1 <0>        -0.0613
     27 H1          1.0039    1.9031    0.0027 H         1 <0>         0.0589
     28 H2         -0.5459    1.8868   -0.8726 H         1 <0>         0.0576
     29 H3         -0.5289    1.8773    0.9072 H         1 <0>         0.0633
     30 H4          0.2319   -0.1594    2.1383 H         1 <0>         0.0637
     31 H5          0.7568   -1.6008    1.2356 H         1 <0>         0.0585
     32 H6          1.7647   -0.1336    1.2338 H         1 <0>         0.0594
     33 H7         -1.9605   -0.1726   -0.8702 H         1 <0>         0.0605
     34 H8         -1.4185   -1.6235    0.0069 H         1 <0>         0.0609
     35 H9         -1.9435   -0.1821    0.9097 H         1 <0>         0.0628
     36 H10        -0.9938   -1.5568   -1.9713 H         1 <0>         0.1366
     37 H11         0.1588   -2.3512   -3.9970 H         1 <0>         0.1378
     38 H12         3.7024   -0.3141   -2.7796 H         1 <0>         0.1378
     39 H13         2.5473    0.4872   -0.7580 H         1 <0>         0.1311
     40 H14         1.7479   -1.0719   -8.0578 H         1 <0>         0.0806
     41 H15         0.7735   -1.7283   -6.7167 H         1 <0>         0.0958
     42 H16        -0.1169    0.4422   -7.7429 H         1 <0>         0.0817
     43 H17         0.1510    0.4943   -5.9809 H         1 <0>         0.0592
     44 H18         3.3839    2.4390   -6.5569 H         1 <0>         0.0820
     45 H19         2.4094    1.7825   -5.2158 H         1 <0>         0.0587
     46 H20         4.2688    0.2735   -5.5247 H         1 <0>         0.0959
     47 H21         4.0066    0.2217   -7.2875 H         1 <0>         0.0803
     48 H22         0.2153    3.7775   -6.8657 H         1 <0>         0.1303
     49 H23        -0.1475    5.4605   -8.6241 H         1 <0>         0.1291
     50 H24         0.7959    5.1198  -10.8713 H         1 <0>         0.1317
     51 H25         2.1062    3.0966  -11.3676 H         1 <0>         0.1330
@<TRIPOS>BOND
     1    1    2 1
     2    1   27 1
     3    1   28 1
     4    1   29 1
     5    2    3 1
     6    2    4 1
     7    2    5 1
     8    3   30 1
     9    3   31 1
    10    3   32 1
    11    4   33 1
    12    4   34 1
    13    4   35 1
    14    5   10 ar
    15    5    6 ar
    16    6    7 ar
    17    6   36 1
    18    7    8 ar
    19    7   37 1
    20    8    9 ar
    21    8   11 1
    22    9   10 ar
    23    9   38 1
    24   10   39 1
    25   11   12 2
    26   11   13 2
    27   11   14 1
    28   14   19 1
    29   14   15 1
    30   15   16 1
    31   15   40 1
    32   15   41 1
    33   16   17 1
    34   16   42 1
    35   16   43 1
    36   17   18 1
    37   17   20 1
    38   18   19 1
    39   18   44 1
    40   18   45 1
    41   19   46 1
    42   19   47 1
    43   20   25 ar
    44   20   21 ar
    45   21   22 ar
    46   21   48 1
    47   22   23 ar
    48   22   49 1
    49   23   24 ar
    50   23   50 1
    51   24   25 ar
    52   24   51 1
    53   25   26 1
@<TRIPOS>MOLECULE
ZINC13949037
   54    56     0     0     0
SMALL
USER_CHARGES

@<TRIPOS>ATOM
      1 C1         -0.0184    1.5028    0.0103 C.3       1 <0>        -0.1088
      2 C2          0.0021   -0.0041    0.0020 C.ar      1 <0>        -0.0907
      3 C3          0.0057   -0.6889   -1.1975 C.ar      1 <0>        -0.1159
      4 C4          0.0240   -2.0714   -1.2060 C.ar      1 <0>        -0.1194
      5 C5          0.0391   -2.7733   -0.0143 C.ar      1 <0>        -0.1208
      6 C6          0.0360   -2.0949    1.1884 C.ar      1 <0>        -0.1216
      7 C7          0.0230   -0.7057    1.2005 C.ar      1 <0>         0.1667
      8 N1          0.0251   -0.0163    2.4152 N.pl3     1 <0>        -0.6729
      9 C8         -1.2385    0.3303    3.0808 C.3       1 <0>         0.1342
     10 C9         -1.2118   -0.2329    4.5071 C.3       1 <0>         0.1015
     11 N2          0.0541    0.1585    5.1428 N.pl3     1 <0>        -0.9927
     12 C10         1.3178   -0.1881    4.4773 C.3       1 <0>         0.1014
     13 C11         1.2911    0.3701    3.0538 C.3       1 <0>         0.1351
     14 S1          0.0567    0.9758    6.5830 S.o2      1 <0>         2.6884
     15 O1          1.2908    1.6771    6.6499 O.2       1 <0>        -0.9540
     16 O2         -1.1994    1.6335    6.6790 O.2       1 <0>        -0.9540
     17 C12         0.0928   -0.2306    7.8667 C.ar      1 <0>        -0.6824
     18 C13        -1.0899   -0.7290    8.3803 C.ar      1 <0>        -0.0176
     19 C14        -1.0615   -1.6755    9.3874 C.ar      1 <0>        -0.1368
     20 C15         0.1495   -2.1240    9.8805 C.ar      1 <0>        -0.0122
     21 C16         1.3322   -1.6263    9.3663 C.ar      1 <0>        -0.1424
     22 C17         1.3039   -0.6829    8.3562 C.ar      1 <0>        -0.0172
     23 C18         0.1804   -3.1551   10.9791 C.3       1 <0>        -0.0388
     24 C19        -0.5193   -4.4295   10.5022 C.3       1 <0>        -0.1399
     25 C20         1.6330   -3.4746   11.3380 C.3       1 <0>        -0.1478
     26 C21        -0.5412   -2.6081   12.2124 C.3       1 <0>        -0.1411
     27 H1          1.0042    1.8801    0.0026 H         1 <0>         0.0669
     28 H2         -0.5455    1.8639   -0.8728 H         1 <0>         0.0618
     29 H3         -0.5286    1.8543    0.9071 H         1 <0>         0.0689
     30 H4         -0.0060   -0.1439   -2.1298 H         1 <0>         0.1214
     31 H5          0.0261   -2.6044   -2.1453 H         1 <0>         0.1211
     32 H6          0.0529   -3.8531   -0.0245 H         1 <0>         0.1206
     33 H7          0.0474   -2.6436    2.1185 H         1 <0>         0.1194
     34 H8         -1.3474    1.4143    3.1174 H         1 <0>         0.0595
     35 H9         -2.0730   -0.1052    2.5311 H         1 <0>         0.0829
     36 H10        -2.0479    0.1731    5.0764 H         1 <0>         0.0983
     37 H11        -1.2830   -1.3200    4.4725 H         1 <0>         0.0723
     38 H12         2.1522    0.2474    5.0270 H         1 <0>         0.0987
     39 H13         1.4266   -1.2721    4.4406 H         1 <0>         0.0719
     40 H14         2.1269   -0.0391    2.4862 H         1 <0>         0.0825
     41 H15         1.3666    1.4570    3.0885 H         1 <0>         0.0592
     42 H16        -2.0360   -0.3786    7.9950 H         1 <0>         0.1384
     43 H17        -1.9855   -2.0644    9.7891 H         1 <0>         0.1319
     44 H18         2.2783   -1.9764    9.7518 H         1 <0>         0.1374
     45 H19         2.2279   -0.2968    7.9519 H         1 <0>         0.1385
     46 H20        -0.0052   -4.8191    9.6236 H         1 <0>         0.0578
     47 H21        -0.4969   -5.1753   11.2968 H         1 <0>         0.0638
     48 H22        -1.5541   -4.2019   10.2466 H         1 <0>         0.0591
     49 H23         2.1314   -2.5667   11.6777 H         1 <0>         0.0611
     50 H24         1.6553   -4.2204   12.1326 H         1 <0>         0.0631
     51 H25         2.1470   -3.8643   10.4594 H         1 <0>         0.0606
     52 H26        -1.5761   -2.3805   11.9567 H         1 <0>         0.0594
     53 H27        -0.5189   -3.3539   13.0070 H         1 <0>         0.0640
     54 H28        -0.0428   -1.7002   12.5521 H         1 <0>         0.0586
@<TRIPOS>BOND
     1    1    2 1
     2    1   27 1
     3    1   28 1
     4    1   29 1
     5    2    7 ar
     6    2    3 ar
     7    3    4 ar
     8    3   30 1
     9    4    5 ar
    10    4   31 1
    11    5    6 ar
    12    5   32 1
    13    6    7 ar
    14    6   33 1
    15    7    8 1
    16    8   13 1
    17    8    9 1
    18    9   10 1
    19    9   34 1
    20    9   35 1
    21   10   11 1
    22   10   36 1
    23   10   37 1
    24   11   12 1
    25   11   14 1
    26   12   13 1
    27   12   38 1
    28   12   39 1
    29   13   40 1
    30   13   41 1
    31   14   15 2
    32   14   16 2
    33   14   17 1
    34   17   22 ar
    35   17   18 ar
    36   18   19 ar
    37   18   42 1
    38   19   20 ar
    39   19   43 1
    40   20   21 ar
    41   20   23 1
    42   21   22 ar
    43   21   44 1
    44   22   45 1
    45   23   24 1
    46   23   25 1
    47   23   26 1
    48   24   46 1
    49   24   47 1
    50   24   48 1
    51   25   49 1
    52   25   50 1
    53   25   51 1
    54   26   52 1
    55   26   53 1
    56   26   54 1
@<TRIPOS>MOLECULE
ZINC13949037
   55    57     0     0     0
SMALL
USER_CHARGES

@<TRIPOS>ATOM
      1 C1         -0.0456    1.5023    0.0130 C.3       1 <0>        -0.1443
      2 C2         -0.0110   -0.0043    0.0033 C.ar      1 <0>        -0.0518
      3 C3         -0.1116   -0.6904   -1.1928 C.ar      1 <0>        -0.0984
      4 C4         -0.0799   -2.0721   -1.2017 C.ar      1 <0>        -0.0641
      5 C5          0.0531   -2.7682   -0.0145 C.ar      1 <0>        -0.0998
      6 C6          0.1546   -2.0823    1.1811 C.ar      1 <0>        -0.0847
      7 C7          0.1271   -0.7001    1.1896 C.ar      1 <0>        -0.0558
      8 N1          0.2348   -0.0062    2.3984 N.4       1 <0>        -0.3191
      9 C8          1.5607   -0.2460    2.9820 C.3       1 <0>        -0.0183
     10 C9          1.7221    0.6034    4.2470 C.3       1 <0>         0.0928
     11 N2          0.5989    0.3117    5.1511 N.pl3     1 <0>        -1.0144
     12 C10        -0.7651    0.3689    4.6031 C.3       1 <0>         0.0931
     13 C11        -0.8091   -0.4695    3.3213 C.3       1 <0>        -0.0204
     14 S1          0.8626   -0.0709    6.7406 S.o2      1 <0>         2.6898
     15 O1         -0.2692   -0.8137    7.1727 O.2       1 <0>        -0.9394
     16 O2          2.1857   -0.5827    6.8211 O.2       1 <0>        -0.9393
     17 C12         0.8505    1.4390    7.6488 C.ar      1 <0>        -0.6890
     18 C13         2.0248    2.1452    7.8312 C.ar      1 <0>        -0.0182
     19 C14         2.0153    3.3297    8.5437 C.ar      1 <0>        -0.1337
     20 C15         0.8316    3.8083    9.0734 C.ar      1 <0>         0.0001
     21 C16        -0.3429    3.1025    8.8902 C.ar      1 <0>        -0.1394
     22 C17        -0.3342    1.9202    8.1740 C.ar      1 <0>        -0.0176
     23 C18         0.8214    5.0992    9.8510 C.3       1 <0>        -0.0417
     24 C19         1.3126    6.2380    8.9551 C.3       1 <0>        -0.1403
     25 C20        -0.6028    5.3993   10.3226 C.3       1 <0>        -0.1497
     26 C21         1.7442    4.9707   11.0646 C.3       1 <0>        -0.1432
     27 H1          0.9734    1.8891    0.0184 H         1 <0>         0.0942
     28 H2         -0.5651    1.8595   -0.8761 H         1 <0>         0.1015
     29 H3         -0.5701    1.8479    0.9038 H         1 <0>         0.0665
     30 H4         -0.2155   -0.1466   -2.1201 H         1 <0>         0.1495
     31 H5         -0.1592   -2.6081   -2.1359 H         1 <0>         0.1477
     32 H6          0.0772   -3.8479   -0.0214 H         1 <0>         0.1497
     33 H7          0.2581   -2.6261    2.1085 H         1 <0>         0.1435
     34 H8          1.6598   -1.3010    3.2376 H         1 <0>         0.1368
     35 H9          2.3303    0.0271    2.2602 H         1 <0>         0.1464
     36 H10         2.6624    0.3536    4.7385 H         1 <0>         0.1421
     37 H11         1.7137    1.6607    3.9818 H         1 <0>         0.1005
     38 H12        -1.4692   -0.0361    5.3300 H         1 <0>         0.1421
     39 H13        -1.0247    1.4024    4.3738 H         1 <0>         0.1004
     40 H14        -1.7857   -0.3611    2.8494 H         1 <0>         0.1469
     41 H15        -0.6382   -1.5177    3.5666 H         1 <0>         0.1372
     42 H16         2.9496    1.7713    7.4174 H         1 <0>         0.1395
     43 H17         2.9329    3.8811    8.6868 H         1 <0>         0.1362
     44 H18        -1.2676    3.4763    9.3043 H         1 <0>         0.1417
     45 H19        -1.2523    1.3707    8.0277 H         1 <0>         0.1396
     46 H20         0.6553    6.3296    8.0905 H         1 <0>         0.0571
     47 H21         1.3053    7.1717    9.5175 H         1 <0>         0.0677
     48 H22         2.3273    6.0242    8.6191 H         1 <0>         0.0594
     49 H23        -0.9527    4.5879   10.9608 H         1 <0>         0.0622
     50 H24        -0.6101    6.3330   10.8850 H         1 <0>         0.0670
     51 H25        -1.2601    5.4908    9.4580 H         1 <0>         0.0604
     52 H26         2.7588    4.7569   10.7286 H         1 <0>         0.0601
     53 H27         1.7369    5.9044   11.6270 H         1 <0>         0.0680
     54 H28         1.3942    4.1594   11.7028 H         1 <0>         0.0599
     55 H29         0.1181    0.9817    2.2293 H         1 <0>         0.4228
@<TRIPOS>BOND
     1    1    2 1
     2    1   27 1
     3    1   28 1
     4    1   29 1
     5    2    7 ar
     6    2    3 ar
     7    3    4 ar
     8    3   30 1
     9    4    5 ar
    10    4   31 1
    11    5    6 ar
    12    5   32 1
    13    6    7 ar
    14    6   33 1
    15    7    8 1
    16    8   13 1
    17    8    9 1
    18    8   55 1
    19    9   10 1
    20    9   34 1
    21    9   35 1
    22   10   11 1
    23   10   36 1
    24   10   37 1
    25   11   12 1
    26   11   14 1
    27   12   13 1
    28   12   38 1
    29   12   39 1
    30   13   40 1
    31   13   41 1
    32   14   15 2
    33   14   16 2
    34   14   17 1
    35   17   22 ar
    36   17   18 ar
    37   18   19 ar
    38   18   42 1
    39   19   20 ar
    40   19   43 1
    41   20   21 ar
    42   20   23 1
    43   21   22 ar
    44   21   44 1
    45   22   45 1
    46   23   24 1
    47   23   25 1
    48   23   26 1
    49   24   46 1
    50   24   47 1
    51   24   48 1
    52   25   49 1
    53   25   50 1
    54   25   51 1
    55   26   52 1
    56   26   53 1
    57   26   54 1
@<TRIPOS>MOLECULE
ZINC00714413
   52    55     0     0     0
SMALL
USER_CHARGES
2-bromo-N-[2-(phenethylcarbamoylmethylsulfanyl)benzothiazol-6-yl]-benzamide
@<TRIPOS>ATOM
      1 C1         -4.6566   -4.4014    0.2638 C.ar      1 <0>        -0.1197
      2 C2         -3.9774   -4.1789   -0.9195 C.ar      1 <0>        -0.1179
      3 C3         -2.7891   -3.4728   -0.9121 C.ar      1 <0>        -0.1135
      4 C4         -2.2796   -2.9895    0.2786 C.ar      1 <0>        -0.0861
      5 C5         -2.9559   -3.2168    1.4626 C.ar      1 <0>        -0.1135
      6 C6         -4.1469   -3.9185    1.4546 C.ar      1 <0>        -0.1178
      7 C7         -0.9839   -2.2200    0.2867 C.3       1 <0>        -0.0913
      8 C8         -1.2748   -0.7293    0.1021 C.3       1 <0>         0.1244
      9 N1         -0.0152    0.0187    0.1100 N.am      1 <0>        -0.7235
     10 C9         -0.0260    1.3583   -0.0380 C.2       1 <0>         0.5328
     11 O1         -1.0782    1.9439   -0.1826 O.2       1 <0>        -0.5207
     12 C10         1.2697    2.1277   -0.0299 C.3       1 <0>        -0.1598
     13 S1          0.9255    3.8912   -0.2482 S.3       1 <0>         0.1274
     14 C11         2.5665    4.5313   -0.2012 C.2       1 <0>         0.0935
     15 N2          3.6995    3.8837   -0.0496 N.2       1 <0>        -0.5022
     16 C12         4.8973    4.5108   -0.0335 C.ar      1 <0>         0.0693
     17 C13         6.1801    3.9362    0.1203 C.ar      1 <0>        -0.0397
     18 C14         7.2984    4.7099    0.1143 C.ar      1 <0>        -0.1292
     19 C15         7.2276    6.0922   -0.0428 C.ar      1 <0>         0.1715
     20 C16         5.9846    6.6933   -0.1968 C.ar      1 <0>        -0.0662
     21 C17         4.8548    5.9148   -0.1910 C.ar      1 <0>        -0.1259
     22 S2          3.1134    6.2258   -0.3557 S.3       1 <0>         0.0584
     23 N3          8.3947    6.8662   -0.0450 N.am      1 <0>        -0.6649
     24 C18         8.3744    8.1174    0.4555 C.2       1 <0>         0.5487
     25 O2          7.3704    8.5400    0.9954 O.2       1 <0>        -0.4794
     26 C19         9.5724    8.9756    0.3480 C.ar      1 <0>        -0.1174
     27 C20        10.7291    8.4915   -0.2663 C.ar      1 <0>        -0.0794
     28 C21        11.8419    9.2997   -0.3685 C.ar      1 <0>        -0.1123
     29 C22        11.8184   10.5843    0.1464 C.ar      1 <0>        -0.0826
     30 C23        10.6785   11.0691    0.7613 C.ar      1 <0>        -0.0988
     31 C24         9.5549   10.2728    0.8656 C.ar      1 <0>        -0.0411
     32 Br1         7.9972   10.9368    1.7073 Br        1 <0>        -0.0042
     33 H1         -5.5852   -4.9528    0.2580 H         1 <0>         0.1226
     34 H2         -4.3755   -4.5565   -1.8498 H         1 <0>         0.1234
     35 H3         -2.2585   -3.2989   -1.8366 H         1 <0>         0.1224
     36 H4         -2.5556   -2.8430    2.3934 H         1 <0>         0.1224
     37 H5         -4.6773   -4.0926    2.3791 H         1 <0>         0.1234
     38 H6         -0.3486   -2.5697   -0.5271 H         1 <0>         0.0812
     39 H7         -0.4748   -2.3758    1.2378 H         1 <0>         0.0812
     40 H8         -1.9101   -0.3796    0.9159 H         1 <0>         0.0739
     41 H9         -1.7840   -0.5735   -0.8490 H         1 <0>         0.0740
     42 H10         0.8266   -0.4501    0.2216 H         1 <0>         0.4051
     43 H11         1.7789    1.9719    0.9212 H         1 <0>         0.1289
     44 H12         1.9050    1.7781   -0.8437 H         1 <0>         0.1290
     45 H13         6.2731    2.8674    0.2445 H         1 <0>         0.1384
     46 H14         8.2641    4.2417    0.2340 H         1 <0>         0.1388
     47 H15         5.9082    7.7635   -0.3195 H         1 <0>         0.1479
     48 H16         9.2176    6.5018   -0.4067 H         1 <0>         0.4126
     49 H17        10.7509    7.4878   -0.6643 H         1 <0>         0.1346
     50 H18        12.7356    8.9276   -0.8471 H         1 <0>         0.1390
     51 H19        12.6945   11.2110    0.0677 H         1 <0>         0.1399
     52 H20        10.6671   12.0723    1.1612 H         1 <0>         0.1425
@<TRIPOS>BOND
     1    1    6 ar
     2    1    2 ar
     3    1   33 1
     4    2    3 ar
     5    2   34 1
     6    3    4 ar
     7    3   35 1
     8    4    5 ar
     9    4    7 1
    10    5    6 ar
    11    5   36 1
    12    6   37 1
    13    7    8 1
    14    7   38 1
    15    7   39 1
    16    8    9 1
    17    8   40 1
    18    8   41 1
    19    9   10 am
    20    9   42 1
    21   10   11 2
    22   10   12 1
    23   12   13 1
    24   12   43 1
    25   12   44 1
    26   13   14 1
    27   14   22 1
    28   14   15 2
    29   15   16 1
    30   16   21 ar
    31   16   17 ar
    32   17   18 ar
    33   17   45 1
    34   18   19 ar
    35   18   46 1
    36   19   20 ar
    37   19   23 1
    38   20   21 ar
    39   20   47 1
    40   21   22 1
    41   23   24 am
    42   23   48 1
    43   24   25 2
    44   24   26 1
    45   26   31 ar
    46   26   27 ar
    47   27   28 ar
    48   27   49 1
    49   28   29 ar
    50   28   50 1
    51   29   30 ar
    52   29   51 1
    53   30   31 ar
    54   30   52 1
    55   31   32 1
@<TRIPOS>MOLECULE
ZINC00035804
   31    32     0     0     0
SMALL
USER_CHARGES

@<TRIPOS>ATOM
      1 C1         -0.0004    1.4841    0.0187 C.2       1 <0>        -0.2165
      2 C2          1.3526    1.8943    0.0235 C.2       1 <0>        -0.1841
      3 C3          2.0990    0.7761   -0.0203 C.2       1 <0>        -0.0258
      4 O1          1.2745   -0.2836   -0.0512 O.3       1 <0>        -0.1706
      5 C4          0.0002    0.1397   -0.0277 C.2       1 <0>        -0.0342
      6 C5          3.6050    0.7217   -0.0331 C.3       1 <0>         0.1920
      7 N1          4.1030    0.6567    1.3431 N.pl3     1 <0>        -0.7044
      8 C6          5.4677    0.5988    1.5849 C.ar      1 <0>         0.3111
      9 C7          6.3602    0.4840    0.5266 C.ar      1 <0>        -0.2314
     10 C8          7.7182    0.4265    0.7700 C.ar      1 <0>         0.1018
     11 C9          8.2027    0.4826    2.0699 C.ar      1 <0>        -0.7484
     12 C10         7.3347    0.5963    3.1314 C.ar      1 <0>         0.0694
     13 C11         5.9555    0.6617    2.9017 C.ar      1 <0>        -0.2292
     14 C12         5.0230    0.7897    4.0304 C.2       1 <0>         0.5337
     15 O2          5.4534    0.9534    5.1641 O.co2     1 <0>        -0.6698
     16 O3          3.8161    0.7327    3.8365 O.co2     1 <0>        -0.6839
     17 S1          9.9387    0.4073    2.3618 S.o2      1 <0>         2.7048
     18 O4         10.5395    1.3482    1.4827 O.2       1 <0>        -0.9630
     19 O5         10.1162    0.4597    3.7707 O.2       1 <0>        -0.9667
     20 N2         10.4525   -1.0900    1.8754 N.pl3     1 <0>        -1.2486
     21 Cl1         8.8269    0.2825   -0.5580 Cl        1 <0>        -0.0616
     22 H1         -0.8679    2.1266    0.0509 H         1 <0>         0.1490
     23 H2          1.7169    2.9105    0.0555 H         1 <0>         0.1499
     24 H3         -0.8756   -0.4921   -0.0431 H         1 <0>         0.2031
     25 H4          3.9320   -0.1626   -0.5800 H         1 <0>         0.0769
     26 H5          3.9967    1.6151   -0.5194 H         1 <0>         0.0916
     27 H6          3.4784    0.6542    2.0853 H         1 <0>         0.4317
     28 H7          5.9915    0.4394   -0.4876 H         1 <0>         0.1346
     29 H8          7.7173    0.6394    4.1404 H         1 <0>         0.1563
     30 H9         11.3548   -1.2076    1.5395 H         1 <0>         0.4161
     31 H10         9.8511   -1.8493    1.9265 H         1 <0>         0.4161
@<TRIPOS>BOND
     1    1    5 2
     2    1    2 1
     3    1   22 1
     4    2    3 2
     5    2   23 1
     6    3    4 1
     7    3    6 1
     8    4    5 1
     9    5   24 1
    10    6    7 1
    11    6   25 1
    12    6   26 1
    13    7    8 1
    14    7   27 1
    15    8   13 ar
    16    8    9 ar
    17    9   10 ar
    18    9   28 1
    19   10   11 ar
    20   10   21 1
    21   11   12 ar
    22   11   17 1
    23   12   13 ar
    24   12   29 1
    25   13   14 1
    26   14   15 2
    27   14   16 1
    28   17   18 2
    29   17   19 2
    30   17   20 1
    31   20   30 1
    32   20   31 1
@<TRIPOS>MOLECULE
ZINC03960657
   59    64     0     0     0
SMALL
USER_CHARGES
3-[4-[3-(4-fluorophenyl)-1,2,4-oxadiazol-5-yl]-1-bicyclo[2.2.2]octyl]-4-methyl-5-[2-(trifluoromethyl)phenyl]-1,2,4-triazole
@<TRIPOS>ATOM
      1 C1         -1.2486   -2.8843   -0.5822 C.3       1 <0>         0.0506
      2 N1          0.1641   -3.1168   -0.2715 N.pl3     1 <0>        -0.4641
      3 C2          1.0963   -2.1799    0.0839 C.2       1 <0>         0.1910
      4 N2          2.2287   -2.8189    0.2768 N.2       1 <0>        -0.2545
      5 N3          2.0601   -4.0749    0.0612 N.2       1 <0>        -0.2732
      6 C3          0.8208   -4.3086   -0.2789 C.2       1 <0>         0.2007
      7 C4          0.2259   -5.6525   -0.6121 C.3       1 <0>         0.0306
      8 C5         -0.6802   -6.1074    0.5337 C.3       1 <0>        -0.1053
      9 C6         -1.2842   -7.4718    0.1954 C.3       1 <0>        -0.1013
     10 C7         -0.7807   -7.9266   -1.1759 C.3       1 <0>         0.0401
     11 C8          0.7450   -8.0370   -1.1482 C.3       1 <0>        -0.1156
     12 C9          1.3490   -6.6726   -0.8099 C.3       1 <0>        -0.0939
     13 C10        -1.1990   -6.9065   -2.2368 C.3       1 <0>        -0.1007
     14 C11        -0.5950   -5.5421   -1.8985 C.3       1 <0>        -0.1160
     15 C12        -1.3757   -9.2705   -1.5091 C.2       1 <0>         0.1977
     16 N4         -2.6502   -9.5513   -1.6191 N.2       1 <0>        -0.4693
     17 C13        -2.7070  -10.8669   -1.9268 C.2       1 <0>         0.2137
     18 N5         -1.4755  -11.3032   -1.9851 N.2       1 <0>        -0.3734
     19 O1         -0.7015  -10.3985   -1.7537 O.3       1 <0>         0.0891
     20 C14        -3.9364  -11.6656   -2.1560 C.ar      1 <0>        -0.0362
     21 C15        -5.1894  -11.0643   -2.0547 C.ar      1 <0>        -0.0450
     22 C16        -6.3296  -11.8094   -2.2737 C.ar      1 <0>        -0.1562
     23 C17        -6.2305  -13.1563   -2.5837 C.ar      1 <0>         0.1209
     24 C18        -4.9868  -13.7595   -2.6798 C.ar      1 <0>        -0.1547
     25 C19        -3.8413  -13.0206   -2.4675 C.ar      1 <0>        -0.0533
     26 F1         -7.3498  -13.8835   -2.7924 F         1 <0>        -0.1324
     27 C20         0.8708   -0.7250    0.2296 C.ar      1 <0>         0.0366
     28 C21        -0.3435   -0.1614   -0.1639 C.ar      1 <0>        -0.1268
     29 C22        -0.5474    1.1960   -0.0259 C.ar      1 <0>        -0.0828
     30 C23         0.4491    1.9981    0.5015 C.ar      1 <0>        -0.1080
     31 C24         1.6550    1.4455    0.8935 C.ar      1 <0>        -0.0678
     32 C25         1.8714    0.0891    0.7606 C.ar      1 <0>        -0.1485
     33 C26         3.1857   -0.5114    1.1887 C.3       1 <0>         0.5144
     34 F2          4.0195    0.4966    1.6844 F         1 <0>        -0.1834
     35 F3          2.9597   -1.4634    2.1886 F         1 <0>        -0.1667
     36 F4          3.7978   -1.1249    0.0904 F         1 <0>        -0.1568
     37 H1         -1.3438   -2.5573   -1.6176 H         1 <0>         0.0914
     38 H2         -1.8087   -3.8084   -0.4401 H         1 <0>         0.1044
     39 H3         -1.6442   -2.1141    0.0799 H         1 <0>         0.1000
     40 H4         -0.0954   -6.1861    1.4501 H         1 <0>         0.0808
     41 H5         -1.4803   -5.3807    0.6746 H         1 <0>         0.0695
     42 H6         -2.3712   -7.3931    0.1756 H         1 <0>         0.0835
     43 H7         -0.9862   -8.1985    0.9512 H         1 <0>         0.0772
     44 H8          1.1037   -8.3610   -2.1251 H         1 <0>         0.0808
     45 H9          1.0430   -8.7637   -0.3924 H         1 <0>         0.0818
     46 H10         1.9946   -6.3485   -1.6262 H         1 <0>         0.0797
     47 H11         1.9339   -6.7513    0.1066 H         1 <0>         0.0864
     48 H12        -0.8403   -7.2305   -3.2138 H         1 <0>         0.0765
     49 H13        -2.2860   -6.8278   -2.2566 H         1 <0>         0.0838
     50 H14        -1.3951   -4.8154   -1.7576 H         1 <0>         0.0749
     51 H15         0.0505   -5.2180   -2.7148 H         1 <0>         0.0783
     52 H16        -5.2676  -10.0156   -1.8087 H         1 <0>         0.1461
     53 H17        -7.3010  -11.3432   -2.1995 H         1 <0>         0.1454
     54 H18        -4.9140  -14.8097   -2.9209 H         1 <0>         0.1454
     55 H19        -2.8723  -13.4916   -2.5422 H         1 <0>         0.1417
     56 H20        -1.1221   -0.7865   -0.5754 H         1 <0>         0.1427
     57 H21        -1.4851    1.6341   -0.3343 H         1 <0>         0.1406
     58 H22         0.2846    3.0602    0.6076 H         1 <0>         0.1417
     59 H23         2.4289    2.0769    1.3045 H         1 <0>         0.1477
@<TRIPOS>BOND
     1    1    2 1
     2    1   37 1
     3    1   38 1
     4    1   39 1
     5    2    6 1
     6    2    3 1
     7    3    4 2
     8    3   27 1
     9    4    5 1
    10    5    6 2
    11    6    7 1
    12    7   12 1
    13    7   14 1
    14    7    8 1
    15    8    9 1
    16    8   40 1
    17    8   41 1
    18    9   10 1
    19    9   42 1
    20    9   43 1
    21   10   11 1
    22   10   13 1
    23   10   15 1
    24   11   12 1
    25   11   44 1
    26   11   45 1
    27   12   46 1
    28   12   47 1
    29   13   14 1
    30   13   48 1
    31   13   49 1
    32   14   50 1
    33   14   51 1
    34   15   19 1
    35   15   16 2
    36   16   17 1
    37   17   18 2
    38   17   20 1
    39   18   19 1
    40   20   25 ar
    41   20   21 ar
    42   21   22 ar
    43   21   52 1
    44   22   23 ar
    45   22   53 1
    46   23   24 ar
    47   23   26 1
    48   24   25 ar
    49   24   54 1
    50   25   55 1
    51   27   32 ar
    52   27   28 ar
    53   28   29 ar
    54   28   56 1
    55   29   30 ar
    56   29   57 1
    57   30   31 ar
    58   30   58 1
    59   31   32 ar
    60   31   59 1
    61   32   33 1
    62   33   34 1
    63   33   35 1
    64   33   36 1
@<TRIPOS>MOLECULE
ZINC28896396
   62    66     0     0     0
SMALL
USER_CHARGES
[4-(2-hydroxyethyl)piperazin-1-yl]-[(5R,7S)-3-(p-tolyl)-1-adamantyl]methanone
@<TRIPOS>ATOM
      1 C1          1.4954    9.9081   -7.8028 C.3       1 <0>        -0.1180
      2 C2          1.0780    9.2288   -6.5240 C.ar      1 <0>        -0.0902
      3 C3          0.0505    8.3042   -6.5360 C.ar      1 <0>        -0.1183
      4 C4         -0.3327    7.6815   -5.3629 C.ar      1 <0>        -0.1093
      5 C5          0.3117    7.9833   -4.1777 C.ar      1 <0>        -0.0738
      6 C6          1.3357    8.9118   -4.1648 C.ar      1 <0>        -0.1160
      7 C7          1.7224    9.5307   -5.3389 C.ar      1 <0>        -0.1201
      8 C8         -0.1064    7.3048   -2.8987 C.3       1 <0>        -0.0101
      9 C9          0.7596    7.8138   -1.7447 C.3       1 <0>        -0.1064
     10 C10         0.3352    7.1249   -0.4462 C.3       1 <0>        -0.0833
     11 H1          0.9579    7.4909    0.3835 H         1 <0>         0.0774
     12 C11        -1.1342    7.4396   -0.1585 C.3       1 <0>        -0.1115
     13 C12        -2.0002    6.9306   -1.3126 C.3       1 <0>        -0.0833
     14 H2         -3.0566    7.1570   -1.1059 H         1 <0>         0.0780
     15 C13        -1.5758    7.6195   -2.6111 C.3       1 <0>        -0.1008
     16 C14        -1.8212    5.4178   -1.4557 C.3       1 <0>        -0.1225
     17 C15        -0.3518    5.1031   -1.7434 C.3       1 <0>        -0.0663
     18 C16         0.5142    5.6122   -0.5893 C.3       1 <0>        -0.1121
     19 C17         0.0726    5.7920   -3.0419 C.3       1 <0>        -0.0756
     20 C18        -0.1755    3.6131   -1.8844 C.2       1 <0>         0.5261
     21 O1          0.3790    3.1579   -2.8623 O.2       1 <0>        -0.5372
     22 N1         -0.6340    2.7864   -0.9238 N.am      1 <0>        -0.6112
     23 C19        -0.5708    1.3265   -1.0909 C.3       1 <0>         0.1136
     24 C20         0.0904    0.7223    0.1525 C.3       1 <0>         0.0407
     25 N2         -0.6212    1.1798    1.3534 N.3       1 <0>        -0.5246
     26 C21        -0.5248    2.6375    1.5071 C.3       1 <0>         0.0338
     27 C22        -1.2112    3.3202    0.3193 C.3       1 <0>         0.0888
     28 C23        -0.1278    0.4897    2.5527 C.3       1 <0>         0.0532
     29 C24        -0.8270    1.0552    3.7905 C.3       1 <0>         0.0837
     30 O2         -2.2324    0.8151    3.6950 O.3       1 <0>        -0.5858
     31 H3          0.8729    9.5420   -8.6325 H         1 <0>         0.0646
     32 H4          2.5519    9.6826   -8.0098 H         1 <0>         0.0690
     33 H5          1.3660   10.9956   -7.6994 H         1 <0>         0.0689
     34 H6         -0.4532    8.0686   -7.4619 H         1 <0>         0.1200
     35 H7         -1.1358    6.9594   -5.3722 H         1 <0>         0.1194
     36 H8          1.8362    9.1509   -3.2381 H         1 <0>         0.1250
     37 H9          2.5250   10.2533   -5.3294 H         1 <0>         0.1197
     38 H10         1.8160    7.5875   -1.9515 H         1 <0>         0.0673
     39 H11         0.6310    8.9014   -1.6418 H         1 <0>         0.0697
     40 H12        -1.4393    6.9442    0.7750 H         1 <0>         0.0642
     41 H13        -1.2629    8.5272   -0.0554 H         1 <0>         0.0679
     42 H14        -1.7045    8.7071   -2.5082 H         1 <0>         0.0670
     43 H15        -2.1984    7.2535   -3.4408 H         1 <0>         0.0656
     44 H16        -2.1263    4.9226   -0.5221 H         1 <0>         0.0847
     45 H17        -2.4439    5.0517   -2.2853 H         1 <0>         0.0690
     46 H18         1.5706    5.3859   -0.7961 H         1 <0>         0.0691
     47 H19         0.2091    5.1169    0.3443 H         1 <0>         0.0762
     48 H20        -0.5500    5.4260   -3.8716 H         1 <0>         0.0698
     49 H21         1.1290    5.5657   -3.2487 H         1 <0>         0.0722
     50 H22        -1.5889    0.9263   -1.2064 H         1 <0>         0.0763
     51 H23         0.0217    1.0851   -1.9857 H         1 <0>         0.0970
     52 H24         0.0460   -0.3753    0.0946 H         1 <0>         0.0890
     53 H25         1.1409    1.0447    0.2024 H         1 <0>         0.0379
     54 H26        -1.0193    2.9411    2.4416 H         1 <0>         0.0935
     55 H27         0.5341    2.9336    1.5396 H         1 <0>         0.0359
     56 H28        -1.0451    4.4067    0.3637 H         1 <0>         0.1151
     57 H29        -2.2914    3.1133    0.3405 H         1 <0>         0.0792
     58 H30        -0.3412   -0.5863    2.4705 H         1 <0>         0.0859
     59 H31         0.9578    0.6423    2.6430 H         1 <0>         0.0479
     60 H32        -0.4314    0.5638    4.6916 H         1 <0>         0.0462
     61 H33        -0.6434    2.1380    3.8528 H         1 <0>         0.0435
     62 H34        -2.9039    1.1527    4.4982 H         1 <0>         0.4042
@<TRIPOS>BOND
     1    1    2 1
     2    1   31 1
     3    1   32 1
     4    1   33 1
     5    2    7 ar
     6    2    3 ar
     7    3    4 ar
     8    3   34 1
     9    4    5 ar
    10    4   35 1
    11    5    6 ar
    12    5    8 1
    13    6    7 ar
    14    6   36 1
    15    7   37 1
    16    8   15 1
    17    8   19 1
    18    8    9 1
    19    9   10 1
    20    9   38 1
    21    9   39 1
    22   10   11 1
    23   10   18 1
    24   10   12 1
    25   12   13 1
    26   12   40 1
    27   12   41 1
    28   13   14 1
    29   13   15 1
    30   13   16 1
    31   15   42 1
    32   15   43 1
    33   16   17 1
    34   16   44 1
    35   16   45 1
    36   17   18 1
    37   17   19 1
    38   17   20 1
    39   18   46 1
    40   18   47 1
    41   19   48 1
    42   19   49 1
    43   20   21 2
    44   20   22 am
    45   22   27 1
    46   22   23 1
    47   23   24 1
    48   23   50 1
    49   23   51 1
    50   24   25 1
    51   24   52 1
    52   24   53 1
    53   25   26 1
    54   25   28 1
    55   26   27 1
    56   26   54 1
    57   26   55 1
    58   27   56 1
    59   27   57 1
    60   28   29 1
    61   28   58 1
    62   28   59 1
    63   29   30 1
    64   29   60 1
    65   29   61 1
    66   30   62 1
@<TRIPOS>MOLECULE
ZINC28896091
   52    53     0     0     0
SMALL
USER_CHARGES
(4-tert-butylcyclohexyl)-(4-ethylpiperazin-1-yl)methanone
@<TRIPOS>ATOM
      1 C1          2.6779    9.2700   -3.3412 C.3       1 <0>        -0.1523
      2 C2          1.3721    8.4989   -3.5442 C.3       1 <0>         0.0495
      3 N1          1.2464    7.4668   -2.5064 N.3       1 <0>        -0.5375
      4 C3         -0.0938    6.8656   -2.5214 C.3       1 <0>         0.0371
      5 C4         -0.2438    5.9301   -1.3170 C.3       1 <0>         0.1065
      6 N2          0.8692    4.9688   -1.3306 N.am      1 <0>        -0.6147
      7 C5          2.2390    5.4917   -1.4466 C.3       1 <0>         0.1148
      8 C6          2.2909    6.4441   -2.6517 C.3       1 <0>         0.0378
      9 C7          0.6404    3.6441   -1.2338 C.2       1 <0>         0.5241
     10 O1          1.5724    2.8711   -1.1656 O.2       1 <0>        -0.5300
     11 C8         -0.7737    3.1235   -1.2102 C.3       1 <0>        -0.1073
     12 C9         -0.7585    1.5998   -1.3486 C.3       1 <0>        -0.0974
     13 C10         0.0289    0.9900   -0.1872 C.3       1 <0>        -0.1403
     14 C11        -0.6344    1.3753    1.1366 C.3       1 <0>        -0.0716
     15 C12        -0.6496    2.8990    1.2750 C.3       1 <0>        -0.1206
     16 C13        -1.4370    3.5087    0.1136 C.3       1 <0>        -0.1160
     17 C14         0.1530    0.7655    2.2981 C.3       1 <0>        -0.0622
     18 C15         1.5886    1.2941    2.2742 C.3       1 <0>        -0.1442
     19 C16        -0.5103    1.1508    3.6219 C.3       1 <0>        -0.1451
     20 C17         0.1682   -0.7581    2.1597 C.3       1 <0>        -0.1449
     21 H1          2.7720   10.0428   -4.1183 H         1 <0>         0.0612
     22 H2          3.5282    8.5756   -3.4098 H         1 <0>         0.0555
     23 H3          2.6723    9.7460   -2.3495 H         1 <0>         0.0651
     24 H4          0.5218    9.1933   -3.4756 H         1 <0>         0.0772
     25 H5          1.3777    8.0229   -4.5359 H         1 <0>         0.0333
     26 H6         -0.8527    7.6601   -2.4669 H         1 <0>         0.0893
     27 H7         -0.2285    6.2931   -3.4510 H         1 <0>         0.0386
     28 H8         -0.2186    6.5202   -0.3890 H         1 <0>         0.0793
     29 H9         -1.2025    5.3951   -1.3854 H         1 <0>         0.0948
     30 H10         2.5041    6.0328   -0.5263 H         1 <0>         0.0744
     31 H11         2.9390    4.6563   -1.5953 H         1 <0>         0.0966
     32 H12         2.1213    5.8759   -3.5782 H         1 <0>         0.0379
     33 H13         3.2767    6.9303   -2.6951 H         1 <0>         0.0919
     34 H14        -1.3271    3.5699   -2.0495 H         1 <0>         0.0903
     35 H15        -1.7906    1.2198   -1.3314 H         1 <0>         0.0657
     36 H16        -0.2816    1.3228   -2.3004 H         1 <0>         0.0639
     37 H17         0.0398   -0.1054   -0.2867 H         1 <0>         0.0588
     38 H18         1.0611    1.3700   -0.2044 H         1 <0>         0.1085
     39 H19        -1.6665    0.9952    1.1538 H         1 <0>         0.0642
     40 H20        -1.1265    3.1760    2.2268 H         1 <0>         0.0668
     41 H21         0.3825    3.2791    1.2578 H         1 <0>         0.0660
     42 H22        -1.4480    4.6041    0.2131 H         1 <0>         0.0697
     43 H23        -2.4691    3.1286    0.1308 H         1 <0>         0.0753
     44 H24         2.1547    0.8557    3.1093 H         1 <0>         0.0492
     45 H25         1.5777    2.3895    2.3737 H         1 <0>         0.0535
     46 H26         2.0655    1.0171    1.3224 H         1 <0>         0.0618
     47 H27         0.0558    0.7124    4.4569 H         1 <0>         0.0527
     48 H28        -1.5424    0.7708    3.6391 H         1 <0>         0.0529
     49 H29        -0.5212    2.2462    3.7214 H         1 <0>         0.0562
     50 H30         0.7343   -1.1965    2.9948 H         1 <0>         0.0523
     51 H31         0.6451   -1.0351    1.2080 H         1 <0>         0.0590
     52 H32        -0.8639   -1.1381    2.1769 H         1 <0>         0.0525
@<TRIPOS>BOND
     1    1    2 1
     2    1   21 1
     3    1   22 1
     4    1   23 1
     5    2    3 1
     6    2   24 1
     7    2   25 1
     8    3    8 1
     9    3    4 1
    10    4    5 1
    11    4   26 1
    12    4   27 1
    13    5    6 1
    14    5   28 1
    15    5   29 1
    16    6    7 1
    17    6    9 am
    18    7    8 1
    19    7   30 1
    20    7   31 1
    21    8   32 1
    22    8   33 1
    23    9   10 2
    24    9   11 1
    25   11   16 1
    26   11   12 1
    27   11   34 1
    28   12   13 1
    29   12   35 1
    30   12   36 1
    31   13   14 1
    32   13   37 1
    33   13   38 1
    34   14   15 1
    35   14   17 1
    36   14   39 1
    37   15   16 1
    38   15   40 1
    39   15   41 1
    40   16   42 1
    41   16   43 1
    42   17   18 1
    43   17   19 1
    44   17   20 1
    45   18   44 1
    46   18   45 1
    47   18   46 1
    48   19   47 1
    49   19   48 1
    50   19   49 1
    51   20   50 1
    52   20   51 1
    53   20   52 1
@<TRIPOS>MOLECULE
ZINC23379295
   48    51     0     0     0
SMALL
USER_CHARGES
1-adamantyl-(4-ethylpiperazin-1-yl)methanone
@<TRIPOS>ATOM
      1 C1         -7.6686    3.9885    4.5536 C.3       1 <0>        -0.1517
      2 C2         -8.0409    3.4513    3.1703 C.3       1 <0>         0.0488
      3 N1         -7.0210    2.4914    2.7269 N.3       1 <0>        -0.5369
      4 C3         -7.4581    1.7793    1.5187 C.3       1 <0>         0.0403
      5 C4         -6.4551    0.6671    1.1944 C.3       1 <0>         0.1128
      6 N2         -5.1108    1.2587    1.1155 N.am      1 <0>        -0.6112
      7 C5         -4.6524    2.0961    2.2344 C.3       1 <0>         0.0870
      8 C6         -5.7286    3.1568    2.5151 C.3       1 <0>         0.0343
      9 C7         -4.3180    1.0349    0.0488 C.2       1 <0>         0.5259
     10 O1         -4.7425    0.4140   -0.9026 O.2       1 <0>        -0.5380
     11 C8         -2.9041    1.5560    0.0384 C.3       1 <0>        -0.0670
     12 C9         -2.1676    1.0080   -1.1856 C.3       1 <0>        -0.0874
     13 C10        -0.7320    1.5371   -1.1963 C.3       1 <0>        -0.0868
     14 C11        -0.0126    1.0856    0.0763 C.3       1 <0>        -0.1111
     15 C12        -0.7491    1.6336    1.3003 C.3       1 <0>        -0.0840
     16 C13        -2.1846    1.1045    1.3109 C.3       1 <0>        -0.1216
     17 C14        -0.7694    3.1623    1.2411 C.3       1 <0>        -0.1113
     18 C15        -1.4888    3.6139   -0.0315 C.3       1 <0>        -0.0839
     19 C16        -0.7524    3.0658   -1.2555 C.3       1 <0>        -0.1109
     20 C17        -2.9244    3.0848   -0.0208 C.3       1 <0>        -0.1114
     21 H1         -8.4323    4.7072    4.8855 H         1 <0>         0.0612
     22 H2         -6.6911    4.4902    4.5012 H         1 <0>         0.0550
     23 H3         -7.6148    3.1543    5.2686 H         1 <0>         0.0651
     24 H4         -9.0184    2.9496    3.2227 H         1 <0>         0.0773
     25 H5         -8.0948    4.2855    2.4553 H         1 <0>         0.0333
     26 H6         -8.4516    1.3398    1.6914 H         1 <0>         0.0889
     27 H7         -7.5105    2.4846    0.6762 H         1 <0>         0.0383
     28 H8         -6.4837   -0.0950    1.9871 H         1 <0>         0.0759
     29 H9         -6.7187    0.2049    0.2317 H         1 <0>         0.0969
     30 H10        -4.5006    1.4678    3.1244 H         1 <0>         0.0785
     31 H11        -3.7041    2.5832    1.9634 H         1 <0>         0.1164
     32 H12        -5.8047    3.8408    1.6570 H         1 <0>         0.0390
     33 H13        -5.4579    3.7272    3.4158 H         1 <0>         0.0925
     34 H14        -2.1530   -0.0911   -1.1430 H         1 <0>         0.0678
     35 H15        -2.6848    1.3326   -2.1005 H         1 <0>         0.0706
     36 H16        -0.2025    1.1431   -2.0763 H         1 <0>         0.0746
     37 H17         0.0021   -0.0135    0.1189 H         1 <0>         0.0633
     38 H18         1.0195    1.4660    0.0687 H         1 <0>         0.0648
     39 H19        -0.2319    1.3089    2.2153 H         1 <0>         0.0755
     40 H20        -2.7141    1.4985    2.1909 H         1 <0>         0.0833
     41 H21        -2.1699    0.0054    1.3535 H         1 <0>         0.0682
     42 H22        -1.2989    3.5563    2.1211 H         1 <0>         0.0631
     43 H23         0.2627    3.5427    1.2335 H         1 <0>         0.0671
     44 H24        -1.5033    4.7130   -0.0741 H         1 <0>         0.0751
     45 H25         0.2797    3.4462   -1.2632 H         1 <0>         0.0653
     46 H26        -1.2697    3.3905   -2.1704 H         1 <0>         0.0633
     47 H27        -3.4417    3.4095   -0.9357 H         1 <0>         0.0684
     48 H28        -3.4539    3.4788    0.8592 H         1 <0>         0.0753
@<TRIPOS>BOND
     1    1    2 1
     2    1   21 1
     3    1   22 1
     4    1   23 1
     5    2    3 1
     6    2   24 1
     7    2   25 1
     8    3    8 1
     9    3    4 1
    10    4    5 1
    11    4   26 1
    12    4   27 1
    13    5    6 1
    14    5   28 1
    15    5   29 1
    16    6    7 1
    17    6    9 am
    18    7    8 1
    19    7   30 1
    20    7   31 1
    21    8   32 1
    22    8   33 1
    23    9   10 2
    24    9   11 1
    25   11   16 1
    26   11   20 1
    27   11   12 1
    28   12   13 1
    29   12   34 1
    30   12   35 1
    31   13   19 1
    32   13   14 1
    33   13   36 1
    34   14   15 1
    35   14   37 1
    36   14   38 1
    37   15   16 1
    38   15   17 1
    39   15   39 1
    40   16   40 1
    41   16   41 1
    42   17   18 1
    43   17   42 1
    44   17   43 1
    45   18   19 1
    46   18   20 1
    47   18   44 1
    48   19   45 1
    49   19   46 1
    50   20   47 1
    51   20   48 1
@<TRIPOS>MOLECULE
ZINC01770352
   58    61     0     0     0
SMALL
USER_CHARGES

@<TRIPOS>ATOM
      1 C1         -3.3151    1.2995   -0.2485 C.3       1 <0>        -0.0918
      2 C2         -2.3632    0.1318   -0.2845 C.ar      1 <0>         0.1668
      3 C3         -2.1833   -0.5876   -1.4497 C.ar      1 <0>        -0.2718
      4 C4         -1.2905   -1.6610   -1.4345 C.ar      1 <0>         0.4707
      5 N1         -0.6501   -1.9495   -0.3052 N.ar      1 <0>        -0.6269
      6 C5         -0.8524   -1.2358    0.7836 C.ar      1 <0>         0.3469
      7 N2         -1.6845   -0.2139    0.8003 N.ar      1 <0>        -0.5950
      8 C6         -0.1074   -1.5945    2.0435 C.3       1 <0>        -0.0783
      9 N3         -1.0756   -2.4139   -2.5775 N.2       1 <0>        -1.0639
     10 S1         -0.0137   -3.6842   -2.5448 S.o2      1 <0>         2.6294
     11 O1          1.2775   -3.1289   -2.3357 O.2       1 <0>        -1.0158
     12 O2         -0.5736   -4.6592   -1.6758 O.2       1 <0>        -1.0167
     13 C7         -0.0013   -4.3945   -4.1572 C.ar      1 <0>        -0.6341
     14 C8         -0.8910   -5.4051   -4.4728 C.ar      1 <0>        -0.0036
     15 C9         -0.8836   -5.9643   -5.7355 C.ar      1 <0>        -0.1671
     16 C10         0.0185   -5.5103   -6.6892 C.ar      1 <0>         0.1744
     17 C11         0.9104   -4.4947   -6.3691 C.ar      1 <0>        -0.1434
     18 C12         0.8942   -3.9363   -5.1061 C.ar      1 <0>        -0.0033
     19 N4          0.0289   -6.0746   -7.9684 N.am      1 <0>        -0.6653
     20 C13         1.1883   -6.1849   -8.6468 C.2       1 <0>         0.5527
     21 O3          2.2365   -5.8806   -8.1123 O.2       1 <0>        -0.5006
     22 C14         1.1849   -6.6768  -10.0429 C.ar      1 <0>        -0.0916
     23 C15        -0.0202   -7.0208  -10.6584 C.ar      1 <0>        -0.0972
     24 C16        -0.0246   -7.4786  -11.9574 C.ar      1 <0>        -0.0579
     25 C17         1.1785   -7.5983  -12.6600 C.ar      1 <0>        -0.1473
     26 C18         2.3849   -7.2530  -12.0427 C.ar      1 <0>        -0.0709
     27 C19         2.3863   -6.7909  -10.7452 C.ar      1 <0>        -0.0662
     28 C20         1.1752   -8.0894  -14.0524 C.2       1 <0>         0.3764
     29 O4          0.1230   -8.2971  -14.6200 O.2       1 <0>        -0.4069
     30 C21         2.4651   -8.3301  -14.7613 C.2       1 <0>         0.3767
     31 O5          3.1358   -9.3039  -14.4871 O.2       1 <0>        -0.4102
     32 C22         2.9256   -7.3852  -15.7952 C.ar      1 <0>        -0.1722
     33 C23         2.2173   -6.2024  -16.0324 C.ar      1 <0>        -0.0649
     34 C24         2.6545   -5.3238  -17.0005 C.ar      1 <0>        -0.1290
     35 C25         3.7911   -5.6097  -17.7375 C.ar      1 <0>        -0.0783
     36 C26         4.4975   -6.7782  -17.5088 C.ar      1 <0>        -0.1317
     37 C27         4.0764   -7.6642  -16.5402 C.ar      1 <0>        -0.0523
     38 H1         -2.7816    2.2115   -0.5163 H         1 <0>         0.0703
     39 H2         -4.1247    1.1303   -0.9585 H         1 <0>         0.0685
     40 H3         -3.7275    1.4013    0.7553 H         1 <0>         0.0692
     41 H4         -2.7199   -0.3266   -2.3498 H         1 <0>         0.1266
     42 H5          0.8360   -1.0496    2.0754 H         1 <0>         0.0739
     43 H6         -0.7109   -1.3273    2.9110 H         1 <0>         0.0739
     44 H7          0.0914   -2.6662    2.0554 H         1 <0>         0.0758
     45 H8         -1.5921   -5.7577   -3.7308 H         1 <0>         0.1420
     46 H9         -1.5782   -6.7540   -5.9811 H         1 <0>         0.1305
     47 H10         1.6130   -4.1395   -7.1083 H         1 <0>         0.1381
     48 H11         1.5845   -3.1436   -4.8579 H         1 <0>         0.1412
     49 H12        -0.7982   -6.3867   -8.3676 H         1 <0>         0.4111
     50 H13        -0.9493   -6.9282  -10.1155 H         1 <0>         0.1389
     51 H14        -0.9569   -7.7453  -12.4330 H         1 <0>         0.1464
     52 H15         3.3147   -7.3454  -12.5842 H         1 <0>         0.1373
     53 H16         3.3173   -6.5202  -10.2696 H         1 <0>         0.1502
     54 H17         1.3300   -5.9784  -15.4587 H         1 <0>         0.1288
     55 H18         2.1087   -4.4102  -17.1847 H         1 <0>         0.1340
     56 H19         4.1282   -4.9177  -18.4951 H         1 <0>         0.1317
     57 H20         5.3830   -6.9944  -18.0880 H         1 <0>         0.1339
     58 H21         4.6308   -8.5733  -16.3601 H         1 <0>         0.1377
@<TRIPOS>BOND
     1    1    2 1
     2    1   38 1
     3    1   39 1
     4    1   40 1
     5    2    7 ar
     6    2    3 ar
     7    3    4 ar
     8    3   41 1
     9    4    5 ar
    10    4    9 1
    11    5    6 ar
    12    6    7 ar
    13    6    8 1
    14    8   42 1
    15    8   43 1
    16    8   44 1
    17    9   10 1
    18   10   11 2
    19   10   12 2
    20   10   13 1
    21   13   18 ar
    22   13   14 ar
    23   14   15 ar
    24   14   45 1
    25   15   16 ar
    26   15   46 1
    27   16   17 ar
    28   16   19 1
    29   17   18 ar
    30   17   47 1
    31   18   48 1
    32   19   20 am
    33   19   49 1
    34   20   21 2
    35   20   22 1
    36   22   27 ar
    37   22   23 ar
    38   23   24 ar
    39   23   50 1
    40   24   25 ar
    41   24   51 1
    42   25   26 ar
    43   25   28 1
    44   26   27 ar
    45   26   52 1
    46   27   53 1
    47   28   29 2
    48   28   30 1
    49   30   31 2
    50   30   32 1
    51   32   37 ar
    52   32   33 ar
    53   33   34 ar
    54   33   54 1
    55   34   35 ar
    56   34   55 1
    57   35   36 ar
    58   35   56 1
    59   36   37 ar
    60   36   57 1
    61   37   58 1
@<TRIPOS>MOLECULE
ZINC29045635
   41    43     0     0     0
SMALL
USER_CHARGES

@<TRIPOS>ATOM
      1 C1         -0.0258    1.4874   -0.3933 C.3       1 <0>        -0.1262
      2 C2         -0.0031   -0.0148   -0.2744 C.ar      1 <0>        -0.0279
      3 C3         -0.0283   -0.7987   -1.4128 C.ar      1 <0>        -0.1415
      4 C4         -0.0074   -2.1765   -1.3037 C.ar      1 <0>        -0.0154
      5 C5          0.0391   -2.7705   -0.0564 C.ar      1 <0>        -0.6829
      6 C6          0.0653   -1.9866    1.0819 C.ar      1 <0>        -0.0154
      7 C7          0.0487   -0.6087    0.9727 C.ar      1 <0>        -0.1415
      8 S1          0.0645   -4.5269    0.0827 S.o2      1 <0>         2.6896
      9 O1         -0.4421   -4.8395    1.3730 O.2       1 <0>        -0.9537
     10 O2         -0.5182   -5.0370   -1.1087 O.2       1 <0>        -0.9537
     11 N1          1.6526   -4.9960    0.0713 N.pl3     1 <0>        -0.9917
     12 C8          2.3330   -5.3023   -1.1948 C.3       1 <0>         0.1043
     13 C9          3.5927   -4.4333   -1.2970 C.3       1 <0>         0.1358
     14 N2          4.3470   -4.5503   -0.0412 N.pl3     1 <0>        -0.6553
     15 C10         3.6666   -4.2439    1.2249 C.3       1 <0>         0.1357
     16 C11         2.4086   -5.1075    1.3267 C.3       1 <0>         0.1043
     17 C12         5.6807   -4.9442   -0.0507 C.ar      1 <0>         0.3877
     18 C13         6.6834   -3.9833   -0.1511 C.ar      1 <0>        -0.0878
     19 C14         8.0061   -4.3899   -0.1589 C.ar      1 <0>        -0.0643
     20 C15         8.2824   -5.7479   -0.0658 C.ar      1 <0>        -0.1640
     21 C16         7.2384   -6.6453    0.0310 C.ar      1 <0>         0.1140
     22 N3          5.9860   -6.2289    0.0411 N.ar      1 <0>        -0.4777
     23 Cl1         6.2799   -2.2987   -0.2654 Cl        1 <0>        -0.0469
     24 H1          0.9956    1.8622   -0.4586 H         1 <0>         0.0794
     25 H2         -0.5755    1.7726   -1.2903 H         1 <0>         0.0733
     26 H3         -0.5140    1.9138    0.4830 H         1 <0>         0.0733
     27 H4         -0.0647   -0.3346   -2.3873 H         1 <0>         0.1325
     28 H5         -0.0279   -2.7890   -2.1930 H         1 <0>         0.1387
     29 H6          0.1013   -2.4507    2.0565 H         1 <0>         0.1387
     30 H7          0.0729    0.0038    1.8619 H         1 <0>         0.1324
     31 H8          2.6127   -6.3556   -1.2143 H         1 <0>         0.0829
     32 H9          1.6681   -5.0823   -2.0300 H         1 <0>         0.0974
     33 H10         4.2088   -4.7783   -2.1274 H         1 <0>         0.0809
     34 H11         3.3077   -3.3935   -1.4571 H         1 <0>         0.0646
     35 H12         4.3316   -4.4639    2.0601 H         1 <0>         0.0812
     36 H13         3.3869   -3.1906    1.2444 H         1 <0>         0.0642
     37 H14         1.7936   -4.7589    2.1563 H         1 <0>         0.0975
     38 H15         2.6938   -6.1467    1.4909 H         1 <0>         0.0826
     39 H16         8.8054   -3.6678   -0.2360 H         1 <0>         0.1456
     40 H17         9.3041   -6.0981   -0.0695 H         1 <0>         0.1459
     41 H18         7.4492   -7.7020    0.1035 H         1 <0>         0.1637
@<TRIPOS>BOND
     1    1    2 1
     2    1   24 1
     3    1   25 1
     4    1   26 1
     5    2    7 ar
     6    2    3 ar
     7    3    4 ar
     8    3   27 1
     9    4    5 ar
    10    4   28 1
    11    5    6 ar
    12    5    8 1
    13    6    7 ar
    14    6   29 1
    15    7   30 1
    16    8    9 2
    17    8   10 2
    18    8   11 1
    19   11   16 1
    20   11   12 1
    21   12   13 1
    22   12   31 1
    23   12   32 1
    24   13   14 1
    25   13   33 1
    26   13   34 1
    27   14   15 1
    28   14   17 1
    29   15   16 1
    30   15   35 1
    31   15   36 1
    32   16   37 1
    33   16   38 1
    34   17   22 ar
    35   17   18 ar
    36   18   19 ar
    37   18   23 1
    38   19   20 ar
    39   19   39 1
    40   20   21 ar
    41   20   40 1
    42   21   22 ar
    43   21   41 1
@<TRIPOS>MOLECULE
ZINC01094859
   51    53     0     0     0
SMALL
USER_CHARGES

@<TRIPOS>ATOM
      1 C1         -0.0187    1.5258    0.0104 C.3       1 <0>        -0.1394
      2 C2          0.0021   -0.0041    0.0020 C.3       1 <0>        -0.0385
      3 C3          0.7421   -0.5109    1.2415 C.3       1 <0>        -0.1411
      4 C4         -1.4333   -0.5336    0.0129 C.3       1 <0>        -0.1476
      5 C5          0.7074   -0.4901   -1.2379 C.ar      1 <0>        -0.0120
      6 C6          0.0361   -1.2843   -2.1485 C.ar      1 <0>        -0.1418
      7 C7          0.6831   -1.7301   -3.2859 C.ar      1 <0>        -0.0166
      8 C8          2.0014   -1.3813   -3.5127 C.ar      1 <0>        -0.6811
      9 C9          2.6724   -0.5863   -2.6025 C.ar      1 <0>        -0.0170
     10 C10         2.0241   -0.1370   -1.4673 C.ar      1 <0>        -0.1362
     11 S1          2.8264   -1.9505   -4.9618 S.o2      1 <0>         2.6887
     12 O1          4.2169   -1.9365   -4.6694 O.2       1 <0>        -0.9541
     13 O2          2.1477   -3.1268   -5.3801 O.2       1 <0>        -0.9540
     14 N1          2.5798   -0.8164   -6.1431 N.pl3     1 <0>        -0.9915
     15 C11         1.4140   -0.9053   -7.0336 C.3       1 <0>         0.1027
     16 C12         0.6350    0.4134   -6.9542 C.3       1 <0>         0.1313
     17 N2          1.5776    1.5271   -7.1304 N.pl3     1 <0>        -0.6703
     18 C13         2.7433    1.6160   -6.2399 C.3       1 <0>         0.1311
     19 C14         3.5194    0.3004   -6.3157 C.3       1 <0>         0.1027
     20 C15         1.3693    2.4848   -8.1280 C.ar      1 <0>         0.1350
     21 C16         0.6307    3.6275   -7.8521 C.ar      1 <0>        -0.0963
     22 C17         0.4270    4.5721   -8.8394 C.ar      1 <0>        -0.1248
     23 C18         0.9570    4.3811  -10.1021 C.ar      1 <0>        -0.0930
     24 C19         1.6931    3.2444  -10.3821 C.ar      1 <0>        -0.1513
     25 C20         1.9063    2.2975   -9.3971 C.ar      1 <0>         0.0908
     26 F1          2.6304    1.1898   -9.6688 F         1 <0>        -0.1336
     27 H1          1.0039    1.9031    0.0027 H         1 <0>         0.0590
     28 H2         -0.5459    1.8868   -0.8726 H         1 <0>         0.0576
     29 H3         -0.5289    1.8773    0.9072 H         1 <0>         0.0634
     30 H4          0.2319   -0.1594    2.1383 H         1 <0>         0.0638
     31 H5          0.7568   -1.6008    1.2356 H         1 <0>         0.0586
     32 H6          1.7647   -0.1336    1.2338 H         1 <0>         0.0594
     33 H7         -1.9605   -0.1726   -0.8702 H         1 <0>         0.0605
     34 H8         -1.4185   -1.6235    0.0069 H         1 <0>         0.0610
     35 H9         -1.9435   -0.1821    0.9097 H         1 <0>         0.0629
     36 H10        -0.9938   -1.5568   -1.9713 H         1 <0>         0.1368
     37 H11         0.1588   -2.3512   -3.9970 H         1 <0>         0.1380
     38 H12         3.7024   -0.3141   -2.7796 H         1 <0>         0.1380
     39 H13         2.5473    0.4872   -0.7580 H         1 <0>         0.1314
     40 H14         1.7479   -1.0719   -8.0578 H         1 <0>         0.0806
     41 H15         0.7735   -1.7283   -6.7167 H         1 <0>         0.0970
     42 H16        -0.1169    0.4422   -7.7429 H         1 <0>         0.0821
     43 H17         0.1510    0.4943   -5.9809 H         1 <0>         0.0598
     44 H18         3.3839    2.4390   -6.5569 H         1 <0>         0.0824
     45 H19         2.4094    1.7825   -5.2158 H         1 <0>         0.0594
     46 H20         4.2688    0.2735   -5.5247 H         1 <0>         0.0971
     47 H21         4.0066    0.2217   -7.2875 H         1 <0>         0.0803
     48 H22         0.2154    3.7777   -6.8665 H         1 <0>         0.1310
     49 H23        -0.1476    5.4610   -8.6247 H         1 <0>         0.1300
     50 H24         0.7956    5.1214  -10.8718 H         1 <0>         0.1328
     51 H25         2.1054    3.0981  -11.3695 H         1 <0>         0.1351
@<TRIPOS>BOND
     1    1    2 1
     2    1   27 1
     3    1   28 1
     4    1   29 1
     5    2    3 1
     6    2    4 1
     7    2    5 1
     8    3   30 1
     9    3   31 1
    10    3   32 1
    11    4   33 1
    12    4   34 1
    13    4   35 1
    14    5   10 ar
    15    5    6 ar
    16    6    7 ar
    17    6   36 1
    18    7    8 ar
    19    7   37 1
    20    8    9 ar
    21    8   11 1
    22    9   10 ar
    23    9   38 1
    24   10   39 1
    25   11   12 2
    26   11   13 2
    27   11   14 1
    28   14   19 1
    29   14   15 1
    30   15   16 1
    31   15   40 1
    32   15   41 1
    33   16   17 1
    34   16   42 1
    35   16   43 1
    36   17   18 1
    37   17   20 1
    38   18   19 1
    39   18   44 1
    40   18   45 1
    41   19   46 1
    42   19   47 1
    43   20   25 ar
    44   20   21 ar
    45   21   22 ar
    46   21   48 1
    47   22   23 ar
    48   22   49 1
    49   23   24 ar
    50   23   50 1
    51   24   25 ar
    52   24   51 1
    53   25   26 1
@<TRIPOS>MOLECULE
ZINC20405017
   45    47     0     0     0
SMALL
USER_CHARGES

@<TRIPOS>ATOM
      1 C1         -0.1078    1.3605    0.1298 C.3       1 <0>         0.0220
      2 O1          0.0531   -0.0514   -0.0214 O.3       1 <0>        -0.3103
      3 C2         -1.0777   -0.8051   -0.0178 C.ar      1 <0>         0.1840
      4 C3         -2.3171   -0.1978    0.1227 C.ar      1 <0>        -0.2286
      5 C4         -3.4651   -0.9662    0.1256 C.ar      1 <0>         0.0220
      6 C5         -3.3796   -2.3395   -0.0108 C.ar      1 <0>        -0.7162
      7 C6         -2.1456   -2.9472   -0.1505 C.ar      1 <0>         0.0190
      8 C7         -0.9950   -2.1827   -0.1602 C.ar      1 <0>        -0.1706
      9 S1         -4.8458   -3.3168   -0.0061 S.o2      1 <0>         2.6933
     10 O2         -4.4614   -4.6236    0.3984 O.2       1 <0>        -0.9537
     11 O3         -5.8330   -2.5646    0.6858 O.2       1 <0>        -0.9547
     12 N1         -5.3579   -3.4388   -1.5762 N.pl3     1 <0>        -0.9928
     13 C8         -6.2811   -2.4446   -2.1412 C.3       1 <0>         0.1050
     14 C9         -5.6500   -1.8541   -3.4081 C.3       1 <0>         0.1332
     15 N2         -5.1890   -2.9582   -4.2616 N.pl3     1 <0>        -0.6657
     16 C10        -4.2658   -3.9523   -3.6966 C.3       1 <0>         0.1327
     17 C11        -4.8926   -4.5397   -2.4313 C.3       1 <0>         0.1048
     18 C12        -5.6189   -3.0606   -5.5795 C.ar      1 <0>         0.4320
     19 C13        -4.8916   -2.4426   -6.5920 C.ar      1 <0>        -0.2406
     20 C14        -5.3308   -2.5526   -7.8988 C.ar      1 <0>        -0.0223
     21 C15        -6.4870   -3.2797   -8.1505 C.ar      1 <0>        -0.1786
     22 C16        -7.1591   -3.8668   -7.0976 C.ar      1 <0>         0.1439
     23 N3         -6.7138   -3.7498   -5.8608 N.ar      1 <0>        -0.4889
     24 C17        -3.6427   -1.6636   -6.2689 C.3       1 <0>         0.5223
     25 F1         -3.0994   -1.1433   -7.4485 F         1 <0>        -0.1792
     26 F2         -3.9593   -0.6147   -5.3990 F         1 <0>        -0.1725
     27 F3         -2.7100   -2.5096   -5.6594 F         1 <0>        -0.1717
     28 H1          0.8699    1.8418    0.1098 H         1 <0>         0.1063
     29 H2         -0.7194    1.7459   -0.6860 H         1 <0>         0.0608
     30 H3         -0.5968    1.5705    1.0811 H         1 <0>         0.0611
     31 H4         -2.3844    0.8747    0.2299 H         1 <0>         0.1386
     32 H5         -4.4302   -0.4939    0.2349 H         1 <0>         0.1418
     33 H6         -2.0814   -4.0201   -0.2565 H         1 <0>         0.1462
     34 H7         -0.0316   -2.6574   -0.2738 H         1 <0>         0.1418
     35 H8         -7.2265   -2.9250   -2.3932 H         1 <0>         0.0835
     36 H9         -6.4536   -1.6509   -1.4143 H         1 <0>         0.0984
     37 H10        -6.3916   -1.2621   -3.9445 H         1 <0>         0.0827
     38 H11        -4.8031   -1.2243   -3.1355 H         1 <0>         0.0682
     39 H12        -4.0934   -4.7460   -4.4235 H         1 <0>         0.0834
     40 H13        -3.3204   -3.4719   -3.4446 H         1 <0>         0.0686
     41 H14        -4.1483   -5.1293   -1.8960 H         1 <0>         0.0993
     42 H15        -5.7369   -5.1727   -2.7045 H         1 <0>         0.0831
     43 H16        -4.7870   -2.0833   -8.7053 H         1 <0>         0.1508
     44 H17        -6.8566   -3.3843   -9.1599 H         1 <0>         0.1499
     45 H18        -8.0588   -4.4328   -7.2889 H         1 <0>         0.1677
@<TRIPOS>BOND
     1    1    2 1
     2    1   28 1
     3    1   29 1
     4    1   30 1
     5    2    3 1
     6    3    8 ar
     7    3    4 ar
     8    4    5 ar
     9    4   31 1
    10    5    6 ar
    11    5   32 1
    12    6    7 ar
    13    6    9 1
    14    7    8 ar
    15    7   33 1
    16    8   34 1
    17    9   10 2
    18    9   11 2
    19    9   12 1
    20   12   17 1
    21   12   13 1
    22   13   14 1
    23   13   35 1
    24   13   36 1
    25   14   15 1
    26   14   37 1
    27   14   38 1
    28   15   16 1
    29   15   18 1
    30   16   17 1
    31   16   39 1
    32   16   40 1
    33   17   41 1
    34   17   42 1
    35   18   23 ar
    36   18   19 ar
    37   19   20 ar
    38   19   24 1
    39   20   21 ar
    40   20   43 1
    41   21   22 ar
    42   21   44 1
    43   22   23 ar
    44   22   45 1
    45   24   25 1
    46   24   26 1
    47   24   27 1
@<TRIPOS>MOLECULE
ZINC35974253
   67    71     0     0     0
SMALL
USER_CHARGES

@<TRIPOS>ATOM
      1 C1          0.1095    1.8052   -0.2392 C.3       1 <0>        -0.1753
      2 C2          0.1988    0.2923   -0.0293 C.3       1 <0>         0.0407
      3 C3          1.0790   -0.0028    1.1868 C.3       1 <0>        -0.1654
      4 C4         -1.1820   -0.2649    0.2029 C.2       1 <0>         0.5046
      5 O1         -1.5895   -0.4238    1.3341 O.2       1 <0>        -0.4707
      6 N1         -1.9641   -0.5868   -0.8465 N.am      1 <0>        -0.7229
      7 C5         -3.3064   -1.1285   -0.6208 C.3       1 <0>         0.1533
      8 C6         -3.2171   -2.6414   -0.4109 C.3       1 <0>        -0.0931
      9 H1         -2.5900   -2.8517    0.4555 H         1 <0>         0.0799
     10 C7         -2.6063   -3.2935   -1.6529 C.3       1 <0>        -0.1090
     11 C8         -3.4865   -2.9983   -2.8690 C.3       1 <0>        -0.0856
     12 C9         -3.5758   -1.4854   -3.0789 C.3       1 <0>        -0.1120
     13 C10        -4.1866   -0.8334   -1.8369 C.3       1 <0>        -0.0902
     14 H2         -4.2502    0.2444   -1.9864 H         1 <0>         0.0883
     15 C11        -5.5885   -1.3992   -1.6011 C.3       1 <0>        -0.0994
     16 C12        -5.4992   -2.9121   -1.3913 C.3       1 <0>         0.1352
     17 C13        -4.6190   -3.2072   -0.1751 C.3       1 <0>        -0.1386
     18 C14        -4.8884   -3.5641   -2.6333 C.3       1 <0>        -0.1412
     19 O2         -6.8086   -3.4405   -1.1711 O.3       1 <0>        -0.5558
     20 N2          0.7853   -0.3337   -1.2218 N.4       1 <0>        -0.3793
     21 C15         0.8603   -1.7866   -1.0230 C.3       1 <0>        -0.0398
     22 C16         1.3645   -2.4517   -2.3080 C.3       1 <0>         0.1047
     23 N3          2.6396   -1.8243   -2.6884 N.pl3     1 <0>        -0.6214
     24 C17         2.6977   -0.3558   -2.7526 C.3       1 <0>         0.1038
     25 C18         2.1305    0.2103   -1.4466 C.3       1 <0>        -0.0325
     26 C19         3.7577   -2.5972   -2.9793 C.ar      1 <0>         0.4192
     27 C20         3.6248   -3.9745   -3.1253 C.ar      1 <0>        -0.2295
     28 C21         4.7455   -4.7314   -3.4148 C.ar      1 <0>         0.0207
     29 C22         5.9665   -4.0832   -3.5490 C.ar      1 <0>        -0.2769
     30 C23         6.0257   -2.7134   -3.3909 C.ar      1 <0>         0.2098
     31 N4          4.9387   -2.0156   -3.1203 N.ar      1 <0>        -0.5313
     32 C24         7.2141   -4.8678   -3.8635 C.3       1 <0>         0.5179
     33 F1          7.3744   -4.9524   -5.2507 F         1 <0>        -0.1721
     34 F2          8.3232   -4.2240   -3.3043 F         1 <0>        -0.1730
     35 F3          7.1029   -6.1552   -3.3275 F         1 <0>        -0.1739
     36 H3          1.1083    2.2083   -0.4072 H         1 <0>         0.0999
     37 H4         -0.5176    2.0155   -1.1056 H         1 <0>         0.0873
     38 H5         -0.3256    2.2697    0.6456 H         1 <0>         0.1169
     39 H6          0.6438    0.4617    2.0716 H         1 <0>         0.1185
     40 H7          1.1426   -1.0807    1.3363 H         1 <0>         0.0848
     41 H8          2.0778    0.4002    1.0188 H         1 <0>         0.0932
     42 H9         -1.6382   -0.4598   -1.7513 H         1 <0>         0.3898
     43 H10        -3.7416   -0.6640    0.2641 H         1 <0>         0.1028
     44 H11        -1.6075   -2.8904   -1.8209 H         1 <0>         0.0493
     45 H12        -2.5427   -4.3713   -1.5034 H         1 <0>         0.0745
     46 H13        -3.0513   -3.4628   -3.7539 H         1 <0>         0.0802
     47 H14        -2.5770   -1.0824   -3.2469 H         1 <0>         0.0523
     48 H15        -4.2029   -1.2752   -3.9453 H         1 <0>         0.0801
     49 H16        -6.0237   -0.9347   -0.7163 H         1 <0>         0.0776
     50 H17        -6.2156   -1.1889   -2.4675 H         1 <0>         0.0829
     51 H18        -4.5554   -4.2850   -0.0256 H         1 <0>         0.0752
     52 H19        -5.0542   -2.7427    0.7097 H         1 <0>         0.0780
     53 H20        -5.5155   -3.3538   -3.4997 H         1 <0>         0.0770
     54 H21        -4.8248   -4.6419   -2.4838 H         1 <0>         0.0703
     55 H22        -6.8281   -4.3969   -1.0301 H         1 <0>         0.3813
     56 H23         1.5475   -2.0067   -0.2061 H         1 <0>         0.1447
     57 H24        -0.1298   -2.1716   -0.7789 H         1 <0>         0.1425
     58 H25         1.5180   -3.5166   -2.1334 H         1 <0>         0.1330
     59 H26         0.6344   -2.3096   -3.1048 H         1 <0>         0.0980
     60 H27         3.7326   -0.0350   -2.8719 H         1 <0>         0.1446
     61 H28         2.1022   -0.0021   -3.5942 H         1 <0>         0.0923
     62 H29         2.0764    1.2969   -1.5146 H         1 <0>         0.1500
     63 H30         2.7793   -0.0701   -0.6168 H         1 <0>         0.1419
     64 H31         2.6596   -4.4461   -3.0139 H         1 <0>         0.1458
     65 H32         4.6729   -5.8024   -3.5334 H         1 <0>         0.1547
     66 H33         6.9732   -2.2054   -3.4941 H         1 <0>         0.1766
     67 H34         0.2056   -0.1359   -2.0236 H         1 <0>         0.4149
@<TRIPOS>BOND
     1    1    2 1
     2    1   36 1
     3    1   37 1
     4    1   38 1
     5    2    3 1
     6    2    4 1
     7    2   20 1
     8    3   39 1
     9    3   40 1
    10    3   41 1
    11    4    5 2
    12    4    6 am
    13    6    7 1
    14    6   42 1
    15    7   13 1
    16    7    8 1
    17    7   43 1
    18    8    9 1
    19    8   17 1
    20    8   10 1
    21   10   11 1
    22   10   44 1
    23   10   45 1
    24   11   18 1
    25   11   12 1
    26   11   46 1
    27   12   13 1
    28   12   47 1
    29   12   48 1
    30   13   14 1
    31   13   15 1
    32   15   16 1
    33   15   49 1
    34   15   50 1
    35   16   17 1
    36   16   18 1
    37   16   19 1
    38   17   51 1
    39   17   52 1
    40   18   53 1
    41   18   54 1
    42   19   55 1
    43   20   25 1
    44   20   21 1
    45   20   67 1
    46   21   22 1
    47   21   56 1
    48   21   57 1
    49   22   23 1
    50   22   58 1
    51   22   59 1
    52   23   24 1
    53   23   26 1
    54   24   25 1
    55   24   60 1
    56   24   61 1
    57   25   62 1
    58   25   63 1
    59   26   31 ar
    60   26   27 ar
    61   27   28 ar
    62   27   64 1
    63   28   29 ar
    64   28   65 1
    65   29   30 ar
    66   29   32 1
    67   30   31 ar
    68   30   66 1
    69   32   33 1
    70   32   34 1
    71   32   35 1
@<TRIPOS>MOLECULE
ZINC35974253
   66    70     0     0     0
SMALL
USER_CHARGES

@<TRIPOS>ATOM
      1 C1          0.1056    1.8017   -0.2273 C.3       1 <0>        -0.1389
      2 C2          0.2067    0.2889   -0.0225 C.3       1 <0>         0.0913
      3 C3          1.0934   -0.0036    1.1896 C.3       1 <0>        -0.1679
      4 C4         -1.1691   -0.2793    0.2128 C.2       1 <0>         0.5287
      5 O1         -1.5714   -0.4446    1.3450 O.2       1 <0>        -0.5346
      6 N1         -1.9525   -0.6036   -0.8348 N.am      1 <0>        -0.7134
      7 C5         -3.2900   -1.1559   -0.6061 C.3       1 <0>         0.1533
      8 C6         -3.1889   -2.6687   -0.4013 C.3       1 <0>        -0.0917
      9 H1         -2.5572   -2.8771    0.4622 H         1 <0>         0.0769
     10 C7         -2.5777   -3.3123   -1.6475 C.3       1 <0>        -0.1119
     11 C8         -3.4644   -3.0199   -2.8596 C.3       1 <0>        -0.0825
     12 C9         -3.5655   -1.5070   -3.0644 C.3       1 <0>        -0.1122
     13 C10        -4.1767   -0.8634   -1.8181 C.3       1 <0>        -0.0890
     14 H2         -4.2487    0.2144   -1.9640 H         1 <0>         0.0843
     15 C11        -5.5735   -1.4402   -1.5792 C.3       1 <0>        -0.0958
     16 C12        -5.4724   -2.9530   -1.3744 C.3       1 <0>         0.1353
     17 C13        -4.5857   -3.2455   -0.1624 C.3       1 <0>        -0.1356
     18 C14        -4.8612   -3.5966   -2.6207 C.3       1 <0>        -0.1374
     19 O2         -6.7771   -3.4918   -1.1513 O.3       1 <0>        -0.5601
     20 N2          0.7936   -0.3291   -1.2191 N.3       1 <0>        -0.5241
     21 C15         0.8125   -1.7931   -1.1000 C.3       1 <0>         0.0234
     22 C16         1.2604   -2.4048   -2.4317 C.3       1 <0>         0.1276
     23 N3          2.5421   -1.7956   -2.8181 N.pl3     1 <0>        -0.6003
     24 C17         2.6403   -0.3282   -2.8274 C.3       1 <0>         0.1268
     25 C18         2.1382    0.2018   -1.4801 C.3       1 <0>         0.0343
     26 C19         3.6315   -2.5858   -3.1659 C.ar      1 <0>         0.4327
     27 C20         3.4573   -3.9521   -3.3632 C.ar      1 <0>        -0.2417
     28 C21         4.5498   -4.7264   -3.7088 C.ar      1 <0>         0.0180
     29 C22         5.7849   -4.1062   -3.8462 C.ar      1 <0>        -0.3051
     30 C23         5.8855   -2.7459   -3.6354 C.ar      1 <0>         0.2111
     31 N4          4.8246   -2.0308   -3.3117 N.ar      1 <0>        -0.5394
     32 C24         7.0029   -4.9105   -4.2211 C.3       1 <0>         0.5209
     33 F1          7.1294   -4.9435   -5.6139 F         1 <0>        -0.1776
     34 F2          8.1417   -4.3196   -3.6632 F         1 <0>        -0.1775
     35 F3          6.8683   -6.2151   -3.7340 F         1 <0>        -0.1788
     36 H3          1.1007    2.2126   -0.3975 H         1 <0>         0.0723
     37 H4         -0.5261    2.0101   -1.0908 H         1 <0>         0.0702
     38 H5         -0.3298    2.2602    0.6606 H         1 <0>         0.0701
     39 H6          0.6580    0.4549    2.0774 H         1 <0>         0.0767
     40 H7          1.1654   -1.0814    1.3354 H         1 <0>         0.0591
     41 H8          2.0885    0.4073    1.0193 H         1 <0>         0.0666
     42 H9         -1.6308   -0.4713   -1.7403 H         1 <0>         0.4080
     43 H10        -3.7255   -0.6974    0.2818 H         1 <0>         0.0893
     44 H11        -1.5826   -2.9014   -1.8177 H         1 <0>         0.0664
     45 H12        -2.5057   -4.3901   -1.5017 H         1 <0>         0.0644
     46 H13        -3.0289   -3.4784   -3.7474 H         1 <0>         0.0755
     47 H14        -2.5704   -1.0961   -3.2346 H         1 <0>         0.0652
     48 H15        -4.1972   -1.2986   -3.9279 H         1 <0>         0.0706
     49 H16        -6.0090   -0.9817   -0.6914 H         1 <0>         0.0728
     50 H17        -6.2053   -1.2318   -2.4427 H         1 <0>         0.0761
     51 H18        -4.5137   -4.3233   -0.0165 H         1 <0>         0.0682
     52 H19        -5.0212   -2.7870    0.7255 H         1 <0>         0.0730
     53 H20        -5.4929   -3.3883   -3.4842 H         1 <0>         0.0715
     54 H21        -4.7892   -4.6744   -2.4748 H         1 <0>         0.0651
     55 H22        -6.7891   -4.4488   -1.0133 H         1 <0>         0.3768
     56 H23         1.5083   -2.0851   -0.3134 H         1 <0>         0.0479
     57 H24        -0.1870   -2.1510   -0.8532 H         1 <0>         0.0962
     58 H25         1.3867   -3.4813   -2.3161 H         1 <0>         0.0899
     59 H26         0.5124   -2.2013   -3.1980 H         1 <0>         0.0803
     60 H27         3.6790   -0.0316   -2.9733 H         1 <0>         0.1036
     61 H28         2.0250    0.0750   -3.6317 H         1 <0>         0.0744
     62 H29         2.1000    1.2908   -1.5089 H         1 <0>         0.0964
     63 H30         2.8155   -0.1179   -0.6882 H         1 <0>         0.0483
     64 H31         2.4822   -4.4018   -3.2476 H         1 <0>         0.1429
     65 H32         4.4450   -5.7894   -3.8680 H         1 <0>         0.1456
     66 H33         6.8441   -2.2597   -3.7408 H         1 <0>         0.1675
@<TRIPOS>BOND
     1    1    2 1
     2    1   36 1
     3    1   37 1
     4    1   38 1
     5    2    3 1
     6    2    4 1
     7    2   20 1
     8    3   39 1
     9    3   40 1
    10    3   41 1
    11    4    5 2
    12    4    6 am
    13    6    7 1
    14    6   42 1
    15    7   13 1
    16    7    8 1
    17    7   43 1
    18    8    9 1
    19    8   17 1
    20    8   10 1
    21   10   11 1
    22   10   44 1
    23   10   45 1
    24   11   18 1
    25   11   12 1
    26   11   46 1
    27   12   13 1
    28   12   47 1
    29   12   48 1
    30   13   14 1
    31   13   15 1
    32   15   16 1
    33   15   49 1
    34   15   50 1
    35   16   17 1
    36   16   18 1
    37   16   19 1
    38   17   51 1
    39   17   52 1
    40   18   53 1
    41   18   54 1
    42   19   55 1
    43   20   25 1
    44   20   21 1
    45   21   22 1
    46   21   56 1
    47   21   57 1
    48   22   23 1
    49   22   58 1
    50   22   59 1
    51   23   24 1
    52   23   26 1
    53   24   25 1
    54   24   60 1
    55   24   61 1
    56   25   62 1
    57   25   63 1
    58   26   31 ar
    59   26   27 ar
    60   27   28 ar
    61   27   64 1
    62   28   29 ar
    63   28   65 1
    64   29   30 ar
    65   29   32 1
    66   30   31 ar
    67   30   66 1
    68   32   33 1
    69   32   34 1
    70   32   35 1
@<TRIPOS>MOLECULE
ZINC28896418
   53    57     0     0     0
SMALL
USER_CHARGES
[(4aS,8aS)-3,4,4a,5,6,7,8,8a-octahydro-1H-isoquinolin-2-yl]-(1-adamantyl)methanone
@<TRIPOS>ATOM
      1 C1         -2.3146    1.1039   -1.0910 C.3       1 <0>        -0.1221
      2 C2         -0.8773    1.6245   -1.1498 C.3       1 <0>        -0.1203
      3 C3         -0.0959    1.1067    0.0596 C.3       1 <0>        -0.1122
      4 C4         -0.7660    1.5951    1.3451 C.3       1 <0>        -0.0954
      5 H1         -0.7808    2.6949    1.3581 H         1 <0>         0.0816
      6 C5          0.0192    1.0792    2.5536 C.3       1 <0>         0.1109
      7 N1         -0.0869   -0.3852    2.6060 N.am      1 <0>        -0.6047
      8 C6         -1.4228   -0.9966    2.5846 C.3       1 <0>         0.0793
      9 C7         -2.1872   -0.4667    1.3677 C.3       1 <0>        -0.1370
     10 C8         -2.2007    1.0638    1.4039 C.3       1 <0>        -0.0807
     11 H2         -2.6776    1.4025    2.3355 H         1 <0>         0.0714
     12 C9         -2.9825    1.5897    0.1970 C.3       1 <0>        -0.1144
     13 C10         1.0192   -1.1525    2.6720 C.2       1 <0>         0.5260
     14 O1          2.1167   -0.6424    2.5937 O.2       1 <0>        -0.5382
     15 C11         0.8922   -2.6444    2.8431 C.3       1 <0>        -0.0665
     16 C12         0.0029   -2.9453    4.0512 C.3       1 <0>        -0.1213
     17 C13        -0.1260   -4.4599    4.2249 C.3       1 <0>        -0.0840
     18 C14         1.2603   -5.0675    4.4482 C.3       1 <0>        -0.1109
     19 C15         2.1496   -4.7666    3.2402 C.3       1 <0>        -0.0869
     20 C16         2.2785   -3.2520    3.0665 C.3       1 <0>        -0.0873
     21 C17         1.5237   -5.3727    1.9825 C.3       1 <0>        -0.1107
     22 C18         0.1374   -4.7652    1.7592 C.3       1 <0>        -0.0839
     23 C19        -0.7519   -5.0661    2.9672 C.3       1 <0>        -0.1110
     24 C20         0.2663   -3.2505    1.5855 C.3       1 <0>        -0.1124
     25 H3         -2.3065    0.0041   -1.1075 H         1 <0>         0.0634
     26 H4         -2.8758    1.4795   -1.9593 H         1 <0>         0.0603
     27 H5         -0.3971    1.2717   -2.0744 H         1 <0>         0.0603
     28 H6         -0.8849    2.7244   -1.1373 H         1 <0>         0.0611
     29 H7         -0.0856    0.0068    0.0459 H         1 <0>         0.0641
     30 H8          0.9367    1.4836    0.0177 H         1 <0>         0.0607
     31 H9          1.0754    1.3705    2.4561 H         1 <0>         0.0932
     32 H10        -0.3975    1.5137    3.4743 H         1 <0>         0.0657
     33 H11        -1.3245   -2.0901    2.5165 H         1 <0>         0.1140
     34 H12        -1.9612   -0.7337    3.5071 H         1 <0>         0.0684
     35 H13        -1.6924   -0.8084    0.4466 H         1 <0>         0.0762
     36 H14        -3.2202   -0.8442    1.3906 H         1 <0>         0.0754
     37 H15        -2.9892    2.6895    0.2142 H         1 <0>         0.0630
     38 H16        -4.0163    1.2160    0.2375 H         1 <0>         0.0628
     39 H17         0.4530   -2.5095    4.9554 H         1 <0>         0.0671
     40 H18        -0.9938   -2.5085    3.8907 H         1 <0>         0.0832
     41 H19        -0.7654   -4.6762    5.0935 H         1 <0>         0.0745
     42 H20         1.7103   -4.6317    5.3524 H         1 <0>         0.0629
     43 H21         1.1676   -6.1564    4.5731 H         1 <0>         0.0645
     44 H22         3.1463   -5.2034    3.4008 H         1 <0>         0.0741
     45 H23         2.9179   -3.0356    2.1980 H         1 <0>         0.0704
     46 H24         2.7285   -2.8162    3.9707 H         1 <0>         0.0672
     47 H25         2.1631   -5.1563    1.1140 H         1 <0>         0.0632
     48 H26         1.4311   -6.4617    2.1073 H         1 <0>         0.0647
     49 H27        -0.3126   -5.2011    0.8550 H         1 <0>         0.0748
     50 H28        -0.8446   -6.1550    3.0921 H         1 <0>         0.0665
     51 H29        -1.7486   -4.6293    2.8066 H         1 <0>         0.0627
     52 H30        -0.7304   -2.8137    1.4250 H         1 <0>         0.0779
     53 H31         0.9056   -3.0341    0.7169 H         1 <0>         0.0683
@<TRIPOS>BOND
     1    1   12 1
     2    1    2 1
     3    1   25 1
     4    1   26 1
     5    2    3 1
     6    2   27 1
     7    2   28 1
     8    3    4 1
     9    3   29 1
    10    3   30 1
    11    4    5 1
    12    4   10 1
    13    4    6 1
    14    6    7 1
    15    6   31 1
    16    6   32 1
    17    7    8 1
    18    7   13 am
    19    8    9 1
    20    8   33 1
    21    8   34 1
    22    9   10 1
    23    9   35 1
    24    9   36 1
    25   10   11 1
    26   10   12 1
    27   12   37 1
    28   12   38 1
    29   13   14 2
    30   13   15 1
    31   15   20 1
    32   15   24 1
    33   15   16 1
    34   16   17 1
    35   16   39 1
    36   16   40 1
    37   17   23 1
    38   17   18 1
    39   17   41 1
    40   18   19 1
    41   18   42 1
    42   18   43 1
    43   19   20 1
    44   19   21 1
    45   19   44 1
    46   20   45 1
    47   20   46 1
    48   21   22 1
    49   21   47 1
    50   21   48 1
    51   22   23 1
    52   22   24 1
    53   22   49 1
    54   23   50 1
    55   23   51 1
    56   24   52 1
    57   24   53 1
@<TRIPOS>MOLECULE
ZINC28896422
   53    57     0     0     0
SMALL
USER_CHARGES
[(4aR,8aS)-3,4,4a,5,6,7,8,8a-octahydro-1H-isoquinolin-2-yl]-(1-adamantyl)methanone
@<TRIPOS>ATOM
      1 C1         -0.9227    1.4002    3.6976 C.3       1 <0>        -0.1210
      2 C2         -0.8403    2.9267    3.7641 C.3       1 <0>        -0.1195
      3 C3         -1.5230    3.5261    2.5334 C.3       1 <0>        -0.1143
      4 C4         -0.8195    3.0345    1.2665 C.3       1 <0>        -0.0938
      5 H1          0.2346    3.3483    1.2848 H         1 <0>         0.0740
      6 C5         -1.5194    3.6303    0.0402 C.3       1 <0>         0.1126
      7 N1         -0.9283    3.0494   -1.1726 N.am      1 <0>        -0.6077
      8 C6         -0.8706    1.5866   -1.2979 C.3       1 <0>         0.0773
      9 C7         -0.1754    1.0142   -0.0590 C.3       1 <0>        -0.1338
     10 C8         -0.8934    1.5073    1.2002 C.3       1 <0>        -0.0809
     11 H2         -1.9478    1.1954    1.1710 H         1 <0>         0.0724
     12 C9         -0.2152    0.9081    2.4338 C.3       1 <0>        -0.1144
     13 C10        -0.4479    3.8425   -2.1507 C.2       1 <0>         0.5254
     14 O1         -0.5875    5.0452   -2.0797 O.2       1 <0>        -0.5385
     15 C11         0.2627    3.2349   -3.3326 C.3       1 <0>        -0.0667
     16 C12         1.4617    2.4201   -2.8431 C.3       1 <0>        -0.1167
     17 C13         2.1832    1.8033   -4.0431 C.3       1 <0>        -0.0841
     18 C14         2.6688    2.9164   -4.9736 C.3       1 <0>        -0.1109
     19 C15         1.4698    3.7312   -5.4631 C.3       1 <0>        -0.0869
     20 C16         0.7484    4.3481   -4.2632 C.3       1 <0>        -0.0874
     21 C17         0.5068    2.8160   -6.2219 C.3       1 <0>        -0.1109
     22 C18         0.0212    1.7028   -5.2914 C.3       1 <0>        -0.0840
     23 C19         1.2201    0.8880   -4.8019 C.3       1 <0>        -0.1112
     24 C20        -0.7003    2.3197   -4.0914 C.3       1 <0>        -0.1181
     25 H3         -1.9777    1.0900    3.6716 H         1 <0>         0.0620
     26 H4         -0.4349    0.9670    4.5832 H         1 <0>         0.0620
     27 H5         -1.3458    3.2819    4.6742 H         1 <0>         0.0633
     28 H6          0.2150    3.2363    3.7863 H         1 <0>         0.0617
     29 H7         -2.5776    3.2140    2.5107 H         1 <0>         0.0645
     30 H8         -1.4664    4.6236    2.5807 H         1 <0>         0.0651
     31 H9         -2.5932    3.3949    0.0805 H         1 <0>         0.0660
     32 H10        -1.3833    4.7218    0.0346 H         1 <0>         0.0921
     33 H11        -1.8917    1.1844   -1.3724 H         1 <0>         0.0689
     34 H12        -0.3039    1.3180   -2.2017 H         1 <0>         0.1166
     35 H13        -0.2090   -0.0847   -0.0946 H         1 <0>         0.0774
     36 H14         0.8724    1.3485   -0.0392 H         1 <0>         0.0694
     37 H15         0.8394    1.2199    2.4590 H         1 <0>         0.0617
     38 H16        -0.2720   -0.1894    2.3855 H         1 <0>         0.0630
     39 H17         2.1540    3.0781   -2.2975 H         1 <0>         0.0672
     40 H18         1.1126    1.6198   -2.1741 H         1 <0>         0.0820
     41 H19         3.0453    1.2176   -3.6913 H         1 <0>         0.0747
     42 H20         3.3612    3.5744   -4.4280 H         1 <0>         0.0630
     43 H21         3.1876    2.4729   -5.8363 H         1 <0>         0.0647
     44 H22         1.8188    4.5315   -6.1322 H         1 <0>         0.0743
     45 H23        -0.1135    4.9340   -4.6151 H         1 <0>         0.0695
     46 H24         1.4408    5.0061   -3.7176 H         1 <0>         0.0683
     47 H25        -0.3552    3.4018   -6.5738 H         1 <0>         0.0633
     48 H26         1.0255    2.3725   -7.0846 H         1 <0>         0.0648
     49 H27        -0.6711    1.0448   -5.8370 H         1 <0>         0.0751
     50 H28         1.7388    0.4445   -5.6646 H         1 <0>         0.0667
     51 H29         0.8710    0.0877   -4.1328 H         1 <0>         0.0628
     52 H30        -1.0494    1.5194   -3.4223 H         1 <0>         0.0804
     53 H31        -1.5623    2.9055   -4.4433 H         1 <0>         0.0686
@<TRIPOS>BOND
     1    1   12 1
     2    1    2 1
     3    1   25 1
     4    1   26 1
     5    2    3 1
     6    2   27 1
     7    2   28 1
     8    3    4 1
     9    3   29 1
    10    3   30 1
    11    4    5 1
    12    4   10 1
    13    4    6 1
    14    6    7 1
    15    6   31 1
    16    6   32 1
    17    7    8 1
    18    7   13 am
    19    8    9 1
    20    8   33 1
    21    8   34 1
    22    9   10 1
    23    9   35 1
    24    9   36 1
    25   10   11 1
    26   10   12 1
    27   12   37 1
    28   12   38 1
    29   13   14 2
    30   13   15 1
    31   15   20 1
    32   15   24 1
    33   15   16 1
    34   16   17 1
    35   16   39 1
    36   16   40 1
    37   17   23 1
    38   17   18 1
    39   17   41 1
    40   18   19 1
    41   18   42 1
    42   18   43 1
    43   19   20 1
    44   19   21 1
    45   19   44 1
    46   20   45 1
    47   20   46 1
    48   21   22 1
    49   21   47 1
    50   21   48 1
    51   22   23 1
    52   22   24 1
    53   22   49 1
    54   23   50 1
    55   23   51 1
    56   24   52 1
    57   24   53 1
@<TRIPOS>MOLECULE
ZINC28896427
   53    57     0     0     0
SMALL
USER_CHARGES
[(4aS,8aR)-3,4,4a,5,6,7,8,8a-octahydro-1H-isoquinolin-2-yl]-(1-adamantyl)methanone
@<TRIPOS>ATOM
      1 C1          5.8349    2.9334   -1.7813 C.3       1 <0>        -0.1209
      2 C2          5.6840    1.4124   -1.8529 C.3       1 <0>        -0.1195
      3 C3          4.7349    0.9436   -0.7487 C.3       1 <0>        -0.1144
      4 C4          3.3647    1.5993   -0.9352 C.3       1 <0>        -0.0938
      5 H1          2.9505    1.3139   -1.9135 H         1 <0>         0.0741
      6 C5          2.4262    1.1329    0.1865 C.3       1 <0>         0.1121
      7 N1          1.1593    1.8679    0.0741 N.am      1 <0>        -0.6080
      8 C6          1.1969    3.3364    0.0406 C.3       1 <0>         0.0796
      9 C7          2.1457    3.7782   -1.0777 C.3       1 <0>        -0.1333
     10 C8          3.5133    3.1212   -0.8728 C.3       1 <0>        -0.0811
     11 H2          3.9173    3.4059    0.1099 H         1 <0>         0.0722
     12 C9          4.4666    3.5894   -1.9747 C.3       1 <0>        -0.1145
     13 C10        -0.0144    1.2086    0.0087 C.2       1 <0>         0.5256
     14 O1         -0.0268   -0.0023   -0.0577 O.2       1 <0>        -0.5385
     15 C11        -1.3111    1.9765    0.0118 C.3       1 <0>        -0.0667
     16 C12        -1.3407    2.9226    1.2138 C.3       1 <0>        -0.1213
     17 C13        -2.6572    3.7021    1.2169 C.3       1 <0>        -0.0840
     18 C14        -3.8294    2.7232    1.3094 C.3       1 <0>        -0.1110
     19 C15        -3.7998    1.7771    0.1074 C.3       1 <0>        -0.0868
     20 C16        -2.4833    0.9975    0.1043 C.3       1 <0>        -0.0876
     21 C17        -3.9145    2.5895   -1.1840 C.3       1 <0>        -0.1108
     22 C18        -2.7423    3.5684   -1.2765 C.3       1 <0>        -0.0840
     23 C19        -2.7719    4.5145   -0.0745 C.3       1 <0>        -0.1111
     24 C20        -1.4258    2.7889   -1.2796 C.3       1 <0>        -0.1127
     25 H3          6.5192    3.2723   -2.5731 H         1 <0>         0.0620
     26 H4          6.2417    3.2163   -0.7992 H         1 <0>         0.0619
     27 H5          5.2740    1.1304   -2.8339 H         1 <0>         0.0616
     28 H6          6.6678    0.9395   -1.7170 H         1 <0>         0.0633
     29 H7          4.6262   -0.1499   -0.7985 H         1 <0>         0.0650
     30 H8          5.1448    1.2270    0.2319 H         1 <0>         0.0642
     31 H9          2.2427    0.0530    0.0857 H         1 <0>         0.0929
     32 H10         2.8916    1.3362    1.1622 H         1 <0>         0.0664
     33 H11         0.1859    3.7247   -0.1521 H         1 <0>         0.1149
     34 H12         1.5573    3.7161    1.0080 H         1 <0>         0.0691
     35 H13         1.7332    3.4726   -2.0506 H         1 <0>         0.0685
     36 H14         2.2564    4.8724   -1.0538 H         1 <0>         0.0775
     37 H15         4.5740    4.6830   -1.9251 H         1 <0>         0.0630
     38 H16         4.0591    3.3051   -2.9561 H         1 <0>         0.0617
     39 H17        -1.2582    2.3385    2.1423 H         1 <0>         0.0673
     40 H18        -0.4980    3.6264    1.1473 H         1 <0>         0.0831
     41 H19        -2.6785    4.3823    2.0811 H         1 <0>         0.0747
     42 H20        -3.7469    2.1391    2.2379 H         1 <0>         0.0630
     43 H21        -4.7759    3.2837    1.3117 H         1 <0>         0.0646
     44 H22        -4.6426    1.0733    0.1739 H         1 <0>         0.0743
     45 H23        -2.4620    0.3173   -0.7599 H         1 <0>         0.0706
     46 H24        -2.4008    0.4134    1.0328 H         1 <0>         0.0674
     47 H25        -3.8932    1.9093   -2.0482 H         1 <0>         0.0633
     48 H26        -4.8610    3.1500   -1.1818 H         1 <0>         0.0649
     49 H27        -2.8248    4.1524   -2.2050 H         1 <0>         0.0750
     50 H28        -3.7184    5.0750   -0.0722 H         1 <0>         0.0666
     51 H29        -1.9292    5.2183   -0.1410 H         1 <0>         0.0628
     52 H30        -0.5831    3.4927   -1.3461 H         1 <0>         0.0783
     53 H31        -1.4044    2.1087   -2.1438 H         1 <0>         0.0686
@<TRIPOS>BOND
     1    1   12 1
     2    1    2 1
     3    1   25 1
     4    1   26 1
     5    2    3 1
     6    2   27 1
     7    2   28 1
     8    3    4 1
     9    3   29 1
    10    3   30 1
    11    4    5 1
    12    4   10 1
    13    4    6 1
    14    6    7 1
    15    6   31 1
    16    6   32 1
    17    7    8 1
    18    7   13 am
    19    8    9 1
    20    8   33 1
    21    8   34 1
    22    9   10 1
    23    9   35 1
    24    9   36 1
    25   10   11 1
    26   10   12 1
    27   12   37 1
    28   12   38 1
    29   13   14 2
    30   13   15 1
    31   15   20 1
    32   15   24 1
    33   15   16 1
    34   16   17 1
    35   16   39 1
    36   16   40 1
    37   17   23 1
    38   17   18 1
    39   17   41 1
    40   18   19 1
    41   18   42 1
    42   18   43 1
    43   19   20 1
    44   19   21 1
    45   19   44 1
    46   20   45 1
    47   20   46 1
    48   21   22 1
    49   21   47 1
    50   21   48 1
    51   22   23 1
    52   22   24 1
    53   22   49 1
    54   23   50 1
    55   23   51 1
    56   24   52 1
    57   24   53 1
@<TRIPOS>MOLECULE
ZINC28896433
   53    57     0     0     0
SMALL
USER_CHARGES
[(4aR,8aR)-3,4,4a,5,6,7,8,8a-octahydro-1H-isoquinolin-2-yl]-(1-adamantyl)methanone
@<TRIPOS>ATOM
      1 C1         -8.1421    4.6095    1.7720 C.3       1 <0>        -0.1222
      2 C2         -8.5436    3.8299    0.5185 C.3       1 <0>        -0.1202
      3 C3         -7.5191    2.7246    0.2536 C.3       1 <0>        -0.1121
      4 C4         -7.4717    1.7772    1.4537 C.3       1 <0>        -0.0956
      5 H1         -8.4660    1.3328    1.6083 H         1 <0>         0.0809
      6 C5         -6.4529    0.6653    1.1893 C.3       1 <0>         0.1111
      7 N1         -5.1108    1.2587    1.1155 N.am      1 <0>        -0.6049
      8 C6         -4.6479    2.0961    2.2307 C.3       1 <0>         0.0791
      9 C7         -5.6878    3.1996    2.4764 C.3       1 <0>        -0.1368
     10 C8         -7.0601    2.5599    2.7032 C.3       1 <0>        -0.0806
     11 H2         -7.0101    1.8778    3.5647 H         1 <0>         0.0718
     12 C9         -8.0909    3.6599    2.9707 C.3       1 <0>        -0.1145
     13 C10        -4.3180    1.0349    0.0488 C.2       1 <0>         0.5258
     14 O1         -4.7438    0.4173   -0.9042 O.2       1 <0>        -0.5383
     15 C11        -2.9025    1.5519    0.0404 C.3       1 <0>        -0.0666
     16 C12        -2.1722    1.0187   -1.1938 C.3       1 <0>        -0.0873
     17 C13        -0.7351    1.5437   -1.2024 C.3       1 <0>        -0.0869
     18 C14        -0.0124    1.0724    0.0611 C.3       1 <0>        -0.1109
     19 C15        -0.7428    1.6057    1.2953 C.3       1 <0>        -0.0840
     20 C16        -2.1798    1.0807    1.3039 C.3       1 <0>        -0.1213
     21 C17        -0.7587    3.1351    1.2573 C.3       1 <0>        -0.1110
     22 C18        -1.4814    3.6064   -0.0063 C.3       1 <0>        -0.0840
     23 C19        -0.7510    3.0731   -1.2404 C.3       1 <0>        -0.1108
     24 C20        -2.9185    3.0814    0.0023 C.3       1 <0>        -0.1124
     25 H3         -8.8812    5.4015    1.9629 H         1 <0>         0.0603
     26 H4         -7.1510    5.0619    1.6200 H         1 <0>         0.0634
     27 H5         -9.5364    3.3807    0.6684 H         1 <0>         0.0611
     28 H6         -8.5765    4.5128   -0.3432 H         1 <0>         0.0603
     29 H7         -7.8101    2.1630   -0.6464 H         1 <0>         0.0607
     30 H8         -6.5266    3.1736    0.1007 H         1 <0>         0.0643
     31 H9         -6.4908   -0.0689    2.0076 H         1 <0>         0.0660
     32 H10        -6.6924    0.1671    0.2383 H         1 <0>         0.0933
     33 H11        -4.5376    1.4768    3.1331 H         1 <0>         0.0685
     34 H12        -3.6774    2.5455    1.9735 H         1 <0>         0.1142
     35 H13        -5.4016    3.7819    3.3646 H         1 <0>         0.0750
     36 H14        -5.7313    3.8640    1.6008 H         1 <0>         0.0766
     37 H15        -7.8035    4.2218    3.8716 H         1 <0>         0.0628
     38 H16        -9.0816    3.2065    3.1219 H         1 <0>         0.0630
     39 H17        -2.1607   -0.0809   -1.1665 H         1 <0>         0.0672
     40 H18        -2.6918    1.3575   -2.1022 H         1 <0>         0.0704
     41 H19        -0.2100    1.1604   -2.0897 H         1 <0>         0.0741
     42 H20        -0.0010   -0.0272    0.0884 H         1 <0>         0.0629
     43 H21         1.0208    1.4498    0.0549 H         1 <0>         0.0645
     44 H22        -0.2233    1.2670    2.2038 H         1 <0>         0.0745
     45 H23        -2.7049    1.4641    2.1912 H         1 <0>         0.0833
     46 H24        -2.1683   -0.0189    1.3313 H         1 <0>         0.0672
     47 H25        -1.2838    3.5185    2.1446 H         1 <0>         0.0627
     48 H26         0.2745    3.5125    1.2511 H         1 <0>         0.0665
     49 H27        -1.4929    4.7060   -0.0337 H         1 <0>         0.0748
     50 H28         0.2822    3.4505   -1.2465 H         1 <0>         0.0647
     51 H29        -1.2705    3.4119   -2.1489 H         1 <0>         0.0632
     52 H30        -3.4381    3.4201   -0.9062 H         1 <0>         0.0682
     53 H31        -3.4437    3.4648    0.8895 H         1 <0>         0.0780
@<TRIPOS>BOND
     1    1   12 1
     2    1    2 1
     3    1   25 1
     4    1   26 1
     5    2    3 1
     6    2   27 1
     7    2   28 1
     8    3    4 1
     9    3   29 1
    10    3   30 1
    11    4    5 1
    12    4   10 1
    13    4    6 1
    14    6    7 1
    15    6   31 1
    16    6   32 1
    17    7    8 1
    18    7   13 am
    19    8    9 1
    20    8   33 1
    21    8   34 1
    22    9   10 1
    23    9   35 1
    24    9   36 1
    25   10   11 1
    26   10   12 1
    27   12   37 1
    28   12   38 1
    29   13   14 2
    30   13   15 1
    31   15   20 1
    32   15   24 1
    33   15   16 1
    34   16   17 1
    35   16   39 1
    36   16   40 1
    37   17   23 1
    38   17   18 1
    39   17   41 1
    40   18   19 1
    41   18   42 1
    42   18   43 1
    43   19   20 1
    44   19   21 1
    45   19   44 1
    46   20   45 1
    47   20   46 1
    48   21   22 1
    49   21   47 1
    50   21   48 1
    51   22   23 1
    52   22   24 1
    53   22   49 1
    54   23   50 1
    55   23   51 1
    56   24   52 1
    57   24   53 1
@<TRIPOS>MOLECULE
ZINC20223943
   41    43     0     0     0
SMALL
USER_CHARGES

@<TRIPOS>ATOM
      1 C1         -0.0516    1.2961    0.1394 C.ar      1 <0>        -0.1782
      2 C2          0.4574    1.0920   -1.1365 C.ar      1 <0>        -0.0217
      3 C3          1.6856    0.4694   -1.2653 C.ar      1 <0>        -0.2391
      4 C4          2.3657    0.0708   -0.1188 C.ar      1 <0>         0.4311
      5 N1          1.8468    0.2834    1.0805 N.ar      1 <0>        -0.4900
      6 C5          0.6771    0.8750    1.2334 C.ar      1 <0>         0.1430
      7 N2          3.6008   -0.5565   -0.2336 N.pl3     1 <0>        -0.6670
      8 C6          4.8417    0.2309   -0.2427 C.3       1 <0>         0.1368
      9 C7          5.7623   -0.2923    0.8668 C.3       1 <0>         0.1011
     10 N3          5.8507   -1.7549    0.7529 N.pl3     1 <0>        -0.9908
     11 C8          4.6098   -2.5423    0.7619 C.3       1 <0>         0.1007
     12 C9          3.6895   -2.0194   -0.3419 C.3       1 <0>         0.1368
     13 S1          7.3221   -2.5022    0.6161 S.o2      1 <0>         2.6905
     14 O1          7.0855   -3.7521   -0.0173 O.2       1 <0>        -0.9438
     15 O2          8.2200   -1.5371    0.0855 O.2       1 <0>        -0.9435
     16 C10         7.8773   -2.8624    2.2491 C.ar      1 <0>        -0.6678
     17 C11         8.6357   -1.9362    2.9410 C.ar      1 <0>        -0.0034
     18 C12         9.0722   -2.2176    4.2218 C.ar      1 <0>        -0.1177
     19 C13         8.7498   -3.4264    4.8125 C.ar      1 <0>         0.0193
     20 C14         7.9900   -4.3536    4.1199 C.ar      1 <0>        -0.0544
     21 C15         7.5496   -4.0681    2.8398 C.ar      1 <0>         0.0012
     22 Cl1         7.5852   -5.8711    4.8594 Cl        1 <0>        -0.0325
     23 Cl2         9.2983   -3.7807    6.4210 Cl        1 <0>        -0.0292
     24 C16         2.2790    0.2255   -2.6290 C.3       1 <0>         0.5217
     25 F1          1.4096    0.7143   -3.6100 F         1 <0>        -0.1788
     26 F2          3.5096    0.8836   -2.7266 F         1 <0>        -0.1714
     27 F3          2.4684   -1.1479   -2.8162 F         1 <0>        -0.1713
     28 H1         -1.0059    1.7834    0.2745 H         1 <0>         0.1498
     29 H2         -0.0936    1.4120   -2.0085 H         1 <0>         0.1514
     30 H3          0.2851    1.0321    2.2274 H         1 <0>         0.1672
     31 H4          5.3356    0.1243   -1.2085 H         1 <0>         0.0728
     32 H5          4.6103    1.2805   -0.0613 H         1 <0>         0.0846
     33 H6          6.7548    0.1440    0.7547 H         1 <0>         0.1023
     34 H7          5.3504   -0.0255    1.8401 H         1 <0>         0.0792
     35 H8          4.8412   -3.5919    0.5806 H         1 <0>         0.1027
     36 H9          4.1159   -2.4356    1.7277 H         1 <0>         0.0790
     37 H10         2.6973   -2.4557   -0.2261 H         1 <0>         0.0847
     38 H11         4.0995   -2.2900   -1.3150 H         1 <0>         0.0726
     39 H12         8.8875   -0.9925    2.4802 H         1 <0>         0.1569
     40 H13         9.6652   -1.4940    4.7614 H         1 <0>         0.1555
     41 H14         6.9534   -4.7893    2.3004 H         1 <0>         0.1595
@<TRIPOS>BOND
     1    1    6 ar
     2    1    2 ar
     3    1   28 1
     4    2    3 ar
     5    2   29 1
     6    3    4 ar
     7    3   24 1
     8    4    5 ar
     9    4    7 1
    10    5    6 ar
    11    6   30 1
    12    7   12 1
    13    7    8 1
    14    8    9 1
    15    8   31 1
    16    8   32 1
    17    9   10 1
    18    9   33 1
    19    9   34 1
    20   10   11 1
    21   10   13 1
    22   11   12 1
    23   11   35 1
    24   11   36 1
    25   12   37 1
    26   12   38 1
    27   13   14 2
    28   13   15 2
    29   13   16 1
    30   16   21 ar
    31   16   17 ar
    32   17   18 ar
    33   17   39 1
    34   18   19 ar
    35   18   40 1
    36   19   20 ar
    37   19   23 1
    38   20   21 ar
    39   20   22 1
    40   21   41 1
    41   24   25 1
    42   24   26 1
    43   24   27 1
@<TRIPOS>MOLECULE
ZINC01025512
   55    58     0     0     0
SMALL
USER_CHARGES

@<TRIPOS>ATOM
      1 C1         -0.0187    1.5271    0.0104 C.3       1 <0>        -0.1520
      2 C2          0.0021   -0.0041    0.0020 C.3       1 <0>        -0.0497
      3 C3          0.5926   -0.5103   -1.3092 C.3       1 <0>        -0.1042
      4 C4          2.1001   -0.2713   -1.3528 C.3       1 <0>         0.1067
      5 H1          2.3203    0.7892   -1.2680 H         1 <0>         0.0588
      6 C5          2.7560   -1.0472   -0.2129 C.3       1 <0>        -0.1399
      7 C6          2.2440   -0.5600    1.1380 C.3       1 <0>        -0.0522
      8 C7          0.7288   -0.5476    1.2181 C.3       1 <0>        -0.1008
      9 C8          2.8244    0.8222    1.4506 C.3       1 <0>        -0.1477
     10 C9          2.7699   -1.5336    2.2161 C.3       1 <0>        -0.1473
     11 O1          2.6143   -0.7500   -2.6020 O.3       1 <0>        -0.5703
     12 C10        -1.4649   -0.4837    0.0702 C.3       1 <0>         0.1186
     13 N1         -2.2000    0.0270   -1.0896 N.pl3     1 <0>        -1.1140
     14 S1         -3.6742   -0.6159   -1.4842 S.o2      1 <0>         2.6989
     15 O2         -4.1371    0.0979   -2.6224 O.2       1 <0>        -0.9549
     16 O3         -3.5148   -2.0279   -1.4834 O.2       1 <0>        -0.9497
     17 C11        -4.7791   -0.2331   -0.1661 C.ar      1 <0>        -0.6974
     18 C12        -4.9085   -1.1052    0.9032 C.ar      1 <0>         0.0067
     19 C13        -5.7690   -0.8194    1.9420 C.ar      1 <0>        -0.1297
     20 C14        -6.5173    0.3518    1.9248 C.ar      1 <0>         0.1363
     21 C15        -6.3841    1.2321    0.8422 C.ar      1 <0>        -0.1416
     22 C16        -5.5092    0.9365   -0.1979 C.ar      1 <0>         0.0465
     23 C17        -7.2981    2.3550    1.1257 C.ar      1 <0>        -0.1177
     24 C18        -7.6241    3.5292    0.4553 C.ar      1 <0>        -0.0633
     25 C19        -8.5449    4.3970    1.0037 C.ar      1 <0>        -0.1305
     26 C20        -9.1431    4.1004    2.2182 C.ar      1 <0>        -0.0809
     27 C21        -8.8268    2.9394    2.8914 C.ar      1 <0>        -0.1093
     28 C22        -7.9014    2.0523    2.3541 C.ar      1 <0>         0.0772
     29 O4         -7.4168    0.8689    2.7903 O.3       1 <0>        -0.1949
     30 H2          1.0039    1.9044    0.0027 H         1 <0>         0.0662
     31 H3         -0.5459    1.8882   -0.8726 H         1 <0>         0.0577
     32 H4         -0.5289    1.8787    0.9072 H         1 <0>         0.0614
     33 H5          0.3936   -1.5804   -1.4087 H         1 <0>         0.0756
     34 H6          0.1204    0.0112   -2.1459 H         1 <0>         0.0717
     35 H7          2.5322   -2.1111   -0.3246 H         1 <0>         0.0721
     36 H8          3.8396   -0.9120   -0.2613 H         1 <0>         0.0643
     37 H9          0.4277    0.0408    2.1003 H         1 <0>         0.0686
     38 H10         0.3788   -1.5764    1.4054 H         1 <0>         0.0670
     39 H11         2.5210    1.5272    0.6767 H         1 <0>         0.0592
     40 H12         2.4531    1.1620    2.4174 H         1 <0>         0.0571
     41 H13         3.9123    0.7612    1.4802 H         1 <0>         0.0551
     42 H14         3.8598   -1.5371    2.2018 H         1 <0>         0.0557
     43 H15         2.4204   -1.2124    3.1973 H         1 <0>         0.0561
     44 H16         2.4006   -2.5381    2.0098 H         1 <0>         0.0558
     45 H17         3.5686   -0.6331   -2.7052 H         1 <0>         0.3777
     46 H18        -1.4914   -1.5733    0.0662 H         1 <0>         0.0845
     47 H19        -1.9264   -0.1123    0.9852 H         1 <0>         0.0699
     48 H20        -1.8232    0.7417   -1.6264 H         1 <0>         0.4199
     49 H21        -4.3303   -2.0172    0.9229 H         1 <0>         0.1560
     50 H22        -5.8619   -1.5066    2.7699 H         1 <0>         0.1475
     51 H23        -5.4053    1.6180   -1.0292 H         1 <0>         0.1479
     52 H24        -7.1577    3.7606   -0.4910 H         1 <0>         0.1339
     53 H25        -8.8001    5.3098    0.4860 H         1 <0>         0.1372
     54 H26        -9.8633    4.7850    2.6412 H         1 <0>         0.1419
     55 H27        -9.2988    2.7189    3.8375 H         1 <0>         0.1383
@<TRIPOS>BOND
     1    1    2 1
     2    1   30 1
     3    1   31 1
     4    1   32 1
     5    2    8 1
     6    2    3 1
     7    2   12 1
     8    3    4 1
     9    3   33 1
    10    3   34 1
    11    4    5 1
    12    4    6 1
    13    4   11 1
    14    6    7 1
    15    6   35 1
    16    6   36 1
    17    7    8 1
    18    7    9 1
    19    7   10 1
    20    8   37 1
    21    8   38 1
    22    9   39 1
    23    9   40 1
    24    9   41 1
    25   10   42 1
    26   10   43 1
    27   10   44 1
    28   11   45 1
    29   12   13 1
    30   12   46 1
    31   12   47 1
    32   13   14 1
    33   13   48 1
    34   14   15 2
    35   14   16 2
    36   14   17 1
    37   17   22 ar
    38   17   18 ar
    39   18   19 ar
    40   18   49 1
    41   19   20 ar
    42   19   50 1
    43   20   29 1
    44   20   21 ar
    45   21   22 ar
    46   21   23 1
    47   22   51 1
    48   23   28 ar
    49   23   24 ar
    50   24   25 ar
    51   24   52 1
    52   25   26 ar
    53   25   53 1
    54   26   27 ar
    55   26   54 1
    56   27   28 ar
    57   27   55 1
    58   28   29 1
@<TRIPOS>MOLECULE
ZINC01025513
   55    58     0     0     0
SMALL
USER_CHARGES

@<TRIPOS>ATOM
      1 C1         -0.0187    1.5272    0.0104 C.3       1 <0>        -0.1521
      2 C2          0.0021   -0.0041    0.0020 C.3       1 <0>        -0.0500
      3 C3         -1.4182   -0.5441   -0.1226 C.3       1 <0>        -0.1035
      4 C4         -2.1906   -0.3433    1.1793 C.3       1 <0>         0.1070
      5 H1         -2.2489    0.7126    1.4287 H         1 <0>         0.0602
      6 C5         -1.4904   -1.1186    2.2930 C.3       1 <0>        -0.1392
      7 C6         -0.0729   -0.5991    2.5054 C.3       1 <0>        -0.0521
      8 C7          0.7288   -0.5474    1.2181 C.3       1 <0>        -0.1011
      9 C8          0.6409   -1.5696    3.4724 C.3       1 <0>        -0.1471
     10 C9         -0.1141    0.7726    3.1849 C.3       1 <0>        -0.1483
     11 O1         -3.5203   -0.8529    1.0183 O.3       1 <0>        -0.5714
     12 C10         0.7824   -0.4458   -1.2560 C.3       1 <0>         0.1188
     13 N1          0.1098    0.0659   -2.4526 N.pl3     1 <0>        -1.1140
     14 S1          0.9006    0.0735   -3.9076 S.o2      1 <0>         2.6992
     15 O2         -0.0121    0.5961   -4.8632 O.2       1 <0>        -0.9550
     16 O3          2.1755    0.6560   -3.6739 O.2       1 <0>        -0.9504
     17 C11         1.1886   -1.6068   -4.3528 C.ar      1 <0>        -0.6978
     18 C12         2.3539   -2.2391   -3.9492 C.ar      1 <0>         0.0066
     19 C13         2.5934   -3.5536   -4.2898 C.ar      1 <0>        -0.1298
     20 C14         1.6632   -4.2584   -5.0445 C.ar      1 <0>         0.1364
     21 C15         0.4853   -3.6164   -5.4509 C.ar      1 <0>        -0.1414
     22 C16         0.2514   -2.2917   -5.0973 C.ar      1 <0>         0.0469
     23 C17        -0.2722   -4.6215   -6.2209 C.ar      1 <0>        -0.1177
     24 C18        -1.4970   -4.6128   -6.8799 C.ar      1 <0>        -0.0630
     25 C19        -1.9349   -5.7504   -7.5247 C.ar      1 <0>        -0.1304
     26 C20        -1.1577   -6.8979   -7.5162 C.ar      1 <0>        -0.0809
     27 C21         0.0578   -6.9175   -6.8656 C.ar      1 <0>        -0.1094
     28 C22         0.5161   -5.7805   -6.2105 C.ar      1 <0>         0.0771
     29 O4          1.6433   -5.5267   -5.5101 O.3       1 <0>        -0.1949
     30 H2          1.0039    1.9045    0.0027 H         1 <0>         0.0635
     31 H3         -0.5459    1.8883   -0.8726 H         1 <0>         0.0592
     32 H4         -0.5289    1.8787    0.9072 H         1 <0>         0.0643
     33 H5         -1.9353   -0.0234   -0.9327 H         1 <0>         0.0703
     34 H6         -1.3824   -1.6102   -0.3605 H         1 <0>         0.0732
     35 H7         -2.0595   -1.0113    3.2200 H         1 <0>         0.0645
     36 H8         -1.4535   -2.1782    2.0274 H         1 <0>         0.0706
     37 H9          1.0878   -1.5642    0.9872 H         1 <0>         0.0654
     38 H10         1.6317    0.0612    1.3898 H         1 <0>         0.0707
     39 H11         0.6639   -2.5675    3.0344 H         1 <0>         0.0546
     40 H12         1.6605   -1.2253    3.6457 H         1 <0>         0.0569
     41 H13         0.1021   -1.6007    4.4194 H         1 <0>         0.0556
     42 H14        -0.6123    0.6850    4.1504 H         1 <0>         0.0549
     43 H15         0.9030    1.1357    3.3324 H         1 <0>         0.0582
     44 H16        -0.6623    1.4736    2.5555 H         1 <0>         0.0597
     45 H17        -4.0746   -0.7613    1.8054 H         1 <0>         0.3782
     46 H18         1.7969   -0.0497   -1.2120 H         1 <0>         0.0861
     47 H19         0.8189   -1.5344   -1.2973 H         1 <0>         0.0681
     48 H20        -0.7988    0.4003   -2.3927 H         1 <0>         0.4202
     49 H21         3.0812   -1.6972   -3.3628 H         1 <0>         0.1559
     50 H22         3.5052   -4.0360   -3.9700 H         1 <0>         0.1475
     51 H23        -0.6586   -1.8002   -5.4083 H         1 <0>         0.1481
     52 H24        -2.1028   -3.7188   -6.8863 H         1 <0>         0.1340
     53 H25        -2.8856   -5.7473   -8.0371 H         1 <0>         0.1373
     54 H26        -1.5075   -7.7849   -8.0234 H         1 <0>         0.1419
     55 H27         0.6547   -7.8176   -6.8649 H         1 <0>         0.1383
@<TRIPOS>BOND
     1    1    2 1
     2    1   30 1
     3    1   31 1
     4    1   32 1
     5    2    8 1
     6    2    3 1
     7    2   12 1
     8    3    4 1
     9    3   33 1
    10    3   34 1
    11    4    5 1
    12    4    6 1
    13    4   11 1
    14    6    7 1
    15    6   35 1
    16    6   36 1
    17    7    8 1
    18    7    9 1
    19    7   10 1
    20    8   37 1
    21    8   38 1
    22    9   39 1
    23    9   40 1
    24    9   41 1
    25   10   42 1
    26   10   43 1
    27   10   44 1
    28   11   45 1
    29   12   13 1
    30   12   46 1
    31   12   47 1
    32   13   14 1
    33   13   48 1
    34   14   15 2
    35   14   16 2
    36   14   17 1
    37   17   22 ar
    38   17   18 ar
    39   18   19 ar
    40   18   49 1
    41   19   20 ar
    42   19   50 1
    43   20   29 1
    44   20   21 ar
    45   21   22 ar
    46   21   23 1
    47   22   51 1
    48   23   28 ar
    49   23   24 ar
    50   24   25 ar
    51   24   52 1
    52   25   26 ar
    53   25   53 1
    54   26   27 ar
    55   26   54 1
    56   27   28 ar
    57   27   55 1
    58   28   29 1
@<TRIPOS>MOLECULE
ZINC01025514
   55    58     0     0     0
SMALL
USER_CHARGES

@<TRIPOS>ATOM
      1 C1         -0.0187    1.5265    0.0104 C.3       1 <0>        -0.1454
      2 C2          0.0021   -0.0041    0.0020 C.3       1 <0>        -0.0460
      3 C3          0.5709   -0.5247   -1.3103 C.3       1 <0>        -0.1026
      4 C4          2.0831   -0.3751   -1.3886 C.3       1 <0>         0.1132
      5 H1          2.4232   -0.8760   -2.3151 H         1 <0>         0.0448
      6 C5          2.7538   -1.0709   -0.2136 C.3       1 <0>        -0.1403
      7 C6          2.2420   -0.5742    1.1303 C.3       1 <0>        -0.0472
      8 C7          0.7281   -0.5497    1.2168 C.3       1 <0>        -0.0971
      9 C8          2.8358    0.7990    1.4566 C.3       1 <0>        -0.1507
     10 C9          2.7561   -1.5552    2.2114 C.3       1 <0>        -0.1501
     11 O1          2.4713    0.9912   -1.4794 O.3       1 <0>        -0.5569
     12 C10        -1.4696   -0.4754    0.0860 C.3       1 <0>         0.1142
     13 N1         -2.2138    0.0392   -1.0662 N.pl3     1 <0>        -1.1132
     14 S1         -3.6960   -0.5948   -1.4449 S.o2      1 <0>         2.6986
     15 O2         -4.1664    0.1214   -2.5786 O.2       1 <0>        -0.9557
     16 O3         -3.5453   -2.0078   -1.4451 O.2       1 <0>        -0.9513
     17 C11        -4.7846   -0.2046   -0.1155 C.ar      1 <0>        -0.6972
     18 C12        -4.9080   -1.0754    0.9555 C.ar      1 <0>         0.0068
     19 C13        -5.7558   -0.7838    2.0032 C.ar      1 <0>        -0.1299
     20 C14        -6.4970    0.3919    1.9932 C.ar      1 <0>         0.1362
     21 C15        -6.3698    1.2709    0.9089 C.ar      1 <0>        -0.1416
     22 C16        -5.5077    0.9694   -0.1402 C.ar      1 <0>         0.0466
     23 C17        -7.2738    2.3995    1.2014 C.ar      1 <0>        -0.1176
     24 C18        -7.5997    3.5754    0.5339 C.ar      1 <0>        -0.0632
     25 C19        -8.5093    4.4491    1.0915 C.ar      1 <0>        -0.1305
     26 C20        -9.0965    4.1567    2.3124 C.ar      1 <0>        -0.0810
     27 C21        -8.7803    2.9940    2.9828 C.ar      1 <0>        -0.1093
     28 C22        -7.8661    2.1011    2.4363 C.ar      1 <0>         0.0772
     29 O4         -7.3841    0.9149    2.8680 O.3       1 <0>        -0.1950
     30 H2          1.0039    1.9038    0.0027 H         1 <0>         0.0814
     31 H3         -0.5459    1.8876   -0.8726 H         1 <0>         0.0518
     32 H4         -0.5289    1.8780    0.9072 H         1 <0>         0.0507
     33 H5          0.3072   -1.5831   -1.4217 H         1 <0>         0.0795
     34 H6          0.1115    0.0214   -2.1428 H         1 <0>         0.0717
     35 H7          2.5795   -2.1511   -0.2878 H         1 <0>         0.0712
     36 H8          3.8368   -0.9064   -0.2689 H         1 <0>         0.0643
     37 H9          0.4348    0.0435    2.0987 H         1 <0>         0.0651
     38 H10         0.3703   -1.5750    1.4089 H         1 <0>         0.0623
     39 H11         2.5492    1.5118    0.6834 H         1 <0>         0.0769
     40 H12         2.4584    1.1381    2.4213 H         1 <0>         0.0504
     41 H13         3.9225    0.7246    1.4973 H         1 <0>         0.0492
     42 H14         3.8460   -1.5703    2.1996 H         1 <0>         0.0539
     43 H15         2.4079   -1.2303    3.1919 H         1 <0>         0.0546
     44 H16         2.3766   -2.5557    2.0042 H         1 <0>         0.0535
     45 H17         3.4275    1.1258   -1.5311 H         1 <0>         0.3757
     46 H18        -1.5029   -1.5649    0.0828 H         1 <0>         0.0819
     47 H19        -1.9192   -0.1009    1.0056 H         1 <0>         0.0673
     48 H20        -1.8382    0.7514   -1.6073 H         1 <0>         0.4205
     49 H21        -4.3352   -1.9909    0.9696 H         1 <0>         0.1557
     50 H22        -5.8441   -1.4701    2.8324 H         1 <0>         0.1474
     51 H23        -5.4084    1.6499   -0.9729 H         1 <0>         0.1479
     52 H24        -7.1418    3.8035   -0.4173 H         1 <0>         0.1339
     53 H25        -8.7643    5.3632    0.5760 H         1 <0>         0.1373
     54 H26        -9.8080    4.8459    2.7427 H         1 <0>         0.1419
     55 H27        -9.2436    2.7770    3.9339 H         1 <0>         0.1383
@<TRIPOS>BOND
     1    1    2 1
     2    1   30 1
     3    1   31 1
     4    1   32 1
     5    2    8 1
     6    2    3 1
     7    2   12 1
     8    3    4 1
     9    3   33 1
    10    3   34 1
    11    4    5 1
    12    4    6 1
    13    4   11 1
    14    6    7 1
    15    6   35 1
    16    6   36 1
    17    7    8 1
    18    7    9 1
    19    7   10 1
    20    8   37 1
    21    8   38 1
    22    9   39 1
    23    9   40 1
    24    9   41 1
    25   10   42 1
    26   10   43 1
    27   10   44 1
    28   11   45 1
    29   12   13 1
    30   12   46 1
    31   12   47 1
    32   13   14 1
    33   13   48 1
    34   14   15 2
    35   14   16 2
    36   14   17 1
    37   17   22 ar
    38   17   18 ar
    39   18   19 ar
    40   18   49 1
    41   19   20 ar
    42   19   50 1
    43   20   29 1
    44   20   21 ar
    45   21   22 ar
    46   21   23 1
    47   22   51 1
    48   23   28 ar
    49   23   24 ar
    50   24   25 ar
    51   24   52 1
    52   25   26 ar
    53   25   53 1
    54   26   27 ar
    55   26   54 1
    56   27   28 ar
    57   27   55 1
    58   28   29 1
@<TRIPOS>MOLECULE
ZINC05493711
   55    58     0     0     0
SMALL
USER_CHARGES

@<TRIPOS>ATOM
      1 C1         -0.0187    1.5265    0.0104 C.3       1 <0>        -0.1457
      2 C2          0.0021   -0.0041    0.0020 C.3       1 <0>        -0.0462
      3 C3         -1.4083   -0.5580   -0.1423 C.3       1 <0>        -0.1023
      4 C4         -2.2111   -0.4473    1.1455 C.3       1 <0>         0.1144
      5 H1         -3.1738   -0.9701    0.9879 H         1 <0>         0.0437
      6 C5         -1.4893   -1.1423    2.2905 C.3       1 <0>        -0.1399
      7 C6         -0.0783   -0.6132    2.4996 C.3       1 <0>        -0.0471
      8 C7          0.7281   -0.5497    1.2167 C.3       1 <0>        -0.0974
      9 C8         -0.1139    0.7495    3.1972 C.3       1 <0>        -0.1512
     10 C9          0.6440   -1.5906    3.4579 C.3       1 <0>        -0.1499
     11 O1         -2.5122    0.9073    1.4615 O.3       1 <0>        -0.5558
     12 C10         0.7983   -0.4374   -1.2524 C.3       1 <0>         0.1144
     13 N1          0.1364    0.0787   -2.4532 N.pl3     1 <0>        -1.1129
     14 S1          0.9423    0.0966   -3.8998 S.o2      1 <0>         2.6986
     15 O2          0.0379    0.6215   -4.8620 O.2       1 <0>        -0.9557
     16 O3          2.2128    0.6819   -3.6497 O.2       1 <0>        -0.9504
     17 C11         1.2404   -1.5804   -4.3509 C.ar      1 <0>        -0.6972
     18 C12         2.4034   -2.2111   -3.9386 C.ar      1 <0>         0.0069
     19 C13         2.6507   -3.5230   -4.2837 C.ar      1 <0>        -0.1298
     20 C14         1.7306   -4.2268   -5.0518 C.ar      1 <0>         0.1361
     21 C15         0.5550   -3.5863   -5.4670 C.ar      1 <0>        -0.1417
     22 C16         0.3132   -2.2643   -5.1088 C.ar      1 <0>         0.0462
     23 C17        -0.1912   -4.5896   -6.2502 C.ar      1 <0>        -0.1176
     24 C18        -1.4091   -4.5813   -6.9218 C.ar      1 <0>        -0.0633
     25 C19        -1.8367   -5.7168   -7.5772 C.ar      1 <0>        -0.1306
     26 C20        -1.0559   -6.8618   -7.5667 C.ar      1 <0>        -0.0810
     27 C21         0.1529   -6.8811   -6.9036 C.ar      1 <0>        -0.1093
     28 C22         0.6006   -5.7461   -6.2378 C.ar      1 <0>         0.0772
     29 O4          1.7197   -5.4926   -5.5243 O.3       1 <0>        -0.1950
     30 H2          1.0039    1.9038    0.0027 H         1 <0>         0.0528
     31 H3         -0.5459    1.8876   -0.8726 H         1 <0>         0.0534
     32 H4         -0.5289    1.8780    0.9072 H         1 <0>         0.0796
     33 H5         -1.9286   -0.0128   -0.9388 H         1 <0>         0.0704
     34 H6         -1.3521   -1.6109   -0.4426 H         1 <0>         0.0769
     35 H7         -2.0650   -1.0057    3.2140 H         1 <0>         0.0645
     36 H8         -1.4431   -2.2188    2.0861 H         1 <0>         0.0697
     37 H9          1.0946   -1.5629    0.9814 H         1 <0>         0.0608
     38 H10         1.6269    0.0634    1.3951 H         1 <0>         0.0673
     39 H11        -0.6014    0.6487    4.1669 H         1 <0>         0.0490
     40 H12         0.9043    1.1121    3.3383 H         1 <0>         0.0515
     41 H13        -0.6699    1.4577    2.5829 H         1 <0>         0.0774
     42 H14         0.6710   -2.5843    3.0109 H         1 <0>         0.0523
     43 H15         1.6623   -1.2427    3.6320 H         1 <0>         0.0554
     44 H16         0.1076   -1.6330    4.4058 H         1 <0>         0.0538
     45 H17        -3.0227    1.0173    2.2754 H         1 <0>         0.3762
     46 H18         1.8110   -0.0382   -1.1957 H         1 <0>         0.0837
     47 H19         0.8387   -1.5256   -1.2991 H         1 <0>         0.0654
     48 H20        -0.7738    0.4098   -2.4009 H         1 <0>         0.4200
     49 H21         3.1229   -1.6701   -3.3418 H         1 <0>         0.1559
     50 H22         3.5607   -4.0043   -3.9570 H         1 <0>         0.1474
     51 H23        -0.5951   -1.7739   -5.4266 H         1 <0>         0.1479
     52 H24        -2.0178   -3.6891   -6.9298 H         1 <0>         0.1339
     53 H25        -2.7820   -5.7139   -8.0994 H         1 <0>         0.1372
     54 H26        -1.3976   -7.7471   -8.0823 H         1 <0>         0.1419
     55 H27         0.7525   -7.7793   -6.9016 H         1 <0>         0.1383
@<TRIPOS>BOND
     1    1    2 1
     2    1   30 1
     3    1   31 1
     4    1   32 1
     5    2    8 1
     6    2    3 1
     7    2   12 1
     8    3    4 1
     9    3   33 1
    10    3   34 1
    11    4    5 1
    12    4    6 1
    13    4   11 1
    14    6    7 1
    15    6   35 1
    16    6   36 1
    17    7    8 1
    18    7    9 1
    19    7   10 1
    20    8   37 1
    21    8   38 1
    22    9   39 1
    23    9   40 1
    24    9   41 1
    25   10   42 1
    26   10   43 1
    27   10   44 1
    28   11   45 1
    29   12   13 1
    30   12   46 1
    31   12   47 1
    32   13   14 1
    33   13   48 1
    34   14   15 2
    35   14   16 2
    36   14   17 1
    37   17   22 ar
    38   17   18 ar
    39   18   19 ar
    40   18   49 1
    41   19   20 ar
    42   19   50 1
    43   20   29 1
    44   20   21 ar
    45   21   22 ar
    46   21   23 1
    47   22   51 1
    48   23   28 ar
    49   23   24 ar
    50   24   25 ar
    51   24   52 1
    52   25   26 ar
    53   25   53 1
    54   26   27 ar
    55   26   54 1
    56   27   28 ar
    57   27   55 1
    58   28   29 1
@<TRIPOS>MOLECULE
ZINC04660857
   54    56     0     0     0
SMALL
USER_CHARGES

@<TRIPOS>ATOM
      1 C1         -0.5788    1.1409   -1.0914 C.3       1 <0>        -0.1529
      2 C2         -0.4597   -0.3765   -0.9352 C.3       1 <0>        -0.1229
      3 C3          0.2964   -0.6985    0.3553 C.3       1 <0>        -0.0586
      4 C4          0.4137   -2.1931    0.5092 C.2       1 <0>         0.1192
      5 C5          1.4406   -2.9505    0.0339 C.2       1 <0>        -0.2154
      6 C6          1.1246   -4.3405    0.4207 C.ar      1 <0>        -0.0688
      7 C7          1.7582   -5.5650    0.2389 C.ar      1 <0>        -0.0846
      8 C8          1.1766   -6.7167    0.7416 C.ar      1 <0>         0.1566
      9 C9         -0.0356   -6.6450    1.4239 C.ar      1 <0>        -0.1351
     10 C10        -0.6668   -5.4341    1.6059 C.ar      1 <0>        -0.0620
     11 C11        -0.0954   -4.2690    1.1081 C.ar      1 <0>         0.0449
     12 O1         -0.4725   -2.9729    1.1380 O.3       1 <0>        -0.1718
     13 N1          1.8065   -7.9530    0.5637 N.pl3     1 <0>        -1.0561
     14 S1          1.9533   -8.9987    1.8393 S.o2      1 <0>         2.6895
     15 O2          2.6477  -10.1387    1.3521 O.2       1 <0>        -0.9422
     16 O3          2.4238   -8.2330    2.9400 O.2       1 <0>        -0.9406
     17 C12         0.3297   -9.5393    2.2593 C.ar      1 <0>        -0.6802
     18 C13        -0.2094   -9.2166    3.4908 C.ar      1 <0>        -0.0203
     19 C14        -1.4829   -9.6407    3.8203 C.ar      1 <0>        -0.1079
     20 C15        -2.2179  -10.3873    2.9181 C.ar      1 <0>        -0.0562
     21 C16        -1.6793  -10.7092    1.6866 C.ar      1 <0>        -0.1349
     22 C17        -0.4070  -10.2813    1.3554 C.ar      1 <0>         0.0147
     23 C18         0.1782  -10.6277    0.0106 C.3       1 <0>        -0.1475
     24 C19        -2.0702   -9.2898    5.1630 C.3       1 <0>        -0.1186
     25 C20         2.6179   -2.4824   -0.7095 C.2       1 <0>         0.5466
     26 O4          3.6239   -2.1541   -0.1109 O.2       1 <0>        -0.4856
     27 O5          2.5829   -2.4170   -2.0557 O.3       1 <0>        -0.3422
     28 C21         3.7635   -1.9527   -2.7135 C.3       1 <0>         0.0571
     29 C22         3.5356   -1.9472   -4.2265 C.3       1 <0>        -0.1523
     30 H1          0.4175    1.5810   -1.1345 H         1 <0>         0.0574
     31 H2         -1.1174    1.3703   -2.0109 H         1 <0>         0.0626
     32 H3         -1.1212    1.5523   -0.2402 H         1 <0>         0.0592
     33 H4         -1.4559   -0.8166   -0.8922 H         1 <0>         0.0727
     34 H5          0.0828   -0.7879   -1.7864 H         1 <0>         0.0729
     35 H6          1.2926   -0.2584    0.3123 H         1 <0>         0.1008
     36 H7         -0.2461   -0.2871    1.2065 H         1 <0>         0.0999
     37 H8          2.6977   -5.6174   -0.2912 H         1 <0>         0.1369
     38 H9         -0.4847   -7.5466    1.8135 H         1 <0>         0.1478
     39 H10        -1.6068   -5.3901    2.1359 H         1 <0>         0.1460
     40 H11         2.1572   -8.1977   -0.3069 H         1 <0>         0.4289
     41 H12         0.3647   -8.6334    4.1956 H         1 <0>         0.1461
     42 H13        -3.2128  -10.7193    3.1758 H         1 <0>         0.1334
     43 H14        -2.2533  -11.2927    0.9820 H         1 <0>         0.1351
     44 H15         0.7895  -11.5257    0.1008 H         1 <0>         0.1003
     45 H16        -0.6276  -10.8068   -0.7012 H         1 <0>         0.0864
     46 H17         0.7962   -9.8013   -0.3405 H         1 <0>         0.0649
     47 H18        -2.6021   -8.3411    5.0902 H         1 <0>         0.0758
     48 H19        -2.7633  -10.0722    5.4721 H         1 <0>         0.0709
     49 H20        -1.2699   -9.2022    5.8979 H         1 <0>         0.0721
     50 H21         3.9932   -0.9417   -2.3770 H         1 <0>         0.0706
     51 H22         4.5966   -2.6135   -2.4740 H         1 <0>         0.0700
     52 H23         3.3058   -2.9582   -4.5630 H         1 <0>         0.0674
     53 H24         2.7025   -1.2864   -4.4660 H         1 <0>         0.0677
     54 H25         4.4361   -1.5931   -4.7283 H         1 <0>         0.0820
@<TRIPOS>BOND
     1    1    2 1
     2    1   30 1
     3    1   31 1
     4    1   32 1
     5    2    3 1
     6    2   33 1
     7    2   34 1
     8    3    4 1
     9    3   35 1
    10    3   36 1
    11    4   12 1
    12    4    5 2
    13    5    6 1
    14    5   25 1
    15    6   11 ar
    16    6    7 ar
    17    7    8 ar
    18    7   37 1
    19    8    9 ar
    20    8   13 1
    21    9   10 ar
    22    9   38 1
    23   10   11 ar
    24   10   39 1
    25   11   12 1
    26   13   14 1
    27   13   40 1
    28   14   15 2
    29   14   16 2
    30   14   17 1
    31   17   22 ar
    32   17   18 ar
    33   18   19 ar
    34   18   41 1
    35   19   20 ar
    36   19   24 1
    37   20   21 ar
    38   20   42 1
    39   21   22 ar
    40   21   43 1
    41   22   23 1
    42   23   44 1
    43   23   45 1
    44   23   46 1
    45   24   47 1
    46   24   48 1
    47   24   49 1
    48   25   26 2
    49   25   27 1
    50   27   28 1
    51   28   29 1
    52   28   50 1
    53   28   51 1
    54   29   52 1
    55   29   53 1
    56   29   54 1
@<TRIPOS>MOLECULE
ZINC04660857
   53    55     0     0     0
SMALL
USER_CHARGES

@<TRIPOS>ATOM
      1 C1         -0.0187    1.5258    0.0104 C.3       1 <0>        -0.1501
      2 C2          0.0021   -0.0041    0.0020 C.3       1 <0>        -0.1237
      3 C3          0.7421   -0.5109    1.2415 C.3       1 <0>        -0.0496
      4 C4          0.7625   -2.0177    1.2333 C.2       1 <0>         0.0927
      5 C5          1.7355   -2.7841    0.6674 C.2       1 <0>        -0.2268
      6 C6          1.3316   -4.1844    0.9071 C.ar      1 <0>        -0.0426
      7 C7          1.8831   -5.4205    0.5877 C.ar      1 <0>        -0.1579
      8 C8          1.2302   -6.5798    0.9713 C.ar      1 <0>         0.2786
      9 C9          0.0288   -6.5041    1.6720 C.ar      1 <0>        -0.2161
     10 C10        -0.5213   -5.2818    1.9899 C.ar      1 <0>        -0.0479
     11 C11         0.1223   -4.1090    1.6128 C.ar      1 <0>        -0.0438
     12 O1         -0.1694   -2.8021    1.7856 O.3       1 <0>        -0.1819
     13 N1          1.7773   -7.8277    0.6546 N.2       1 <0>        -1.0810
     14 S1          0.9969   -9.2144    1.1132 S.o2      1 <0>         2.6047
     15 O2          1.0347   -9.2511    2.5332 O.2       1 <0>        -1.0315
     16 O3         -0.2210   -9.2557    0.3822 O.2       1 <0>        -1.0269
     17 C12         1.9695  -10.5707    0.5483 C.ar      1 <0>        -0.6175
     18 C13         2.5574  -11.4271    1.4606 C.ar      1 <0>        -0.0275
     19 C14         3.3203  -12.4910    1.0175 C.ar      1 <0>        -0.1257
     20 C15         3.4952  -12.6991   -0.3381 C.ar      1 <0>        -0.0784
     21 C16         2.9067  -11.8435   -1.2501 C.ar      1 <0>        -0.1486
     22 C17         2.1400  -10.7817   -0.8070 C.ar      1 <0>         0.0216
     23 C18         1.4940   -9.8519   -1.8015 C.3       1 <0>        -0.1626
     24 C19         3.9620  -13.4239    2.0120 C.3       1 <0>        -0.1090
     25 C20         2.9370   -2.3154   -0.0359 C.2       1 <0>         0.5565
     26 O4          3.9652   -2.1186    0.5823 O.2       1 <0>        -0.4998
     27 O5          2.8995   -2.1035   -1.3668 O.3       1 <0>        -0.3432
     28 C21         4.1045   -1.6480   -1.9854 C.3       1 <0>         0.0572
     29 C22         3.8698   -1.4653   -3.4862 C.3       1 <0>        -0.1508
     30 H1          1.0039    1.9031    0.0027 H         1 <0>         0.0545
     31 H2         -0.5459    1.8868   -0.8726 H         1 <0>         0.0579
     32 H3         -0.5289    1.8773    0.9072 H         1 <0>         0.0559
     33 H4         -1.0205   -0.3814    0.0098 H         1 <0>         0.0713
     34 H5          0.5123   -0.3556   -0.8948 H         1 <0>         0.0721
     35 H6          1.7647   -0.1336    1.2338 H         1 <0>         0.0914
     36 H7          0.2319   -0.1594    2.1383 H         1 <0>         0.0903
     37 H8          2.8145   -5.4758    0.0437 H         1 <0>         0.1169
     38 H9         -0.4761   -7.4116    1.9683 H         1 <0>         0.1139
     39 H10        -1.4537   -5.2347    2.5329 H         1 <0>         0.1200
     40 H11         2.4208  -11.2646    2.5196 H         1 <0>         0.1366
     41 H12         4.0920  -13.5300   -0.6843 H         1 <0>         0.1218
     42 H13         3.0436  -12.0058   -2.3090 H         1 <0>         0.1247
     43 H14         2.1758   -9.0323   -2.0286 H         1 <0>         0.0892
     44 H15         1.2666  -10.3993   -2.7162 H         1 <0>         0.0662
     45 H16         0.5725   -9.4514   -1.3791 H         1 <0>         0.1091
     46 H17         3.2784  -14.2431    2.2352 H         1 <0>         0.0668
     47 H18         4.8843  -13.8247    1.5916 H         1 <0>         0.0637
     48 H19         4.1873  -12.8788    2.9286 H         1 <0>         0.0670
     49 H20         4.4013   -0.6959   -1.5455 H         1 <0>         0.0648
     50 H21         4.8940   -2.3829   -1.8279 H         1 <0>         0.0676
     51 H22         3.5729   -2.4174   -3.9261 H         1 <0>         0.0683
     52 H23         3.0803   -0.7304   -3.6436 H         1 <0>         0.0651
     53 H24         4.7889   -1.1178   -3.9580 H         1 <0>         0.0764
@<TRIPOS>BOND
     1    1    2 1
     2    1   30 1
     3    1   31 1
     4    1   32 1
     5    2    3 1
     6    2   33 1
     7    2   34 1
     8    3    4 1
     9    3   35 1
    10    3   36 1
    11    4   12 1
    12    4    5 2
    13    5    6 1
    14    5   25 1
    15    6   11 ar
    16    6    7 ar
    17    7    8 ar
    18    7   37 1
    19    8    9 ar
    20    8   13 1
    21    9   10 ar
    22    9   38 1
    23   10   11 ar
    24   10   39 1
    25   11   12 1
    26   13   14 1
    27   14   15 2
    28   14   16 2
    29   14   17 1
    30   17   22 ar
    31   17   18 ar
    32   18   19 ar
    33   18   40 1
    34   19   20 ar
    35   19   24 1
    36   20   21 ar
    37   20   41 1
    38   21   22 ar
    39   21   42 1
    40   22   23 1
    41   23   43 1
    42   23   44 1
    43   23   45 1
    44   24   46 1
    45   24   47 1
    46   24   48 1
    47   25   26 2
    48   25   27 1
    49   27   28 1
    50   28   29 1
    51   28   49 1
    52   28   50 1
    53   29   51 1
    54   29   52 1
    55   29   53 1
@<TRIPOS>MOLECULE
ZINC01021232
   40    42     0     0     0
SMALL
USER_CHARGES
N-[(2,4-dihydroxy-6-methyl-phenyl)methyleneamino]-7,10-dioxabicyclo[4.4.0]deca-2,4,11-triene-8-carboxamide
@<TRIPOS>ATOM
      1 C1         -5.3310   12.0247    1.0731 C.3       1 <0>        -0.1234
      2 C2         -4.1444   12.5581    0.3125 C.ar      1 <0>        -0.0211
      3 C3         -4.0918   13.8897   -0.0380 C.ar      1 <0>        -0.1620
      4 C4         -2.9996   14.3858   -0.7393 C.ar      1 <0>         0.1486
      5 C5         -1.9540   13.5445   -1.0918 C.ar      1 <0>        -0.1882
      6 C6         -1.9923   12.2070   -0.7402 C.ar      1 <0>         0.1720
      7 C7         -3.0966   11.7029   -0.0373 C.ar      1 <0>        -0.1010
      8 C8         -3.1483   10.2788    0.3357 C.2       1 <0>         0.1099
      9 N1         -2.1731    9.4864    0.0093 N.2       1 <0>        -0.2022
     10 N2         -2.2223    8.1319    0.3641 N.am      1 <0>        -0.5839
     11 C9         -1.2100    7.3093    0.0252 C.2       1 <0>         0.5413
     12 O1         -0.2560    7.7417   -0.5871 O.2       1 <0>        -0.4619
     13 C10        -1.2629    5.8524    0.4069 C.3       1 <0>         0.0420
     14 H1         -1.4017    5.7589    1.4839 H         1 <0>         0.1161
     15 C11        -2.4244    5.1674   -0.3260 C.3       1 <0>         0.0340
     16 O2         -2.4371    3.7853    0.0479 O.3       1 <0>        -0.2981
     17 C12        -1.2410    3.1361    0.0299 C.ar      1 <0>         0.0432
     18 C13        -1.2193    1.7493    0.0173 C.ar      1 <0>        -0.1098
     19 C14        -0.0126    1.0758    0.0080 C.ar      1 <0>        -0.1133
     20 C15         1.1759    1.7821    0.0004 C.ar      1 <0>        -0.1109
     21 C16         1.1613    3.1640    0.0067 C.ar      1 <0>        -0.1080
     22 C17        -0.0464    3.8461    0.0203 C.ar      1 <0>         0.0509
     23 O3         -0.0451    5.2072    0.0190 O.3       1 <0>        -0.2776
     24 O4         -0.9670   11.3837   -1.0792 O.3       1 <0>        -0.4709
     25 O5         -2.9555   15.6997   -1.0815 O.3       1 <0>        -0.4969
     26 H2         -5.1453   12.1114    2.1436 H         1 <0>         0.0806
     27 H3         -6.2191   12.5998    0.8107 H         1 <0>         0.0771
     28 H4         -5.4871   10.9773    0.8150 H         1 <0>         0.0710
     29 H5         -4.9024   14.5500    0.2330 H         1 <0>         0.1377
     30 H6         -1.1073   13.9351   -1.6369 H         1 <0>         0.1400
     31 H7         -3.9975    9.8939    0.8808 H         1 <0>         0.1253
     32 H8         -2.9851    7.7862    0.8536 H         1 <0>         0.3849
     33 H9         -2.2826    5.2555   -1.4031 H         1 <0>         0.0879
     34 H10        -3.3669    5.6343   -0.0399 H         1 <0>         0.1261
     35 H11        -2.1463    1.1952    0.0194 H         1 <0>         0.1371
     36 H12         0.0021   -0.0041    0.0020 H         1 <0>         0.1353
     37 H13         2.1174    1.2531   -0.0101 H         1 <0>         0.1359
     38 H14         2.0911    3.7134    0.0014 H         1 <0>         0.1384
     39 H15        -1.0718   10.9596   -1.9419 H         1 <0>         0.3962
     40 H16        -2.5371   16.2651   -0.4179 H         1 <0>         0.3976
@<TRIPOS>BOND
     1    1    2 1
     2    1   26 1
     3    1   27 1
     4    1   28 1
     5    2    7 ar
     6    2    3 ar
     7    3    4 ar
     8    3   29 1
     9    4    5 ar
    10    4   25 1
    11    5    6 ar
    12    5   30 1
    13    6    7 ar
    14    6   24 1
    15    7    8 1
    16    8    9 2
    17    8   31 1
    18    9   10 1
    19   10   11 am
    20   10   32 1
    21   11   12 2
    22   11   13 1
    23   13   14 1
    24   13   23 1
    25   13   15 1
    26   15   16 1
    27   15   33 1
    28   15   34 1
    29   16   17 1
    30   17   22 ar
    31   17   18 ar
    32   18   19 ar
    33   18   35 1
    34   19   20 ar
    35   19   36 1
    36   20   21 ar
    37   20   37 1
    38   21   22 ar
    39   21   38 1
    40   22   23 1
    41   24   39 1
    42   25   40 1
@<TRIPOS>MOLECULE
ZINC01021234
   40    42     0     0     0
SMALL
USER_CHARGES
N-[(2,4-dihydroxy-6-methyl-phenyl)methyleneamino]-7,10-dioxabicyclo[4.4.0]deca-2,4,11-triene-8-carboxamide
@<TRIPOS>ATOM
      1 C1          4.7317    5.7162   -0.0114 C.3       1 <0>        -0.1234
      2 C2          3.4145    6.4483    0.0041 C.ar      1 <0>        -0.0212
      3 C3          3.3914    7.8261    0.0112 C.ar      1 <0>        -0.1620
      4 C4          2.1792    8.5053    0.0255 C.ar      1 <0>         0.1486
      5 C5          0.9833    7.8016    0.0336 C.ar      1 <0>        -0.1881
      6 C6          0.9935    6.4182    0.0212 C.ar      1 <0>         0.1720
      7 C7          2.2160    5.7306    0.0117 C.ar      1 <0>        -0.1009
      8 C8          2.2360    4.2577    0.0036 C.2       1 <0>         0.1099
      9 N1          1.1205    3.5933    0.0107 N.2       1 <0>        -0.2022
     10 N2          1.1395    2.1925    0.0030 N.am      1 <0>        -0.5839
     11 C9         -0.0184    1.5028    0.0103 C.2       1 <0>         0.5412
     12 O1         -1.0772    2.0950    0.0185 O.2       1 <0>        -0.4619
     13 C10         0.0021   -0.0041    0.0020 C.3       1 <0>         0.0421
     14 H1          0.6120   -0.3679    0.8289 H         1 <0>         0.1157
     15 C11         0.5794   -0.5065   -1.3282 C.3       1 <0>         0.0340
     16 O2          0.5718   -1.9382   -1.3075 O.3       1 <0>        -0.2980
     17 C12        -0.5720   -2.5374   -0.8770 C.ar      1 <0>         0.0435
     18 C13        -0.7862   -3.8782   -1.1604 C.ar      1 <0>        -0.1099
     19 C14        -1.9398   -4.5021   -0.7247 C.ar      1 <0>        -0.1131
     20 C15        -2.8831   -3.7921   -0.0053 C.ar      1 <0>        -0.1112
     21 C16        -2.6763   -2.4557    0.2794 C.ar      1 <0>        -0.1080
     22 C17        -1.5213   -1.8231   -0.1560 C.ar      1 <0>         0.0507
     23 O3         -1.3328   -0.5057    0.1296 O.3       1 <0>        -0.2778
     24 O4         -0.1762    5.7282    0.0230 O.3       1 <0>        -0.4711
     25 O5          2.1649    9.8636    0.0320 O.3       1 <0>        -0.4968
     26 H2          5.0398    5.5446   -1.0427 H         1 <0>         0.0806
     27 H3          5.4863    6.3152    0.4984 H         1 <0>         0.0771
     28 H4          4.6216    4.7594    0.4990 H         1 <0>         0.0710
     29 H5          4.3186    8.3799    0.0053 H         1 <0>         0.1377
     30 H6          0.0438    8.3342    0.0447 H         1 <0>         0.1400
     31 H7          3.1785    3.7305   -0.0083 H         1 <0>         0.1254
     32 H8          1.9860    1.7190   -0.0077 H         1 <0>         0.3850
     33 H9         -0.0343   -0.1473   -2.1543 H         1 <0>         0.0884
     34 H10         1.6014   -0.1460   -1.4449 H         1 <0>         0.1263
     35 H11        -0.0507   -4.4352   -1.7218 H         1 <0>         0.1371
     36 H12        -2.1045   -5.5463   -0.9462 H         1 <0>         0.1353
     37 H13        -3.7831   -4.2828    0.3348 H         1 <0>         0.1359
     38 H14        -3.4146   -1.9035    0.8418 H         1 <0>         0.1383
     39 H15        -0.5108    5.5236    0.9069 H         1 <0>         0.3964
     40 H16         2.1527   10.2610   -0.8494 H         1 <0>         0.3976
@<TRIPOS>BOND
     1    1    2 1
     2    1   26 1
     3    1   27 1
     4    1   28 1
     5    2    7 ar
     6    2    3 ar
     7    3    4 ar
     8    3   29 1
     9    4    5 ar
    10    4   25 1
    11    5    6 ar
    12    5   30 1
    13    6    7 ar
    14    6   24 1
    15    7    8 1
    16    8    9 2
    17    8   31 1
    18    9   10 1
    19   10   11 am
    20   10   32 1
    21   11   12 2
    22   11   13 1
    23   13   14 1
    24   13   23 1
    25   13   15 1
    26   15   16 1
    27   15   33 1
    28   15   34 1
    29   16   17 1
    30   17   22 ar
    31   17   18 ar
    32   18   19 ar
    33   18   35 1
    34   19   20 ar
    35   19   36 1
    36   20   21 ar
    37   20   37 1
    38   21   22 ar
    39   21   38 1
    40   22   23 1
    41   24   39 1
    42   25   40 1
@<TRIPOS>MOLECULE
ZINC08442939
   60    63     0     0     0
SMALL
USER_CHARGES
N-(1-adamantyl)-3-[2-(4-bromo-3-methyl-phenoxy)acetyl]aminoimino-butanamide
@<TRIPOS>ATOM
      1 C1         -8.3173   13.7497    2.2149 C.3       1 <0>        -0.1290
      2 C2         -6.9220   13.1903    2.3204 C.ar      1 <0>        -0.0131
      3 C3         -6.7251   11.8228    2.3268 C.ar      1 <0>        -0.1432
      4 C4         -5.4406   11.3085    2.4235 C.ar      1 <0>         0.1492
      5 C5         -4.3563   12.1688    2.5193 C.ar      1 <0>        -0.2131
      6 C6         -4.5570   13.5353    2.5068 C.ar      1 <0>        -0.0435
      7 C7         -5.8392   14.0463    2.4103 C.ar      1 <0>        -0.1319
      8 Br1        -6.1115   15.9176    2.4007 Br        1 <0>        -0.0453
      9 O1         -5.2448    9.9635    2.4299 O.3       1 <0>        -0.2839
     10 C8         -3.8952    9.5049    2.5320 C.3       1 <0>         0.0467
     11 C9         -3.8748    7.9980    2.5237 C.2       1 <0>         0.5323
     12 O2         -4.9138    7.3778    2.4387 O.2       1 <0>        -0.4765
     13 N1         -2.7021    7.3395    2.6107 N.am      1 <0>        -0.5828
     14 N2         -2.6831    5.9386    2.6030 N.2       1 <0>        -0.2302
     15 C10        -1.5692    5.3132    2.6856 C.2       1 <0>         0.1258
     16 C11        -0.2784    6.0837    2.7912 C.3       1 <0>        -0.1556
     17 C12        -1.5488    3.8063    2.6774 C.3       1 <0>        -0.0879
     18 C13        -0.8434    3.3203    1.4375 C.2       1 <0>         0.5244
     19 O3         -0.4009    4.1189    0.6392 O.2       1 <0>        -0.5268
     20 N3         -0.7044    1.9982    1.2158 N.am      1 <0>        -0.7237
     21 C14        -0.0187    1.5258    0.0104 C.3       1 <0>         0.1848
     22 C15         1.4167    2.0553   -0.0004 C.3       1 <0>        -0.1207
     23 C16         2.1328    1.5619   -1.2592 C.3       1 <0>        -0.0827
     24 C17         2.1536    0.0321   -1.2676 C.3       1 <0>        -0.1115
     25 C18         0.7182   -0.4975   -1.2568 C.3       1 <0>        -0.0806
     26 C19         0.0021   -0.0041    0.0020 C.3       1 <0>        -0.1153
     27 C20        -0.0218    0.0093   -2.4963 C.3       1 <0>        -0.1119
     28 C21        -0.0425    1.5392   -2.4879 C.3       1 <0>        -0.0829
     29 C22         1.3929    2.0688   -2.4988 C.3       1 <0>        -0.1093
     30 C23        -0.7587    2.0326   -1.2291 C.3       1 <0>        -0.1223
     31 H1         -8.7339   13.8779    3.2140 H         1 <0>         0.0832
     32 H2         -8.2847   14.7143    1.7084 H         1 <0>         0.0809
     33 H3         -8.9426   13.0616    1.6461 H         1 <0>         0.0768
     34 H4         -7.5708   11.1548    2.2570 H         1 <0>         0.1432
     35 H5         -3.3557   11.7703    2.5991 H         1 <0>         0.1366
     36 H6         -3.7129   14.2053    2.5772 H         1 <0>         0.1375
     37 H7         -3.4570    9.8691    3.4612 H         1 <0>         0.1005
     38 H8         -3.3188    9.8807    1.6867 H         1 <0>         0.1008
     39 H9         -1.8712    7.8354    2.6787 H         1 <0>         0.3883
     40 H10         0.1126    6.2762    1.7921 H         1 <0>         0.0973
     41 H11        -0.4612    7.0309    3.2986 H         1 <0>         0.0637
     42 H12         0.4470    5.5013    3.3593 H         1 <0>         0.0842
     43 H13        -2.5714    3.4291    2.6851 H         1 <0>         0.1168
     44 H14        -1.0216    3.4453    3.5604 H         1 <0>         0.1206
     45 H15        -1.0583    1.3595    1.8542 H         1 <0>         0.4012
     46 H16         1.4019    3.1452    0.0056 H         1 <0>         0.0852
     47 H17         1.9439    1.6943    0.8826 H         1 <0>         0.0597
     48 H18         3.1554    1.9392   -1.2670 H         1 <0>         0.0720
     49 H19         2.6808   -0.3290   -0.3846 H         1 <0>         0.0625
     50 H20         2.6638   -0.3194   -2.1644 H         1 <0>         0.0649
     51 H21         0.7330   -1.5874   -1.2628 H         1 <0>         0.0753
     52 H22         0.5293   -0.3651    0.8851 H         1 <0>         0.0690
     53 H23        -1.0205   -0.3814    0.0098 H         1 <0>         0.0690
     54 H24         0.4884   -0.3422   -3.3931 H         1 <0>         0.0649
     55 H25        -1.0444   -0.3679   -2.4886 H         1 <0>         0.0627
     56 H26        -0.5697    1.9003   -3.3710 H         1 <0>         0.0719
     57 H27         1.3781    3.1587   -2.4928 H         1 <0>         0.0641
     58 H28         1.9030    1.7172   -3.3956 H         1 <0>         0.0626
     59 H29        -1.7813    1.6553   -1.2214 H         1 <0>         0.0598
     60 H30        -0.7734    3.1225   -1.2231 H         1 <0>         0.0850
@<TRIPOS>BOND
     1    1    2 1
     2    1   31 1
     3    1   32 1
     4    1   33 1
     5    2    7 ar
     6    2    3 ar
     7    3    4 ar
     8    3   34 1
     9    4    5 ar
    10    4    9 1
    11    5    6 ar
    12    5   35 1
    13    6    7 ar
    14    6   36 1
    15    7    8 1
    16    9   10 1
    17   10   11 1
    18   10   37 1
    19   10   38 1
    20   11   12 2
    21   11   13 am
    22   13   14 1
    23   13   39 1
    24   14   15 2
    25   15   16 1
    26   15   17 1
    27   16   40 1
    28   16   41 1
    29   16   42 1
    30   17   18 1
    31   17   43 1
    32   17   44 1
    33   18   19 2
    34   18   20 am
    35   20   21 1
    36   20   45 1
    37   21   26 1
    38   21   30 1
    39   21   22 1
    40   22   23 1
    41   22   46 1
    42   22   47 1
    43   23   29 1
    44   23   24 1
    45   23   48 1
    46   24   25 1
    47   24   49 1
    48   24   50 1
    49   25   26 1
    50   25   27 1
    51   25   51 1
    52   26   52 1
    53   26   53 1
    54   27   28 1
    55   27   54 1
    56   27   55 1
    57   28   29 1
    58   28   30 1
    59   28   56 1
    60   29   57 1
    61   29   58 1
    62   30   59 1
    63   30   60 1
@<TRIPOS>MOLECULE
ZINC40955326
   39    41     0     0     0
SMALL
USER_CHARGES

@<TRIPOS>ATOM
      1 C1         -0.0164    1.3593    0.0095 C.2       1 <0>         0.0399
      2 C2          1.1868    2.0698    0.0018 C.2       1 <0>        -0.3047
      3 C3          2.3785    1.4054   -0.0131 C.2       1 <0>         0.4577
      4 N1          2.4113    0.0392   -0.0208 N.pl3     1 <0>        -0.6441
      5 H1          3.2635   -0.4239   -0.0311 H         1 <0>         0.4073
      6 C4          1.2386   -0.6816   -0.0134 C.2       1 <0>         0.5408
      7 N2          1.2715   -1.9997   -0.0204 N.2       1 <0>        -1.0108
      8 S1          2.7258   -2.7916   -0.0380 S.o2      1 <0>         2.6119
      9 O1          3.3342   -2.4958   -1.2876 O.2       1 <0>        -0.9928
     10 O2          3.3575   -2.5083    1.2030 O.2       1 <0>        -0.9928
     11 C5          2.3783   -4.5190   -0.0434 C.ar      1 <0>        -0.6273
     12 C6          2.2480   -5.1994    1.1540 C.ar      1 <0>        -0.0147
     13 C7          1.9758   -6.5523    1.1558 C.ar      1 <0>        -0.1277
     14 C8          1.8318   -7.2332   -0.0520 C.ar      1 <0>         0.0019
     15 C9          1.9638   -6.5422   -1.2555 C.ar      1 <0>        -0.1277
     16 C10         2.2312   -5.1884   -1.2451 C.ar      1 <0>        -0.0148
     17 C11         1.5399   -8.6869   -0.0566 C.ar      1 <0>        -0.0279
     18 C12         1.4033   -9.3741    1.1498 C.ar      1 <0>        -0.1044
     19 C13         1.1322  -10.7237    1.1470 C.ar      1 <0>        -0.0671
     20 C14         0.9935  -11.4054   -0.0652 C.ar      1 <0>        -0.0207
     21 C15         1.1302  -10.7156   -1.2730 C.ar      1 <0>        -0.0671
     22 C16         1.3964   -9.3651   -1.2673 C.ar      1 <0>        -0.1044
     23 C17         0.7120  -12.8095   -0.0696 C.1       1 <0>         0.2487
     24 N3          0.4888  -13.9233   -0.0731 N.1       1 <0>        -0.4079
     25 C18         0.0021   -0.0041    0.0020 C.2       1 <0>        -0.2232
     26 N4          3.5572    2.1170   -0.0210 N.pl3     1 <0>        -0.8485
     27 H2         -0.9579    1.8882    0.0258 H         1 <0>         0.1486
     28 H3          1.1734    3.1497    0.0074 H         1 <0>         0.1508
     29 H4          2.3597   -4.6708    2.0891 H         1 <0>         0.1436
     30 H5          1.8750   -7.0826    2.0913 H         1 <0>         0.1395
     31 H6          1.8536   -7.0647   -2.1943 H         1 <0>         0.1395
     32 H7          2.3296   -4.6512   -2.1768 H         1 <0>         0.1436
     33 H8          1.5105   -8.8470    2.0863 H         1 <0>         0.1400
     34 H9          1.0272  -11.2556    2.0810 H         1 <0>         0.1386
     35 H10         1.0236  -11.2413   -2.2104 H         1 <0>         0.1386
     36 H11         1.4980   -8.8310   -2.2004 H         1 <0>         0.1400
     37 H12        -0.9233   -0.5608    0.0082 H         1 <0>         0.1622
     38 H13         3.5384    3.0868   -0.0159 H         1 <0>         0.4276
     39 H14         4.4065    1.6485   -0.0316 H         1 <0>         0.4078
@<TRIPOS>BOND
     1    1   25 2
     2    1    2 1
     3    1   27 1
     4    2    3 2
     5    2   28 1
     6    3    4 1
     7    3   26 1
     8    4    5 1
     9    4    6 1
    10    6    7 2
    11    6   25 1
    12    7    8 1
    13    8    9 2
    14    8   10 2
    15    8   11 1
    16   11   16 ar
    17   11   12 ar
    18   12   13 ar
    19   12   29 1
    20   13   14 ar
    21   13   30 1
    22   14   15 ar
    23   14   17 1
    24   15   16 ar
    25   15   31 1
    26   16   32 1
    27   17   22 ar
    28   17   18 ar
    29   18   19 ar
    30   18   33 1
    31   19   20 ar
    32   19   34 1
    33   20   21 ar
    34   20   23 1
    35   21   22 ar
    36   21   35 1
    37   22   36 1
    38   23   24 3
    39   25   37 1
    40   26   38 1
    41   26   39 1
@<TRIPOS>MOLECULE
ZINC38407010
   89    93     0     0     0
SMALL
USER_CHARGES

@<TRIPOS>ATOM
      1 C1          0.6478    1.7221   -2.5122 C.3       1 <0>        -0.1467
      2 C2          0.6556    0.1905   -2.5968 C.3       1 <0>        -0.0450
      3 C3         -0.6827   -0.2509   -3.1888 C.3       1 <0>        -0.1006
      4 C4         -0.7928   -1.7712   -3.2105 C.3       1 <0>        -0.0862
      5 C5         -0.6371   -2.3454   -1.8031 C.3       1 <0>        -0.1304
      6 C6          0.7005   -1.9051   -1.2097 C.3       1 <0>        -0.0675
      7 C7          0.8315   -0.3866   -1.1956 C.3       1 <0>        -0.0476
      8 H1          0.0685    0.0442   -0.5339 H         1 <0>         0.1106
      9 C8          2.1989   -0.0002   -0.6629 C.2       1 <0>         0.0054
     10 C9          2.2453    0.3774    0.6206 C.2       1 <0>        -0.2616
     11 C10         3.5059    0.7839    1.2581 C.2       1 <0>         0.4006
     12 O1          3.4910    1.2855    2.3648 O.2       1 <0>        -0.4574
     13 C11         4.7763    0.5184    0.4842 C.3       1 <0>        -0.1132
     14 H2          4.9758   -0.5735    0.5633 H         1 <0>         0.0972
     15 C12         5.9960    1.1950    1.1055 C.3       1 <0>        -0.0234
     16 C13         6.2683    0.5253    2.4642 C.3       1 <0>        -0.1142
     17 C14         7.5461    1.0979    3.0710 C.3       1 <0>        -0.1323
     18 C15         8.7391    0.7751    2.1807 C.3       1 <0>         0.0985
     19 H3          8.8803   -0.3107    2.1485 H         1 <0>         0.0767
     20 C16         8.5469    1.2899    0.7539 C.3       1 <0>        -0.0403
     21 C17         7.1903    0.9337    0.1926 C.3       1 <0>        -0.0584
     22 H4          7.2015   -0.1739    0.0254 H         1 <0>         0.0601
     23 C18         6.9329    1.5494   -1.1811 C.3       1 <0>        -0.1117
     24 C19         5.7710    0.7830   -1.8320 C.3       1 <0>        -0.1065
     25 C20         4.5199    0.8635   -0.9738 C.3       1 <0>        -0.0232
     26 C21         3.4173   -0.0497   -1.5321 C.3       1 <0>        -0.0141
     27 C22         3.1344    0.2972   -2.9857 C.3       1 <0>        -0.1030
     28 C23         1.8081   -0.2727   -3.4807 C.3       1 <0>        -0.1069
     29 C24         3.9488   -1.4898   -1.5042 C.3       1 <0>        -0.1543
     30 C25         3.9650    2.2942   -1.0698 C.3       1 <0>        -0.1690
     31 C26         8.8384    2.7892    0.6971 C.3       1 <0>        -0.1371
     32 C27         9.6250    0.5868   -0.1090 C.3       1 <0>        -0.1498
     33 O2          9.9194    1.3679    2.7358 O.3       1 <0>        -0.3468
     34 C28        10.6238    0.6251    3.6040 C.2       1 <0>         0.4554
     35 O3         10.2533   -0.4902    3.8845 O.2       1 <0>        -0.5140
     36 C29        11.8770    1.1822    4.2288 C.3       1 <0>        -0.0853
     37 C30        12.4827    0.1411    5.1723 C.3       1 <0>        -0.1714
     38 C31        13.7358    0.6982    5.7971 C.2       1 <0>         0.4936
     39 O4         14.1098    1.8236    5.5140 O.co2     1 <0>        -0.6991
     40 O5         14.3757    0.0235    6.5856 O.co2     1 <0>        -0.7017
     41 C32         5.7630    2.6811    1.3485 C.3       1 <0>        -0.1559
     42 C33        -0.6520   -3.8794   -1.8940 C.3       1 <0>        -0.1214
     43 C34        -1.7745   -1.9038   -0.9231 C.2       1 <0>         0.5079
     44 O6         -2.9215   -2.1932   -1.2183 O.co2     1 <0>        -0.7037
     45 O7         -1.5493   -1.2566    0.0853 O.co2     1 <0>        -0.6916
     46 H5          1.5912    2.0674   -2.0895 H         1 <0>         0.0588
     47 H6          0.5224    2.1405   -3.5109 H         1 <0>         0.0472
     48 H7         -0.1758    2.0466   -1.8762 H         1 <0>         0.0539
     49 H8         -1.4956    0.1827   -2.6082 H         1 <0>         0.0644
     50 H9         -0.7536    0.1284   -4.2137 H         1 <0>         0.0474
     51 H10        -1.7700   -2.0580   -3.6093 H         1 <0>         0.0579
     52 H11        -0.0180   -2.1859   -3.8591 H         1 <0>         0.0444
     53 H12         0.7828   -2.2879   -0.1892 H         1 <0>         0.0559
     54 H13         1.4995   -2.3441   -1.8111 H         1 <0>         0.0440
     55 H14         1.3320    0.3823    1.2002 H         1 <0>         0.1337
     56 H15         5.4297    0.7133    3.1320 H         1 <0>         0.0863
     57 H16         6.3820   -0.5479    2.3121 H         1 <0>         0.0573
     58 H17         7.4645    2.1684    3.2297 H         1 <0>         0.0773
     59 H18         7.7045    0.6287    4.0534 H         1 <0>         0.0619
     60 H19         6.6949    2.6021   -1.1136 H         1 <0>         0.0706
     61 H20         7.8131    1.4274   -1.8182 H         1 <0>         0.0633
     62 H21         5.5722    1.2244   -2.8138 H         1 <0>         0.0665
     63 H22         6.0922   -0.2486   -1.9753 H         1 <0>         0.0666
     64 H23         3.1713    1.3608   -3.1891 H         1 <0>         0.0712
     65 H24         3.9353   -0.1570   -3.6025 H         1 <0>         0.0560
     66 H25         1.8540   -1.3620   -3.4920 H         1 <0>         0.0665
     67 H26         1.6331    0.0737   -4.5057 H         1 <0>         0.0558
     68 H27         3.1835   -2.1670   -1.8836 H         1 <0>         0.0680
     69 H28         4.8389   -1.5608   -2.1293 H         1 <0>         0.0631
     70 H29         4.2012   -1.7642   -0.4800 H         1 <0>         0.0569
     71 H30         4.7366    3.0039   -0.7712 H         1 <0>         0.0668
     72 H31         3.6615    2.4981   -2.0966 H         1 <0>         0.0632
     73 H32         3.1037    2.3949   -0.4095 H         1 <0>         0.0595
     74 H33         9.8947    2.9620    0.9035 H         1 <0>         0.0626
     75 H34         8.5951    3.1693   -0.2950 H         1 <0>         0.0534
     76 H35         8.2334    3.3054    1.4425 H         1 <0>         0.0596
     77 H36         9.4828   -0.4927   -0.0595 H         1 <0>         0.0505
     78 H37         9.5351    0.9180   -1.1436 H         1 <0>         0.0584
     79 H38        10.6153    0.8406    0.2690 H         1 <0>         0.0593
     80 H39        12.5959    1.4254    3.4464 H         1 <0>         0.1016
     81 H40        11.6329    2.0836    4.7910 H         1 <0>         0.1023
     82 H41        11.7638   -0.1022    5.9546 H         1 <0>         0.0655
     83 H42        12.7268   -0.7603    4.6101 H         1 <0>         0.0649
     84 H43         4.7879    2.8246    1.8140 H         1 <0>         0.0688
     85 H44         6.5406    3.0678    2.0072 H         1 <0>         0.0624
     86 H45         5.7938    3.2138    0.3980 H         1 <0>         0.0589
     87 H46         0.1720   -4.2141   -2.5241 H         1 <0>         0.0359
     88 H47        -0.5417   -4.3036   -0.8960 H         1 <0>         0.0429
     89 H48        -1.5969   -4.2086   -2.3263 H         1 <0>         0.0540
@<TRIPOS>BOND
     1    1    2 1
     2    1   46 1
     3    1   47 1
     4    1   48 1
     5    2    7 1
     6    2   28 1
     7    2    3 1
     8    3    4 1
     9    3   49 1
    10    3   50 1
    11    4    5 1
    12    4   51 1
    13    4   52 1
    14    5    6 1
    15    5   42 1
    16    5   43 1
    17    6    7 1
    18    6   53 1
    19    6   54 1
    20    7    8 1
    21    7    9 1
    22    9   26 1
    23    9   10 2
    24   10   11 1
    25   10   55 1
    26   11   12 2
    27   11   13 1
    28   13   14 1
    29   13   25 1
    30   13   15 1
    31   15   21 1
    32   15   16 1
    33   15   41 1
    34   16   17 1
    35   16   56 1
    36   16   57 1
    37   17   18 1
    38   17   58 1
    39   17   59 1
    40   18   19 1
    41   18   20 1
    42   18   33 1
    43   20   21 1
    44   20   31 1
    45   20   32 1
    46   21   22 1
    47   21   23 1
    48   23   24 1
    49   23   60 1
    50   23   61 1
    51   24   25 1
    52   24   62 1
    53   24   63 1
    54   25   26 1
    55   25   30 1
    56   26   27 1
    57   26   29 1
    58   27   28 1
    59   27   64 1
    60   27   65 1
    61   28   66 1
    62   28   67 1
    63   29   68 1
    64   29   69 1
    65   29   70 1
    66   30   71 1
    67   30   72 1
    68   30   73 1
    69   31   74 1
    70   31   75 1
    71   31   76 1
    72   32   77 1
    73   32   78 1
    74   32   79 1
    75   33   34 1
    76   34   35 2
    77   34   36 1
    78   36   37 1
    79   36   80 1
    80   36   81 1
    81   37   38 1
    82   37   82 1
    83   37   83 1
    84   38   39 2
    85   38   40 1
    86   41   84 1
    87   41   85 1
    88   41   86 1
    89   42   87 1
    90   42   88 1
    91   42   89 1
    92   43   44 2
    93   43   45 1
@<TRIPOS>MOLECULE
ZINC08838038
   64    67     0     0     0
SMALL
USER_CHARGES
(5S)-4-(4-butoxy-3-methyl-benzoyl)-3-hydroxy-5-(p-tolyl)-1-(3-pyridylmethyl)-5H-pyrrol-2-one
@<TRIPOS>ATOM
      1 C1          5.2347    8.6958   -3.9045 C.3       1 <0>        -0.1527
      2 C2          3.8395    8.2447   -4.3414 C.3       1 <0>        -0.1231
      3 C3          3.8879    6.7750   -4.7642 C.3       1 <0>        -0.1190
      4 C4          2.4927    6.3239   -5.2011 C.3       1 <0>         0.0553
      5 O1          2.5379    4.9513   -5.5960 O.3       1 <0>        -0.3118
      6 C5          1.3745    4.3920   -6.0143 C.ar      1 <0>         0.1417
      7 C6          0.2106    5.1526   -6.0435 C.ar      1 <0>        -0.2217
      8 C7         -0.9715    4.5893   -6.4675 C.ar      1 <0>        -0.0285
      9 C8         -1.0012    3.2500   -6.8689 C.ar      1 <0>        -0.1695
     10 C9          0.1711    2.4888   -6.8376 C.ar      1 <0>        -0.0359
     11 C10         1.3505    3.0618   -6.4179 C.ar      1 <0>        -0.1354
     12 C11         2.6161    2.2441   -6.3900 C.3       1 <0>        -0.0985
     13 C12        -2.2668    2.6416   -7.3239 C.2       1 <0>         0.5075
     14 O2         -2.2780    1.4962   -7.7350 O.2       1 <0>        -0.4765
     15 C13        -3.5104    3.4174   -7.2807 C.2       1 <0>        -0.4969
     16 C14        -4.2436    3.8267   -8.3419 C.2       1 <0>         0.2627
     17 C15        -5.4208    4.5780   -7.8580 C.2       1 <0>         0.5131
     18 O3         -6.2727    5.0728   -8.5690 O.2       1 <0>        -0.5317
     19 N1         -5.4071    4.6370   -6.5139 N.am      1 <0>        -0.6082
     20 C16        -4.2167    3.9194   -6.0430 C.3       1 <0>         0.2666
     21 H1         -3.5834    4.5930   -5.4469 H         1 <0>         0.0644
     22 C17        -4.6209    2.7590   -5.1705 C.ar      1 <0>        -0.0781
     23 C18        -5.6868    1.9581   -5.5357 C.ar      1 <0>        -0.0861
     24 C19        -6.0543    0.8906   -4.7381 C.ar      1 <0>        -0.1211
     25 C20        -5.3628    0.6305   -3.5697 C.ar      1 <0>        -0.0984
     26 C21        -4.3006    1.4349   -3.2016 C.ar      1 <0>        -0.1221
     27 C22        -3.9295    2.4990   -4.0021 C.ar      1 <0>        -0.1129
     28 C23        -5.7668   -0.5302   -2.6975 C.3       1 <0>        -0.1111
     29 C24        -6.4038    5.3007   -5.6699 C.3       1 <0>         0.1761
     30 C25        -5.9951    6.7331   -5.4415 C.ar      1 <0>        -0.1513
     31 C26        -5.2019    7.0723   -4.3558 C.ar      1 <0>        -0.0607
     32 C27        -4.8467    8.4018   -4.1880 C.ar      1 <0>        -0.1782
     33 C28        -5.2999    9.3398   -5.0965 C.ar      1 <0>         0.0940
     34 N2         -6.0570    8.9816   -6.1148 N.ar      1 <0>        -0.4868
     35 C29        -6.4107    7.7259   -6.3082 C.ar      1 <0>         0.1220
     36 O4         -3.9473    3.5846   -9.6397 O.3       1 <0>        -0.6529
     37 H2          5.2000    9.7524   -3.6005 H         1 <0>         0.0562
     38 H3          5.9373    8.5783   -4.7427 H         1 <0>         0.0557
     39 H4          5.5699    8.0810   -3.0562 H         1 <0>         0.0554
     40 H5          3.1369    8.3622   -3.5032 H         1 <0>         0.0651
     41 H6          3.5043    8.8595   -5.1897 H         1 <0>         0.0656
     42 H7          4.5905    6.6576   -5.6024 H         1 <0>         0.0734
     43 H8          4.2232    6.1602   -3.9159 H         1 <0>         0.0730
     44 H9          1.7902    6.4414   -4.3629 H         1 <0>         0.0620
     45 H10         2.1574    6.9387   -6.0494 H         1 <0>         0.0627
     46 H11         0.2343    6.1868   -5.7334 H         1 <0>         0.1262
     47 H12        -1.8750    5.1807   -6.4899 H         1 <0>         0.1340
     48 H13         0.1525    1.4543   -7.1471 H         1 <0>         0.1356
     49 H14         2.4015    1.2242   -6.7417 H         1 <0>         0.0637
     50 H15         3.0036    2.2033   -5.3613 H         1 <0>         0.0642
     51 H16         3.3669    2.7080   -7.0466 H         1 <0>         0.0648
     52 H17        -6.2298    2.1640   -6.4463 H         1 <0>         0.1169
     53 H18        -6.8840    0.2620   -5.0259 H         1 <0>         0.1157
     54 H19        -3.7603    1.2317   -2.2888 H         1 <0>         0.1151
     55 H20        -3.0995    3.1274   -3.7145 H         1 <0>         0.1168
     56 H21        -5.1056   -0.5768   -1.8197 H         1 <0>         0.0605
     57 H22        -5.6827   -1.4657   -3.2700 H         1 <0>         0.0656
     58 H23        -6.8070   -0.3953   -2.3663 H         1 <0>         0.0640
     59 H24        -7.3834    5.2742   -6.1695 H         1 <0>         0.0916
     60 H25        -6.4710    4.7800   -4.7033 H         1 <0>         0.0878
     61 H26        -4.8656    6.3181   -3.6597 H         1 <0>         0.1327
     62 H27        -4.2271    8.7014   -3.3557 H         1 <0>         0.1320
     63 H28        -5.0310   10.3782   -4.9705 H         1 <0>         0.1516
     64 H29        -7.0320    7.4705   -7.1538 H         1 <0>         0.1580
@<TRIPOS>BOND
     1    1    2 1
     2    1   37 1
     3    1   38 1
     4    1   39 1
     5    2    3 1
     6    2   40 1
     7    2   41 1
     8    3    4 1
     9    3   42 1
    10    3   43 1
    11    4    5 1
    12    4   44 1
    13    4   45 1
    14    5    6 1
    15    6   11 ar
    16    6    7 ar
    17    7    8 ar
    18    7   46 1
    19    8    9 ar
    20    8   47 1
    21    9   10 ar
    22    9   13 1
    23   10   11 ar
    24   10   48 1
    25   11   12 1
    26   12   49 1
    27   12   50 1
    28   12   51 1
    29   13   14 2
    30   13   15 1
    31   15   20 1
    32   15   16 2
    33   16   17 1
    34   16   36 1
    35   17   18 2
    36   17   19 am
    37   19   20 1
    38   19   29 1
    39   20   21 1
    40   20   22 1
    41   22   27 ar
    42   22   23 ar
    43   23   24 ar
    44   23   52 1
    45   24   25 ar
    46   24   53 1
    47   25   26 ar
    48   25   28 1
    49   26   27 ar
    50   26   54 1
    51   27   55 1
    52   28   56 1
    53   28   57 1
    54   28   58 1
    55   29   30 1
    56   29   59 1
    57   29   60 1
    58   30   35 ar
    59   30   31 ar
    60   31   32 ar
    61   31   61 1
    62   32   33 ar
    63   32   62 1
    64   33   34 ar
    65   33   63 1
    66   34   35 ar
    67   35   64 1
@<TRIPOS>MOLECULE
ZINC08838039
   64    67     0     0     0
SMALL
USER_CHARGES
(5R)-4-(4-butoxy-3-methyl-benzoyl)-3-hydroxy-5-(p-tolyl)-1-(3-pyridylmethyl)-5H-pyrrol-2-one
@<TRIPOS>ATOM
      1 C1         15.6855    0.7268   -3.0738 C.3       1 <0>        -0.1528
      2 C2         14.2089    0.3998   -2.8424 C.3       1 <0>        -0.1231
      3 C3         13.3957    0.8178   -4.0692 C.3       1 <0>        -0.1191
      4 C4         11.9190    0.4908   -3.8378 C.3       1 <0>         0.0553
      5 O1         11.1595    0.8812   -4.9835 O.3       1 <0>        -0.3121
      6 C5          9.8216    0.6587   -4.9408 C.ar      1 <0>         0.1414
      7 C6          9.2514    0.0746   -3.8149 C.ar      1 <0>        -0.2220
      8 C7          7.8948   -0.1529   -3.7674 C.ar      1 <0>        -0.0280
      9 C8          7.0895    0.2046   -4.8534 C.ar      1 <0>        -0.1692
     10 C9          7.6675    0.7867   -5.9855 C.ar      1 <0>        -0.0360
     11 C10         9.0246    1.0156   -6.0226 C.ar      1 <0>        -0.1356
     12 C11         9.6479    1.6483   -7.2401 C.3       1 <0>        -0.0985
     13 C12         5.6341   -0.0374   -4.8069 C.2       1 <0>         0.5076
     14 O2          4.9495    0.1794   -5.7894 O.2       1 <0>        -0.4770
     15 C13         5.0132   -0.5391   -3.5768 C.2       1 <0>        -0.4948
     16 C14         4.4211   -1.7437   -3.4049 C.2       1 <0>         0.2606
     17 C15         3.9301   -1.8495   -2.0149 C.2       1 <0>         0.5133
     18 O3          3.3565   -2.8142   -1.5495 O.2       1 <0>        -0.5356
     19 N1          4.2101   -0.7188   -1.3417 N.am      1 <0>        -0.6080
     20 C16         4.9108    0.1895   -2.2571 C.3       1 <0>         0.2640
     21 H1          5.8982    0.4486   -1.8475 H         1 <0>         0.0679
     22 C17         4.1228    1.4626   -2.4279 C.ar      1 <0>        -0.0820
     23 C18         2.7763    1.4060   -2.7357 C.ar      1 <0>        -0.0745
     24 C19         2.0523    2.5738   -2.8876 C.ar      1 <0>        -0.1101
     25 C20         2.6771    3.7982   -2.7416 C.ar      1 <0>        -0.0846
     26 C21         4.0248    3.8548   -2.4394 C.ar      1 <0>        -0.1244
     27 C22         4.7476    2.6870   -2.2823 C.ar      1 <0>        -0.1174
     28 C23         1.8890    5.0713   -2.9123 C.3       1 <0>        -0.1101
     29 C24         3.8797   -0.4451    0.0591 C.3       1 <0>         0.1770
     30 C25         2.5218    0.2037    0.1374 C.ar      1 <0>        -0.1554
     31 C26         1.3793   -0.5719    0.2642 C.ar      1 <0>        -0.0549
     32 C27         0.1515    0.0681    0.3321 C.ar      1 <0>        -0.1799
     33 C28         0.1072    1.4484    0.2716 C.ar      1 <0>         0.0941
     34 N2          1.2144    2.1540    0.1508 N.ar      1 <0>        -0.4792
     35 C29         2.3994    1.5790    0.0833 C.ar      1 <0>         0.1296
     36 O4          4.3010   -2.7008   -4.3537 O.3       1 <0>        -0.6553
     37 H2         16.2702    0.4263   -2.1918 H         1 <0>         0.0561
     38 H3         15.8001    1.8083   -3.2386 H         1 <0>         0.0554
     39 H4         16.0478    0.1809   -3.9573 H         1 <0>         0.0556
     40 H5         14.0943   -0.6817   -2.6776 H         1 <0>         0.0655
     41 H6         13.8465    0.9457   -1.9588 H         1 <0>         0.0652
     42 H7         13.5103    1.8993   -4.2340 H         1 <0>         0.0729
     43 H8         13.7581    0.2719   -4.9527 H         1 <0>         0.0732
     44 H9         11.8044   -0.5907   -3.6730 H         1 <0>         0.0628
     45 H10        11.5566    1.0367   -2.9542 H         1 <0>         0.0624
     46 H11         9.8741   -0.2013   -2.9766 H         1 <0>         0.1268
     47 H12         7.4529   -0.6072   -2.8929 H         1 <0>         0.1358
     48 H13         7.0497    1.0602   -6.8281 H         1 <0>         0.1350
     49 H14         8.8662    1.8586   -7.9849 H         1 <0>         0.0634
     50 H15        10.3899    0.9603   -7.6716 H         1 <0>         0.0645
     51 H16        10.1426    2.5878   -6.9525 H         1 <0>         0.0642
     52 H17         2.2891    0.4494   -2.8539 H         1 <0>         0.1082
     53 H18         0.9995    2.5295   -3.1241 H         1 <0>         0.1080
     54 H19         4.5130    4.8115   -2.3256 H         1 <0>         0.1137
     55 H20         5.8005    2.7313   -2.0462 H         1 <0>         0.1163
     56 H21         2.5516    5.9360   -2.7595 H         1 <0>         0.0588
     57 H22         1.0735    5.0994   -2.1746 H         1 <0>         0.0666
     58 H23         1.4667    5.1078   -3.9273 H         1 <0>         0.0621
     59 H24         3.8684   -1.3887    0.6243 H         1 <0>         0.0898
     60 H25         4.6342    0.2304    0.4886 H         1 <0>         0.0867
     61 H26         1.4445   -1.6490    0.3087 H         1 <0>         0.1340
     62 H27        -0.7589   -0.5044    0.4307 H         1 <0>         0.1292
     63 H28        -0.8457    1.9544    0.3193 H         1 <0>         0.1486
     64 H29         3.2844    2.1902   -0.0154 H         1 <0>         0.1480
@<TRIPOS>BOND
     1    1    2 1
     2    1   37 1
     3    1   38 1
     4    1   39 1
     5    2    3 1
     6    2   40 1
     7    2   41 1
     8    3    4 1
     9    3   42 1
    10    3   43 1
    11    4    5 1
    12    4   44 1
    13    4   45 1
    14    5    6 1
    15    6   11 ar
    16    6    7 ar
    17    7    8 ar
    18    7   46 1
    19    8    9 ar
    20    8   47 1
    21    9   10 ar
    22    9   13 1
    23   10   11 ar
    24   10   48 1
    25   11   12 1
    26   12   49 1
    27   12   50 1
    28   12   51 1
    29   13   14 2
    30   13   15 1
    31   15   20 1
    32   15   16 2
    33   16   17 1
    34   16   36 1
    35   17   18 2
    36   17   19 am
    37   19   20 1
    38   19   29 1
    39   20   21 1
    40   20   22 1
    41   22   27 ar
    42   22   23 ar
    43   23   24 ar
    44   23   52 1
    45   24   25 ar
    46   24   53 1
    47   25   26 ar
    48   25   28 1
    49   26   27 ar
    50   26   54 1
    51   27   55 1
    52   28   56 1
    53   28   57 1
    54   28   58 1
    55   29   30 1
    56   29   59 1
    57   29   60 1
    58   30   35 ar
    59   30   31 ar
    60   31   32 ar
    61   31   61 1
    62   32   33 ar
    63   32   62 1
    64   33   34 ar
    65   33   63 1
    66   34   35 ar
    67   35   64 1
@<TRIPOS>MOLECULE
ZINC43013338
   49    51     0     0     0
SMALL
USER_CHARGES

@<TRIPOS>ATOM
      1 C1          0.1364    1.2967    0.3531 C.3       1 <0>        -0.1677
      2 C2          0.1654   -0.2149    0.5882 C.3       1 <0>         0.1247
      3 H1          0.6792   -0.7040   -0.2394 H         1 <0>         0.1102
      4 C3         -1.2692   -0.7476    0.6903 C.3       1 <0>         0.1382
      5 N1         -1.8569   -0.2751    1.9517 N.pl3     1 <0>        -0.6781
      6 C4         -1.1575   -0.5650    3.2113 C.3       1 <0>         0.1341
      7 C5          0.2771   -0.0323    3.1092 C.3       1 <0>         0.1011
      8 N2          0.8684   -0.5051    1.8457 N.pl3     1 <0>        -0.9832
      9 S1          2.2925   -1.3502    1.8396 S.o2      1 <0>         2.6831
     10 O1          2.4207   -1.9394    3.1263 O.2       1 <0>        -0.9438
     11 O2          2.3030   -2.1196    0.6449 O.2       1 <0>        -0.9331
     12 C6          3.5959   -0.1737    1.6923 C.ar      1 <0>        -0.6531
     13 C7          4.5006   -0.0148    2.7270 C.ar      1 <0>        -0.0138
     14 C8          5.5236    0.9041    2.6181 C.ar      1 <0>        -0.0734
     15 C9          5.6456    1.6751    1.4608 C.ar      1 <0>        -0.0717
     16 C10         4.7304    1.5108    0.4203 C.ar      1 <0>        -0.0983
     17 C11         3.7138    0.5838    0.5394 C.ar      1 <0>         0.0432
     18 Cl1         2.5779    0.3721   -0.7563 Cl        1 <0>        -0.0267
     19 C12         6.7396    2.6620    1.3382 C.2       1 <0>         0.5608
     20 O3          7.5352    2.8034    2.2463 O.2       1 <0>        -0.5222
     21 N3          6.8548    3.4050    0.2196 N.am      1 <0>        -0.8445
     22 C13        -3.0596    0.4379    1.9533 C.ar      1 <0>         0.2160
     23 C14        -3.0448    1.8268    1.9663 C.ar      1 <0>        -0.0995
     24 C15        -4.2340    2.5290    1.9674 C.ar      1 <0>        -0.1129
     25 C16        -5.4406    1.8494    1.9556 C.ar      1 <0>         0.0970
     26 C17        -5.4577    0.4652    1.9426 C.ar      1 <0>        -0.1018
     27 C18        -4.2706   -0.2413    1.9362 C.ar      1 <0>        -0.1663
     28 C19        -4.2899   -1.7480    1.9157 C.3       1 <0>         0.5172
     29 F1         -5.6096   -2.1991    2.0256 F         1 <0>        -0.1785
     30 F2         -3.7394   -2.2052    0.7136 F         1 <0>        -0.1724
     31 F3         -3.5385   -2.2386    2.9890 F         1 <0>        -0.1691
     32 F4         -6.6027    2.5384    1.9571 F         1 <0>        -0.1297
     33 H2          1.1498    1.6934    0.4139 H         1 <0>         0.0640
     34 H3         -0.2759    1.5029   -0.6346 H         1 <0>         0.0675
     35 H4         -0.4855    1.7706    1.1126 H         1 <0>         0.0655
     36 H5         -1.8577   -0.3769   -0.1490 H         1 <0>         0.0868
     37 H6         -1.2564   -1.8374    0.6782 H         1 <0>         0.0681
     38 H7         -1.6723   -0.0737    4.0370 H         1 <0>         0.0875
     39 H8         -1.1368   -1.6419    3.3788 H         1 <0>         0.0698
     40 H9          0.2643    1.0575    3.1213 H         1 <0>         0.0766
     41 H10         0.8655   -0.4031    3.9485 H         1 <0>         0.1021
     42 H11         4.4054   -0.6114    3.6222 H         1 <0>         0.1626
     43 H12         6.2287    1.0270    3.4269 H         1 <0>         0.1566
     44 H13         4.8194    2.1043   -0.4776 H         1 <0>         0.1474
     45 H14         6.2199    3.2922   -0.5050 H         1 <0>         0.4029
     46 H15         7.5725    4.0525    0.1392 H         1 <0>         0.4121
     47 H16        -2.1041    2.3571    1.9759 H         1 <0>         0.1460
     48 H17        -4.2229    3.6088    1.9778 H         1 <0>         0.1467
     49 H18        -6.3999   -0.0627    1.9334 H         1 <0>         0.1518
@<TRIPOS>BOND
     1    1    2 1
     2    1   33 1
     3    1   34 1
     4    1   35 1
     5    2    3 1
     6    2    8 1
     7    2    4 1
     8    4    5 1
     9    4   36 1
    10    4   37 1
    11    5    6 1
    12    5   22 1
    13    6    7 1
    14    6   38 1
    15    6   39 1
    16    7    8 1
    17    7   40 1
    18    7   41 1
    19    8    9 1
    20    9   10 2
    21    9   11 2
    22    9   12 1
    23   12   17 ar
    24   12   13 ar
    25   13   14 ar
    26   13   42 1
    27   14   15 ar
    28   14   43 1
    29   15   16 ar
    30   15   19 1
    31   16   17 ar
    32   16   44 1
    33   17   18 1
    34   19   20 2
    35   19   21 am
    36   21   45 1
    37   21   46 1
    38   22   27 ar
    39   22   23 ar
    40   23   24 ar
    41   23   47 1
    42   24   25 ar
    43   24   48 1
    44   25   26 ar
    45   25   32 1
    46   26   27 ar
    47   26   49 1
    48   27   28 1
    49   28   29 1
    50   28   30 1
    51   28   31 1
@<TRIPOS>MOLECULE
ZINC02861537
   44    46     0     0     0
SMALL
USER_CHARGES

@<TRIPOS>ATOM
      1 C1         -0.0496    1.2698    0.0735 C.ar      1 <0>        -0.1249
      2 C2          1.1089    2.0245    0.0668 C.ar      1 <0>        -0.0144
      3 C3          2.3409    1.3999    0.0158 C.ar      1 <0>        -0.6682
      4 C4          2.4153    0.0203   -0.0290 C.ar      1 <0>        -0.0146
      5 C5          1.2566   -0.7353   -0.0223 C.ar      1 <0>        -0.0569
      6 C6          0.0236   -0.1094    0.0292 C.ar      1 <0>        -0.0536
      7 Cl1         1.3493   -2.4678   -0.0791 Cl        1 <0>        -0.0534
      8 S1          3.8167    2.3624    0.0072 S.o2      1 <0>         2.6956
      9 O1          4.8222    1.5588   -0.5947 O.2       1 <0>        -0.9474
     10 O2          3.4631    3.6436   -0.4955 O.2       1 <0>        -0.9492
     11 N1          4.2677    2.5813    1.5856 N.pl3     1 <0>        -1.1113
     12 C7          4.6696    1.4309    2.3988 C.3       1 <0>         0.1528
     13 C8          5.3705    1.9150    3.6420 C.ar      1 <0>        -0.0782
     14 C9          6.7415    2.1011    3.6315 C.ar      1 <0>        -0.1062
     15 C10         7.3893    2.5440    4.7661 C.ar      1 <0>        -0.0596
     16 C11         6.6585    2.8045    5.9264 C.ar      1 <0>        -0.1231
     17 C12         5.2757    2.6146    5.9303 C.ar      1 <0>        -0.1259
     18 C13         4.6395    2.1767    4.7871 C.ar      1 <0>        -0.1099
     19 C14         7.3461    3.2789    7.1462 C.2       1 <0>         0.5719
     20 O3          8.5607    3.3051    7.1879 O.2       1 <0>        -0.5318
     21 N2          6.6264    3.6823    8.2119 N.am      1 <0>        -0.6154
     22 C15         5.1643    3.5963    8.3406 C.3       1 <0>         0.0876
     23 C16         4.7889    4.1980    9.7112 C.3       1 <0>        -0.1366
     24 C17         6.0050    5.1045   10.0377 C.3       1 <0>        -0.1345
     25 C18         7.1753    4.2770    9.4441 C.3       1 <0>         0.1043
     26 H1         -1.0118    1.7583    0.1179 H         1 <0>         0.1453
     27 H2          1.0512    3.1024    0.1011 H         1 <0>         0.1485
     28 H3          3.3780   -0.4676   -0.0696 H         1 <0>         0.1518
     29 H4         -0.8815   -0.6988    0.0344 H         1 <0>         0.1440
     30 H5          4.2656    3.4712    1.9716 H         1 <0>         0.4229
     31 H6          3.7859    0.8580    2.6797 H         1 <0>         0.0787
     32 H7          5.3455    0.7979    1.8238 H         1 <0>         0.0947
     33 H8          7.3058    1.8989    2.7331 H         1 <0>         0.1360
     34 H9          8.4595    2.6886    4.7567 H         1 <0>         0.1392
     35 H10         4.7045    2.8143    6.8248 H         1 <0>         0.1616
     36 H11         3.5690    2.0336    4.7874 H         1 <0>         0.1317
     37 H12         4.6878    4.1658    7.5427 H         1 <0>         0.0815
     38 H13         4.8488    2.5540    8.2943 H         1 <0>         0.0803
     39 H14         3.8763    4.7893    9.6359 H         1 <0>         0.0866
     40 H15         4.6806    3.4134   10.4602 H         1 <0>         0.0804
     41 H16         5.9155    6.0715    9.5428 H         1 <0>         0.0785
     42 H17         6.1227    5.2277   11.1143 H         1 <0>         0.0881
     43 H18         7.4809    3.4950   10.1392 H         1 <0>         0.0719
     44 H19         8.0180    4.9271    9.2088 H         1 <0>         0.0811
@<TRIPOS>BOND
     1    1    6 ar
     2    1    2 ar
     3    1   26 1
     4    2    3 ar
     5    2   27 1
     6    3    4 ar
     7    3    8 1
     8    4    5 ar
     9    4   28 1
    10    5    6 ar
    11    5    7 1
    12    6   29 1
    13    8    9 2
    14    8   10 2
    15    8   11 1
    16   11   12 1
    17   11   30 1
    18   12   13 1
    19   12   31 1
    20   12   32 1
    21   13   18 ar
    22   13   14 ar
    23   14   15 ar
    24   14   33 1
    25   15   16 ar
    26   15   34 1
    27   16   17 ar
    28   16   19 1
    29   17   18 ar
    30   17   35 1
    31   18   36 1
    32   19   20 2
    33   19   21 am
    34   21   25 1
    35   21   22 1
    36   22   23 1
    37   22   37 1
    38   22   38 1
    39   23   24 1
    40   23   39 1
    41   23   40 1
    42   24   25 1
    43   24   41 1
    44   24   42 1
    45   25   43 1
    46   25   44 1
@<TRIPOS>MOLECULE
ZINC14247102
   51    53     0     0     0
SMALL
USER_CHARGES

@<TRIPOS>ATOM
      1 C1          0.1225    1.3378   -1.8129 C.3       1 <0>        -0.1446
      2 C2          0.0350   -0.1885   -1.7507 C.3       1 <0>         0.0758
      3 H1         -0.2396   -0.5776   -2.7312 H         1 <0>         0.0636
      4 C3         -1.0246   -0.5991   -0.7218 C.3       1 <0>         0.0822
      5 N1         -0.9585   -2.0584   -0.5446 N.am      1 <0>        -0.6111
      6 C4          0.3555   -2.6636   -0.2752 C.3       1 <0>         0.0670
      7 C5          1.3478   -2.1524   -1.3259 C.3       1 <0>         0.0744
      8 H2          1.0786   -2.5494   -2.3046 H         1 <0>         0.0637
      9 O1          1.3023   -0.7240   -1.3621 O.3       1 <0>        -0.3723
     10 C6          2.7610   -2.6105   -0.9597 C.3       1 <0>        -0.1451
     11 C7         -2.0685   -2.8183   -0.6271 C.2       1 <0>         0.5615
     12 O2         -3.1540   -2.2937   -0.7817 O.2       1 <0>        -0.5259
     13 C8         -1.9658   -4.2900   -0.5296 C.ar      1 <0>        -0.1177
     14 C9         -1.2297   -4.8744    0.5022 C.ar      1 <0>        -0.0945
     15 C10        -1.1382   -6.2483    0.5878 C.ar      1 <0>        -0.1041
     16 C11        -1.7739   -7.0465   -0.3466 C.ar      1 <0>        -0.0825
     17 C12        -2.5049   -6.4735   -1.3722 C.ar      1 <0>        -0.0990
     18 C13        -2.6094   -5.1011   -1.4656 C.ar      1 <0>        -0.0684
     19 C14        -1.6693   -8.5465   -0.2472 C.3       1 <0>         0.1529
     20 N2         -2.7666   -9.0590    0.5772 N.pl3     1 <0>        -1.1114
     21 S1         -3.1293  -10.6747    0.5614 S.o2      1 <0>         2.6981
     22 O3         -4.2063  -10.8581    1.4700 O.2       1 <0>        -0.9460
     23 O4         -3.2108  -11.0593   -0.8042 O.2       1 <0>        -0.9444
     24 C15        -1.7452  -11.5261    1.2426 C.ar      1 <0>        -0.6841
     25 C16        -0.7212  -11.9516    0.4167 C.ar      1 <0>         0.0116
     26 C17         0.3654  -12.6190    0.9493 C.ar      1 <0>        -0.1606
     27 C18         0.4289  -12.8620    2.3107 C.ar      1 <0>         0.1693
     28 C19        -0.5975  -12.4355    3.1378 C.ar      1 <0>        -0.0989
     29 C20        -1.6814  -11.7630    2.6028 C.ar      1 <0>         0.0203
     30 Cl1        -0.5202  -12.7390    4.8454 Cl        1 <0>        -0.0315
     31 F1          1.4905  -13.5149    2.8323 F         1 <0>        -0.1133
     32 H3          0.8773    1.6290   -2.5433 H         1 <0>         0.0699
     33 H4         -0.8445    1.7455   -2.1074 H         1 <0>         0.0762
     34 H5          0.3970    1.7262   -0.8321 H         1 <0>         0.0675
     35 H6         -0.8244   -0.1045    0.2287 H         1 <0>         0.0796
     36 H7         -2.0142   -0.3174   -1.0815 H         1 <0>         0.1035
     37 H8          0.6946   -2.3768    0.7202 H         1 <0>         0.0819
     38 H9          0.2798   -3.7491   -0.3393 H         1 <0>         0.1048
     39 H10         2.7935   -3.6996   -0.9294 H         1 <0>         0.0751
     40 H11         3.4660   -2.2466   -1.7072 H         1 <0>         0.0702
     41 H12         3.0303   -2.2116    0.0183 H         1 <0>         0.0676
     42 H13        -0.7324   -4.2524    1.2318 H         1 <0>         0.1328
     43 H14        -0.5689   -6.7017    1.3857 H         1 <0>         0.1343
     44 H15        -2.9984   -7.1022   -2.0985 H         1 <0>         0.1371
     45 H16        -3.1843   -4.6552   -2.2638 H         1 <0>         0.1345
     46 H17        -1.7301   -8.9819   -1.2446 H         1 <0>         0.0956
     47 H18        -0.7163   -8.8148    0.2089 H         1 <0>         0.0795
     48 H19        -3.2806   -8.4520    1.1322 H         1 <0>         0.4244
     49 H20        -0.7707  -11.7624   -0.6455 H         1 <0>         0.1596
     50 H21         1.1647  -12.9514    0.3035 H         1 <0>         0.1589
     51 H22        -2.4797  -11.4262    3.2475 H         1 <0>         0.1619
@<TRIPOS>BOND
     1    1    2 1
     2    1   32 1
     3    1   33 1
     4    1   34 1
     5    2    3 1
     6    2    9 1
     7    2    4 1
     8    4    5 1
     9    4   35 1
    10    4   36 1
    11    5    6 1
    12    5   11 am
    13    6    7 1
    14    6   37 1
    15    6   38 1
    16    7    8 1
    17    7    9 1
    18    7   10 1
    19   10   39 1
    20   10   40 1
    21   10   41 1
    22   11   12 2
    23   11   13 1
    24   13   18 ar
    25   13   14 ar
    26   14   15 ar
    27   14   42 1
    28   15   16 ar
    29   15   43 1
    30   16   17 ar
    31   16   19 1
    32   17   18 ar
    33   17   44 1
    34   18   45 1
    35   19   20 1
    36   19   46 1
    37   19   47 1
    38   20   21 1
    39   20   48 1
    40   21   22 2
    41   21   23 2
    42   21   24 1
    43   24   29 ar
    44   24   25 ar
    45   25   26 ar
    46   25   49 1
    47   26   27 ar
    48   26   50 1
    49   27   28 ar
    50   27   31 1
    51   28   29 ar
    52   28   30 1
    53   29   51 1
@<TRIPOS>MOLECULE
ZINC12883355
   51    53     0     0     0
SMALL
USER_CHARGES

@<TRIPOS>ATOM
      1 C1          0.1225    1.3378   -1.8129 C.3       1 <0>        -0.1445
      2 C2          0.0350   -0.1885   -1.7507 C.3       1 <0>         0.0757
      3 H1         -0.2396   -0.5776   -2.7312 H         1 <0>         0.0636
      4 C3         -1.0246   -0.5991   -0.7218 C.3       1 <0>         0.0822
      5 N1         -0.9585   -2.0584   -0.5446 N.am      1 <0>        -0.6111
      6 C4          0.3555   -2.6636   -0.2752 C.3       1 <0>         0.0670
      7 C5          1.3478   -2.1524   -1.3259 C.3       1 <0>         0.0744
      8 H2          1.0786   -2.5494   -2.3046 H         1 <0>         0.0637
      9 O1          1.3023   -0.7240   -1.3621 O.3       1 <0>        -0.3724
     10 C6          2.7610   -2.6105   -0.9597 C.3       1 <0>        -0.1450
     11 C7         -2.0685   -2.8183   -0.6271 C.2       1 <0>         0.5618
     12 O2         -3.1540   -2.2937   -0.7817 O.2       1 <0>        -0.5260
     13 C8         -1.9658   -4.2900   -0.5296 C.ar      1 <0>        -0.1183
     14 C9         -1.2297   -4.8744    0.5022 C.ar      1 <0>        -0.0945
     15 C10        -1.1382   -6.2483    0.5878 C.ar      1 <0>        -0.1042
     16 C11        -1.7739   -7.0465   -0.3466 C.ar      1 <0>        -0.0818
     17 C12        -2.5049   -6.4735   -1.3722 C.ar      1 <0>        -0.0993
     18 C13        -2.6094   -5.1011   -1.4656 C.ar      1 <0>        -0.0684
     19 C14        -1.6693   -8.5465   -0.2472 C.3       1 <0>         0.1539
     20 N2         -2.7666   -9.0590    0.5772 N.pl3     1 <0>        -1.1121
     21 S1         -3.1293  -10.6747    0.5614 S.o2      1 <0>         2.6955
     22 O3         -4.2063  -10.8581    1.4700 O.2       1 <0>        -0.9487
     23 O4         -3.2108  -11.0593   -0.8042 O.2       1 <0>        -0.9473
     24 C15        -1.7452  -11.5261    1.2426 C.ar      1 <0>        -0.6681
     25 C16        -0.7209  -11.9518    0.4171 C.ar      1 <0>        -0.0192
     26 C17         0.3652  -12.6197    0.9508 C.ar      1 <0>        -0.1244
     27 C18         0.4277  -12.8629    2.3101 C.ar      1 <0>        -0.0534
     28 C19        -0.5967  -12.4372    3.1365 C.ar      1 <0>        -0.0571
     29 C20        -1.6809  -11.7632    2.6025 C.ar      1 <0>        -0.0100
     30 Cl1        -0.5189  -12.7421    4.8437 Cl        1 <0>        -0.0535
     31 H3          0.8773    1.6290   -2.5433 H         1 <0>         0.0699
     32 H4         -0.8445    1.7455   -2.1074 H         1 <0>         0.0761
     33 H5          0.3970    1.7262   -0.8321 H         1 <0>         0.0675
     34 H6         -0.8244   -0.1045    0.2287 H         1 <0>         0.0795
     35 H7         -2.0142   -0.3174   -1.0815 H         1 <0>         0.1035
     36 H8          0.6946   -2.3768    0.7202 H         1 <0>         0.0818
     37 H9          0.2798   -3.7491   -0.3393 H         1 <0>         0.1049
     38 H10         2.7935   -3.6996   -0.9294 H         1 <0>         0.0751
     39 H11         3.4660   -2.2466   -1.7072 H         1 <0>         0.0702
     40 H12         3.0303   -2.2116    0.0183 H         1 <0>         0.0676
     41 H13        -0.7324   -4.2524    1.2318 H         1 <0>         0.1327
     42 H14        -0.5689   -6.7017    1.3857 H         1 <0>         0.1342
     43 H15        -2.9984   -7.1022   -2.0985 H         1 <0>         0.1369
     44 H16        -3.1843   -4.6552   -2.2638 H         1 <0>         0.1344
     45 H17        -1.7301   -8.9819   -1.2446 H         1 <0>         0.0948
     46 H18        -0.7163   -8.8148    0.2089 H         1 <0>         0.0791
     47 H19        -3.2806   -8.4520    1.1322 H         1 <0>         0.4236
     48 H20        -0.7697  -11.7627   -0.6451 H         1 <0>         0.1487
     49 H21         1.1649  -12.9521    0.3055 H         1 <0>         0.1456
     50 H22         1.2760  -13.3854    2.7269 H         1 <0>         0.1440
     51 H23        -2.4789  -11.4267    3.2477 H         1 <0>         0.1516
@<TRIPOS>BOND
     1    1    2 1
     2    1   31 1
     3    1   32 1
     4    1   33 1
     5    2    3 1
     6    2    9 1
     7    2    4 1
     8    4    5 1
     9    4   34 1
    10    4   35 1
    11    5    6 1
    12    5   11 am
    13    6    7 1
    14    6   36 1
    15    6   37 1
    16    7    8 1
    17    7    9 1
    18    7   10 1
    19   10   38 1
    20   10   39 1
    21   10   40 1
    22   11   12 2
    23   11   13 1
    24   13   18 ar
    25   13   14 ar
    26   14   15 ar
    27   14   41 1
    28   15   16 ar
    29   15   42 1
    30   16   17 ar
    31   16   19 1
    32   17   18 ar
    33   17   43 1
    34   18   44 1
    35   19   20 1
    36   19   45 1
    37   19   46 1
    38   20   21 1
    39   20   47 1
    40   21   22 2
    41   21   23 2
    42   21   24 1
    43   24   29 ar
    44   24   25 ar
    45   25   26 ar
    46   25   48 1
    47   26   27 ar
    48   26   49 1
    49   27   28 ar
    50   27   50 1
    51   28   29 ar
    52   28   30 1
    53   29   51 1
@<TRIPOS>MOLECULE
ZINC00630910
   47    49     0     0     0
SMALL
USER_CHARGES

@<TRIPOS>ATOM
      1 C1          0.3472    1.9794   -0.4750 C.ar      1 <0>        -0.1247
      2 C2          1.6639    2.3999   -0.4389 C.ar      1 <0>        -0.0144
      3 C3          2.6771    1.4834   -0.2296 C.ar      1 <0>        -0.6685
      4 C4          2.3747    0.1457   -0.0568 C.ar      1 <0>        -0.0147
      5 C5          1.0576   -0.2756   -0.0928 C.ar      1 <0>        -0.0568
      6 C6          0.0436    0.6424   -0.3019 C.ar      1 <0>        -0.0533
      7 Cl1         0.6770   -1.9555    0.1237 Cl        1 <0>        -0.0534
      8 S1          4.3548    2.0202   -0.1838 S.o2      1 <0>         2.6960
      9 O1          5.1515    0.8920   -0.5178 O.2       1 <0>        -0.9478
     10 O2          4.4120    3.2368   -0.9158 O.2       1 <0>        -0.9494
     11 N1          4.7052    2.3979    1.3900 N.pl3     1 <0>        -1.1114
     12 C7          4.7023    1.3492    2.4130 C.3       1 <0>         0.1531
     13 C8          5.3946    1.8547    3.6525 C.ar      1 <0>        -0.0806
     14 C9          6.7594    1.6803    3.7986 C.ar      1 <0>        -0.1041
     15 C10         7.3994    2.1406    4.9308 C.ar      1 <0>        -0.0911
     16 C11         6.6669    2.7834    5.9300 C.ar      1 <0>        -0.1195
     17 C12         5.2905    2.9561    5.7763 C.ar      1 <0>        -0.0671
     18 C13         4.6637    2.4961    4.6367 C.ar      1 <0>        -0.1047
     19 C14         7.3461    3.2789    7.1462 C.2       1 <0>         0.5597
     20 O3          6.8207    3.1430    8.2338 O.2       1 <0>        -0.5317
     21 N2          8.5479    3.8812    7.0489 N.am      1 <0>        -0.6063
     22 C15         9.1348    4.1728    5.7339 C.3       1 <0>         0.0960
     23 C16         9.4968    5.6601    5.6744 C.3       1 <0>        -0.1367
     24 C17        10.4022    6.0084    6.8580 C.3       1 <0>        -0.1219
     25 C18         9.6562    5.7450    8.1680 C.3       1 <0>        -0.1357
     26 C19         9.2932    4.2641    8.2558 C.3       1 <0>         0.1098
     27 H1         -0.4444    2.6966   -0.6341 H         1 <0>         0.1453
     28 H2          1.9007    3.4448   -0.5746 H         1 <0>         0.1485
     29 H3          3.1666   -0.5705    0.1061 H         1 <0>         0.1518
     30 H4         -0.9849    0.3141   -0.3302 H         1 <0>         0.1440
     31 H5          4.9123    3.3134    1.6345 H         1 <0>         0.4229
     32 H6          3.6740    1.0807    2.6552 H         1 <0>         0.0790
     33 H7          5.2276    0.4719    2.0356 H         1 <0>         0.0949
     34 H8          7.3249    1.1823    3.0249 H         1 <0>         0.1357
     35 H9          8.4646    2.0035    5.0438 H         1 <0>         0.1340
     36 H10         4.7180    3.4527    6.5458 H         1 <0>         0.1342
     37 H11         3.5994    2.6330    4.5145 H         1 <0>         0.1335
     38 H12        10.0335    3.5721    5.5935 H         1 <0>         0.0727
     39 H13         8.4120    3.9410    4.9516 H         1 <0>         0.0949
     40 H14        10.0204    5.8701    4.7417 H         1 <0>         0.0783
     41 H15         8.5869    6.2582    5.7240 H         1 <0>         0.0676
     42 H16        11.3007    5.3924    6.8215 H         1 <0>         0.0657
     43 H17        10.6813    7.0608    6.8043 H         1 <0>         0.0676
     44 H18        10.2932    6.0153    9.0102 H         1 <0>         0.0778
     45 H19         8.7448    6.3423    8.1941 H         1 <0>         0.0669
     46 H20         8.6749    4.0925    9.1369 H         1 <0>         0.0942
     47 H21        10.2051    3.6710    8.3256 H         1 <0>         0.0699
@<TRIPOS>BOND
     1    1    6 ar
     2    1    2 ar
     3    1   27 1
     4    2    3 ar
     5    2   28 1
     6    3    4 ar
     7    3    8 1
     8    4    5 ar
     9    4   29 1
    10    5    6 ar
    11    5    7 1
    12    6   30 1
    13    8    9 2
    14    8   10 2
    15    8   11 1
    16   11   12 1
    17   11   31 1
    18   12   13 1
    19   12   32 1
    20   12   33 1
    21   13   18 ar
    22   13   14 ar
    23   14   15 ar
    24   14   34 1
    25   15   16 ar
    26   15   35 1
    27   16   17 ar
    28   16   19 1
    29   17   18 ar
    30   17   36 1
    31   18   37 1
    32   19   20 2
    33   19   21 am
    34   21   26 1
    35   21   22 1
    36   22   23 1
    37   22   38 1
    38   22   39 1
    39   23   24 1
    40   23   40 1
    41   23   41 1
    42   24   25 1
    43   24   42 1
    44   24   43 1
    45   25   26 1
    46   25   44 1
    47   25   45 1
    48   26   46 1
    49   26   47 1
@<TRIPOS>MOLECULE
ZINC00630924
   50    52     0     0     0
SMALL
USER_CHARGES

@<TRIPOS>ATOM
      1 C1          3.2275    1.5832   -1.4229 C.3       1 <0>        -0.0472
      2 N1          2.4375    0.4559   -0.9099 N.4       1 <0>        -0.3861
      3 C2          2.2709   -0.5456   -1.9706 C.3       1 <0>        -0.0203
      4 C3          1.3523   -1.6667   -1.4735 C.3       1 <0>         0.0883
      5 N2          1.9032   -2.1985   -0.2174 N.am      1 <0>        -0.6305
      6 C4          2.2539   -1.2433    0.8450 C.3       1 <0>         0.0730
      7 C5          3.1300   -0.1422    0.2385 C.3       1 <0>        -0.0220
      8 C6          2.0812   -3.5232   -0.0447 C.2       1 <0>         0.5730
      9 O1          1.7213   -4.3021   -0.9057 O.2       1 <0>        -0.4980
     10 C7          2.7141   -4.0291    1.1920 C.ar      1 <0>        -0.1350
     11 C8          2.2745   -3.5804    2.4384 C.ar      1 <0>        -0.1006
     12 C9          2.8691   -4.0568    3.5885 C.ar      1 <0>        -0.1019
     13 C10         3.8993   -4.9769    3.5083 C.ar      1 <0>        -0.0689
     14 C11         4.3401   -5.4254    2.2759 C.ar      1 <0>        -0.0953
     15 C12         3.7499   -4.9617    1.1183 C.ar      1 <0>        -0.0638
     16 C13         4.5445   -5.4925    4.7689 C.3       1 <0>         0.1497
     17 N3          3.8361   -6.6909    5.2250 N.pl3     1 <0>        -1.1141
     18 S1          4.5290   -7.6821    6.3563 S.o2      1 <0>         2.6952
     19 O2          3.5982   -8.7263    6.6060 O.2       1 <0>        -0.9447
     20 O3          5.8567   -7.9339    5.9170 O.2       1 <0>        -0.9454
     21 C14         4.6598   -6.7563    7.8498 C.ar      1 <0>        -0.6693
     22 C15         5.7946   -6.0077    8.1018 C.ar      1 <0>        -0.0207
     23 C16         5.8980   -5.2812    9.2731 C.ar      1 <0>        -0.1241
     24 C17         4.8669   -5.3031   10.1936 C.ar      1 <0>        -0.0521
     25 C18         3.7313   -6.0519    9.9421 C.ar      1 <0>        -0.0568
     26 C19         3.6258   -6.7741    8.7665 C.ar      1 <0>        -0.0104
     27 Cl1         2.4361   -6.0799   11.0976 Cl        1 <0>        -0.0503
     28 H1          4.2091    1.2267   -1.7351 H         1 <0>         0.1225
     29 H2          2.7144    2.0282   -2.2755 H         1 <0>         0.1265
     30 H3          3.3451    2.3311   -0.6388 H         1 <0>         0.1263
     31 H4          1.8280   -0.0751   -2.8484 H         1 <0>         0.1461
     32 H5          3.2434   -0.9621   -2.2332 H         1 <0>         0.1341
     33 H6          0.3529   -1.2696   -1.2960 H         1 <0>         0.0975
     34 H7          1.3071   -2.4608   -2.2188 H         1 <0>         0.1373
     35 H8          1.3455   -0.8035    1.2566 H         1 <0>         0.0997
     36 H9          2.8048   -1.7575    1.6326 H         1 <0>         0.1399
     37 H10         4.0765   -0.5710   -0.0909 H         1 <0>         0.1346
     38 H11         3.3201    0.6255    0.9885 H         1 <0>         0.1459
     39 H12         1.4710   -2.8617    2.5023 H         1 <0>         0.1321
     40 H13         2.5300   -3.7104    4.5536 H         1 <0>         0.1382
     41 H14         5.1449   -6.1434    2.2201 H         1 <0>         0.1419
     42 H15         4.0916   -5.3162    0.1571 H         1 <0>         0.1367
     43 H16         5.5867   -5.7408    4.5683 H         1 <0>         0.0973
     44 H17         4.4959   -4.7255    5.5418 H         1 <0>         0.0812
     45 H18         2.9611   -6.9039    4.8644 H         1 <0>         0.4233
     46 H19         6.6007   -5.9908    7.3832 H         1 <0>         0.1480
     47 H20         6.7846   -4.6966    9.4694 H         1 <0>         0.1460
     48 H21         4.9481   -4.7360   11.1091 H         1 <0>         0.1451
     49 H22         2.7376   -7.3554    8.5675 H         1 <0>         0.1518
     50 H23         1.5303    0.7877   -0.6185 H         1 <0>         0.4259
@<TRIPOS>BOND
     1    1    2 1
     2    1   28 1
     3    1   29 1
     4    1   30 1
     5    2    7 1
     6    2    3 1
     7    2   50 1
     8    3    4 1
     9    3   31 1
    10    3   32 1
    11    4    5 1
    12    4   33 1
    13    4   34 1
    14    5    6 1
    15    5    8 am
    16    6    7 1
    17    6   35 1
    18    6   36 1
    19    7   37 1
    20    7   38 1
    21    8    9 2
    22    8   10 1
    23   10   15 ar
    24   10   11 ar
    25   11   12 ar
    26   11   39 1
    27   12   13 ar
    28   12   40 1
    29   13   14 ar
    30   13   16 1
    31   14   15 ar
    32   14   41 1
    33   15   42 1
    34   16   17 1
    35   16   43 1
    36   16   44 1
    37   17   18 1
    38   17   45 1
    39   18   19 2
    40   18   20 2
    41   18   21 1
    42   21   26 ar
    43   21   22 ar
    44   22   23 ar
    45   22   46 1
    46   23   24 ar
    47   23   47 1
    48   24   25 ar
    49   24   48 1
    50   25   26 ar
    51   25   27 1
    52   26   49 1
@<TRIPOS>MOLECULE
ZINC00630924
   49    51     0     0     0
SMALL
USER_CHARGES

@<TRIPOS>ATOM
      1 C1          3.2228    1.4390   -1.5577 C.3       1 <0>         0.0242
      2 N1          2.4431    0.3154   -1.0216 N.3       1 <0>        -0.5436
      3 C2          2.1589   -0.6751   -2.0685 C.3       1 <0>         0.0398
      4 C3          1.1970   -1.7334   -1.5181 C.3       1 <0>         0.1159
      5 N2          1.7674   -2.2841   -0.2792 N.am      1 <0>        -0.6084
      6 C4          2.2042   -1.3436    0.7638 C.3       1 <0>         0.1013
      7 C5          3.1265   -0.3007    0.1236 C.3       1 <0>         0.0388
      8 C6          1.8862   -3.6152   -0.1043 C.2       1 <0>         0.5602
      9 O1          1.4565   -4.3795   -0.9461 O.2       1 <0>        -0.5290
     10 C7          2.5391   -4.1456    1.1115 C.ar      1 <0>        -0.1168
     11 C8          2.1609   -3.6778    2.3710 C.ar      1 <0>        -0.0937
     12 C9          2.7738   -4.1773    3.5015 C.ar      1 <0>        -0.1045
     13 C10         3.7616   -5.1395    3.3888 C.ar      1 <0>        -0.0830
     14 C11         4.1414   -5.6071    2.1433 C.ar      1 <0>        -0.0998
     15 C12         3.5322   -5.1205    1.0052 C.ar      1 <0>        -0.0695
     16 C13         4.4271   -5.6802    4.6281 C.3       1 <0>         0.1541
     17 N3          3.6854   -6.8477    5.1108 N.pl3     1 <0>        -1.1120
     18 S1          4.3744   -7.8656    6.2205 S.o2      1 <0>         2.6957
     19 O2          3.4101   -8.8700    6.5040 O.2       1 <0>        -0.9489
     20 O3          5.6749   -8.1729    5.7372 O.2       1 <0>        -0.9476
     21 C14         4.5941   -6.9446    7.7065 C.ar      1 <0>        -0.6679
     22 C15         5.7668   -6.2435    7.9182 C.ar      1 <0>        -0.0192
     23 C16         5.9398   -5.5207    9.0836 C.ar      1 <0>        -0.1245
     24 C17         4.9405   -5.4988   10.0384 C.ar      1 <0>        -0.0536
     25 C18         3.7669   -6.2000    9.8272 C.ar      1 <0>        -0.0571
     26 C19         3.5918   -6.9185    8.6575 C.ar      1 <0>        -0.0100
     27 Cl1         2.5115   -6.1730   11.0258 Cl        1 <0>        -0.0536
     28 H1          4.1989    1.0807   -1.8847 H         1 <0>         0.0269
     29 H2          2.6942    1.8769   -2.4044 H         1 <0>         0.0717
     30 H3          3.3539    2.1933   -0.7818 H         1 <0>         0.0718
     31 H4          1.7021   -0.1786   -2.9246 H         1 <0>         0.0911
     32 H5          3.0879   -1.1538   -2.3781 H         1 <0>         0.0398
     33 H6          0.2314   -1.2749   -1.3044 H         1 <0>         0.0791
     34 H7          1.0726   -2.5313   -2.2502 H         1 <0>         0.0981
     35 H8          1.3355   -0.8477    1.1968 H         1 <0>         0.0814
     36 H9          2.7458   -1.8838    1.5403 H         1 <0>         0.0991
     37 H10         4.0420   -0.7846   -0.2166 H         1 <0>         0.0403
     38 H11         3.3715    0.4674    0.8571 H         1 <0>         0.0902
     39 H12         1.3905   -2.9262    2.4603 H         1 <0>         0.1335
     40 H13         2.4821   -3.8161    4.4767 H         1 <0>         0.1338
     41 H14         4.9134   -6.3581    2.0621 H         1 <0>         0.1361
     42 H15         3.8262   -5.4899    0.0338 H         1 <0>         0.1335
     43 H16         5.4507   -5.9717    4.3930 H         1 <0>         0.0943
     44 H17         4.4366   -4.9110    5.4004 H         1 <0>         0.0788
     45 H18         2.7907   -7.0245    4.7804 H         1 <0>         0.4237
     46 H19         6.5482   -6.2609    7.1728 H         1 <0>         0.1486
     47 H20         6.8561   -4.9733    9.2484 H         1 <0>         0.1455
     48 H21         5.0761   -4.9347   10.9493 H         1 <0>         0.1439
     49 H22         2.6740   -7.4625    8.4901 H         1 <0>         0.1516
@<TRIPOS>BOND
     1    1    2 1
     2    1   28 1
     3    1   29 1
     4    1   30 1
     5    2    7 1
     6    2    3 1
     7    3    4 1
     8    3   31 1
     9    3   32 1
    10    4    5 1
    11    4   33 1
    12    4   34 1
    13    5    6 1
    14    5    8 am
    15    6    7 1
    16    6   35 1
    17    6   36 1
    18    7   37 1
    19    7   38 1
    20    8    9 2
    21    8   10 1
    22   10   15 ar
    23   10   11 ar
    24   11   12 ar
    25   11   39 1
    26   12   13 ar
    27   12   40 1
    28   13   14 ar
    29   13   16 1
    30   14   15 ar
    31   14   41 1
    32   15   42 1
    33   16   17 1
    34   16   43 1
    35   16   44 1
    36   17   18 1
    37   17   45 1
    38   18   19 2
    39   18   20 2
    40   18   21 1
    41   21   26 ar
    42   21   22 ar
    43   22   23 ar
    44   22   46 1
    45   23   24 ar
    46   23   47 1
    47   24   25 ar
    48   24   48 1
    49   25   26 ar
    50   25   27 1
    51   26   49 1
@<TRIPOS>MOLECULE
ZINC12883304
   54    56     0     0     0
SMALL
USER_CHARGES

@<TRIPOS>ATOM
      1 C1          0.1225    1.3378   -1.8129 C.3       1 <0>        -0.1446
      2 C2          0.0350   -0.1885   -1.7507 C.3       1 <0>         0.0758
      3 H1         -0.2396   -0.5776   -2.7312 H         1 <0>         0.0636
      4 C3         -1.0246   -0.5991   -0.7218 C.3       1 <0>         0.0822
      5 N1         -0.9585   -2.0584   -0.5446 N.am      1 <0>        -0.6111
      6 C4          0.3555   -2.6636   -0.2752 C.3       1 <0>         0.0670
      7 C5          1.3478   -2.1524   -1.3259 C.3       1 <0>         0.0744
      8 H2          1.0786   -2.5494   -2.3046 H         1 <0>         0.0637
      9 O1          1.3023   -0.7240   -1.3621 O.3       1 <0>        -0.3723
     10 C6          2.7610   -2.6105   -0.9597 C.3       1 <0>        -0.1450
     11 C7         -2.0685   -2.8183   -0.6271 C.2       1 <0>         0.5616
     12 O2         -3.1540   -2.2937   -0.7817 O.2       1 <0>        -0.5258
     13 C8         -1.9658   -4.2900   -0.5296 C.ar      1 <0>        -0.1178
     14 C9         -1.2297   -4.8744    0.5022 C.ar      1 <0>        -0.0944
     15 C10        -1.1382   -6.2483    0.5878 C.ar      1 <0>        -0.1041
     16 C11        -1.7739   -7.0465   -0.3466 C.ar      1 <0>        -0.0825
     17 C12        -2.5049   -6.4735   -1.3722 C.ar      1 <0>        -0.0991
     18 C13        -2.6094   -5.1011   -1.4656 C.ar      1 <0>        -0.0684
     19 C14        -1.6693   -8.5465   -0.2472 C.3       1 <0>         0.1535
     20 N2         -2.7666   -9.0590    0.5772 N.pl3     1 <0>        -1.1118
     21 S1         -3.1293  -10.6747    0.5614 S.o2      1 <0>         2.6955
     22 O3         -4.2063  -10.8581    1.4700 O.2       1 <0>        -0.9469
     23 O4         -3.2108  -11.0593   -0.8042 O.2       1 <0>        -0.9454
     24 C15        -1.7452  -11.5261    1.2426 C.ar      1 <0>        -0.6820
     25 C16        -0.7209  -11.9519    0.4173 C.ar      1 <0>         0.0081
     26 C17         0.3648  -12.6197    0.9517 C.ar      1 <0>        -0.1361
     27 C18         0.4268  -12.8616    2.3115 C.ar      1 <0>        -0.0163
     28 C19        -0.5967  -12.4351    3.1366 C.ar      1 <0>        -0.2024
     29 C20        -1.6807  -11.7633    2.6027 C.ar      1 <0>         0.0317
     30 C21        -0.5294  -12.6992    4.6188 C.3       1 <0>         0.5099
     31 F1          0.6534  -13.3842    4.9172 F         1 <0>        -0.1739
     32 F2         -0.5513  -11.4833    5.3105 F         1 <0>        -0.1730
     33 F3         -1.6277  -13.4750    5.0046 F         1 <0>        -0.1711
     34 H3          0.8773    1.6290   -2.5433 H         1 <0>         0.0699
     35 H4         -0.8445    1.7455   -2.1074 H         1 <0>         0.0762
     36 H5          0.3970    1.7262   -0.8321 H         1 <0>         0.0675
     37 H6         -0.8244   -0.1045    0.2287 H         1 <0>         0.0796
     38 H7         -2.0142   -0.3174   -1.0815 H         1 <0>         0.1035
     39 H8          0.6946   -2.3768    0.7202 H         1 <0>         0.0819
     40 H9          0.2798   -3.7491   -0.3393 H         1 <0>         0.1048
     41 H10         2.7935   -3.6996   -0.9294 H         1 <0>         0.0751
     42 H11         3.4660   -2.2466   -1.7072 H         1 <0>         0.0702
     43 H12         3.0303   -2.2116    0.0183 H         1 <0>         0.0677
     44 H13        -0.7324   -4.2524    1.2318 H         1 <0>         0.1329
     45 H14        -0.5689   -6.7017    1.3857 H         1 <0>         0.1343
     46 H15        -2.9984   -7.1022   -2.0985 H         1 <0>         0.1370
     47 H16        -3.1843   -4.6552   -2.2638 H         1 <0>         0.1345
     48 H17        -1.7301   -8.9819   -1.2446 H         1 <0>         0.0952
     49 H18        -0.7163   -8.8148    0.2089 H         1 <0>         0.0791
     50 H19        -3.2806   -8.4520    1.1322 H         1 <0>         0.4243
     51 H20        -0.7693  -11.7629   -0.6449 H         1 <0>         0.1525
     52 H21         1.1646  -12.9529    0.3069 H         1 <0>         0.1492
     53 H22         1.2748  -13.3840    2.7289 H         1 <0>         0.1495
     54 H23        -2.4787  -11.4268    3.2479 H         1 <0>         0.1523
@<TRIPOS>BOND
     1    1    2 1
     2    1   34 1
     3    1   35 1
     4    1   36 1
     5    2    3 1
     6    2    9 1
     7    2    4 1
     8    4    5 1
     9    4   37 1
    10    4   38 1
    11    5    6 1
    12    5   11 am
    13    6    7 1
    14    6   39 1
    15    6   40 1
    16    7    8 1
    17    7    9 1
    18    7   10 1
    19   10   41 1
    20   10   42 1
    21   10   43 1
    22   11   12 2
    23   11   13 1
    24   13   18 ar
    25   13   14 ar
    26   14   15 ar
    27   14   44 1
    28   15   16 ar
    29   15   45 1
    30   16   17 ar
    31   16   19 1
    32   17   18 ar
    33   17   46 1
    34   18   47 1
    35   19   20 1
    36   19   48 1
    37   19   49 1
    38   20   21 1
    39   20   50 1
    40   21   22 2
    41   21   23 2
    42   21   24 1
    43   24   29 ar
    44   24   25 ar
    45   25   26 ar
    46   25   51 1
    47   26   27 ar
    48   26   52 1
    49   27   28 ar
    50   27   53 1
    51   28   29 ar
    52   28   30 1
    53   29   54 1
    54   30   31 1
    55   30   32 1
    56   30   33 1
