@<TRIPOS>MOLECULE
ZINC05966264
   31    32     0     0     0
SMALL
USER_CHARGES
4-(1-methyl-3,6-dihydro-2H-pyridin-4-yl)benzene-1,2-diol
@<TRIPOS>ATOM
      1 C1         -6.3024    5.7235   -0.0651 C.3       1 <0>        -0.0414
      2 C2         -4.4670    4.8386    1.2477 C.3       1 <0>         0.0004
      3 C3         -3.4177    3.7240    1.2490 C.3       1 <0>        -0.1164
      4 C4         -2.5278    3.8643    0.0456 C.2       1 <0>        -0.0457
      5 C5         -2.8478    4.6070   -0.9915 C.2       1 <0>        -0.1884
      6 C6         -4.1305    5.3830   -1.0785 C.3       1 <0>         0.0408
      7 C7         -1.2380    3.1431    0.0298 C.ar      1 <0>        -0.0773
      8 C8         -1.2173    1.7477    0.0173 C.ar      1 <0>        -0.0923
      9 C9         -0.0126    1.0758    0.0080 C.ar      1 <0>        -0.1271
     10 C10         1.1799    1.7841    0.0004 C.ar      1 <0>         0.1004
     11 C11         1.1661    3.1768    0.0071 C.ar      1 <0>         0.0866
     12 C12        -0.0383    3.8561    0.0217 C.ar      1 <0>        -0.1118
     13 O1          2.3370    3.8685   -0.0004 O.3       1 <0>        -0.4843
     14 O2          2.3647    1.1175   -0.0141 O.3       1 <0>        -0.4852
     15 H1         -6.0412    6.7373    0.2384 H         1 <0>         0.1236
     16 H2         -6.7443    5.7450   -1.0613 H         1 <0>         0.1242
     17 H3         -7.0196    5.3060    0.6416 H         1 <0>         0.1242
     18 H4         -5.2263    4.6276    2.0006 H         1 <0>         0.1377
     19 H5         -3.9874    5.7931    1.4647 H         1 <0>         0.1338
     20 H6         -3.9173    2.7557    1.2196 H         1 <0>         0.1080
     21 H7         -2.8161    3.7944    2.1552 H         1 <0>         0.1260
     22 H8         -2.1578    4.6582   -1.8208 H         1 <0>         0.1507
     23 H9         -4.5548    5.2728   -2.0765 H         1 <0>         0.1403
     24 H10        -3.9223    6.4361   -0.8891 H         1 <0>         0.1397
     25 H11        -2.1445    1.1939    0.0190 H         1 <0>         0.1320
     26 H12         0.0021   -0.0041    0.0020 H         1 <0>         0.1419
     27 H13        -0.0504    4.9360    0.0266 H         1 <0>         0.1361
     28 H14         2.6675    4.0727   -0.8859 H         1 <0>         0.3940
     29 H15         2.6992    0.9291   -0.9016 H         1 <0>         0.3962
     30 N1         -5.0947    4.8672   -0.0892 N.4       1 <0>        -0.3985
     31 H16        -5.3670    3.9128   -0.3522 H         1 <0>         0.4319
@<TRIPOS>BOND
     1    1   15 1
     2    1   16 1
     3    1   17 1
     4    1   30 1
     5    2    3 1
     6    2   18 1
     7    2   19 1
     8    2   30 1
     9    3    4 1
    10    3   20 1
    11    3   21 1
    12    4    5 2
    13    4    7 1
    14    5    6 1
    15    5   22 1
    16    6   23 1
    17    6   24 1
    18    6   30 1
    19    7   12 ar
    20    7    8 ar
    21    8    9 ar
    22    8   25 1
    23    9   10 ar
    24    9   26 1
    25   10   11 ar
    26   10   14 1
    27   11   12 ar
    28   11   13 1
    29   12   27 1
    30   13   28 1
    31   14   29 1
    32   30   31 1
