@<TRIPOS>MOLECULE
ZINC03928304
   76    83     0     0     0
SMALL
USER_CHARGES
methyl bis(ethylsulfanylmethyl)-hydroxy-methyl-oxo-BLAHcarboxylate
@<TRIPOS>ATOM
      1 C1         -5.0414   -1.8378   -6.3801 C.3       1 <0>        -0.1369
      2 C2         -4.3963   -0.6741   -5.6247 C.3       1 <0>        -0.0930
      3 S1         -2.9865   -1.2861   -4.6611 S.3       1 <0>        -0.2572
      4 C3         -2.3420    0.1956   -3.8368 C.3       1 <0>        -0.0383
      5 C4         -1.1513   -0.1774   -2.9917 C.ar      1 <0>        -0.1147
      6 C5          0.1125   -0.1391   -3.5552 C.ar      1 <0>        -0.0542
      7 C6          1.2498   -0.4727   -2.8402 C.ar      1 <0>        -0.1508
      8 C7          1.0766   -0.8561   -1.5108 C.ar      1 <0>         0.1578
      9 C8         -0.2165   -0.8850   -0.9331 C.ar      1 <0>        -0.1048
     10 C9         -1.3513   -0.5461   -1.6728 C.ar      1 <0>        -0.0128
     11 C10        -0.0491   -1.3024    0.4553 C.ar      1 <0>         0.0035
     12 C11        -0.9193   -1.5272    1.5482 C.ar      1 <0>        -0.1354
     13 C12        -0.3944   -1.8667    2.7926 C.ar      1 <0>        -0.0400
     14 C13         0.9791   -1.9915    2.9781 C.ar      1 <0>        -0.0568
     15 C14         1.8555   -2.2634    4.1184 C.ar      1 <0>        -0.0919
     16 C15         1.5816   -2.4904    5.4668 C.ar      1 <0>        -0.0334
     17 C16         2.6691   -2.6795    6.3033 C.ar      1 <0>        -0.1042
     18 C17         3.9682   -2.6451    5.8287 C.ar      1 <0>        -0.0638
     19 C18         4.2601   -2.4276    4.4926 C.ar      1 <0>        -0.1389
     20 C19         3.1825   -2.2419    3.6279 C.ar      1 <0>         0.1671
     21 N1          3.1501   -2.0254    2.2714 N.pl3     1 <0>        -0.4836
     22 C20         1.8374   -1.8253    1.8836 C.ar      1 <0>         0.1626
     23 C21         1.3210   -1.4878    0.6269 C.ar      1 <0>         0.1066
     24 N2          1.9892   -1.2571   -0.5680 N.pl3     1 <0>        -0.5115
     25 C22         3.4228   -1.4906   -0.7660 C.3       1 <0>         0.3151
     26 H1          3.6437   -1.7077   -1.8111 H         1 <0>         0.1551
     27 C23         4.2033   -0.2450   -0.2976 C.3       1 <0>        -0.1929
     28 C24         4.7695   -0.6207    1.0874 C.3       1 <0>         0.1103
     29 C25         4.2849   -2.0629    1.3438 C.3       1 <0>         0.3580
     30 O1          3.8711   -2.5575    0.0704 O.3       1 <0>        -0.3355
     31 C26         5.4102   -2.9293    1.9130 C.3       1 <0>        -0.1730
     32 C27         6.2756   -0.5708    1.0677 C.2       1 <0>         0.4479
     33 O2          6.8693   -0.6595    0.0191 O.2       1 <0>        -0.4797
     34 O3          6.9574   -0.4279    2.2150 O.3       1 <0>        -0.3421
     35 C28         8.4058   -0.3878    2.1205 C.3       1 <0>         0.0290
     36 O4          4.2562    0.2603    2.0885 O.3       1 <0>        -0.5063
     37 C29         2.4308   -2.9301    7.7701 C.3       1 <0>        -0.0398
     38 S2          2.2717   -4.7136    8.0608 S.3       1 <0>        -0.2576
     39 C30         1.9926   -4.8436    9.8485 C.3       1 <0>        -0.0927
     40 C31         1.8391   -6.3160   10.2349 C.3       1 <0>        -0.1376
     41 C32        -1.5714   -2.0160    3.7256 C.3       1 <0>         0.1434
     42 N3         -2.7684   -1.7516    2.9197 N.am      1 <0>        -0.7235
     43 C33        -2.3849   -1.4725    1.6626 C.2       1 <0>         0.5675
     44 O5         -3.1428   -1.2111    0.7481 O.2       1 <0>        -0.5230
     45 H2         -4.3090   -2.2853   -7.0520 H         1 <0>         0.0641
     46 H3         -5.3862   -2.5870   -5.6674 H         1 <0>         0.0651
     47 H4         -5.8885   -1.4700   -6.9591 H         1 <0>         0.0706
     48 H5         -5.1287   -0.2266   -4.9528 H         1 <0>         0.0801
     49 H6         -4.0515    0.0751   -6.3373 H         1 <0>         0.0788
     50 H7         -3.1175    0.6249   -3.2025 H         1 <0>         0.0900
     51 H8         -2.0403    0.9266   -4.5870 H         1 <0>         0.0879
     52 H9          0.2146    0.1617   -4.5874 H         1 <0>         0.1286
     53 H10         2.2298   -0.4379   -3.2929 H         1 <0>         0.1332
     54 H11        -2.3389   -0.5719   -1.2365 H         1 <0>         0.1548
     55 H12         0.5689   -2.5172    5.8412 H         1 <0>         0.1373
     56 H13         4.7819   -2.7927    6.5234 H         1 <0>         0.1280
     57 H14         5.2791   -2.4033    4.1357 H         1 <0>         0.1381
     58 H15         5.0150   -0.0245   -0.9909 H         1 <0>         0.1256
     59 H16         3.5343    0.6115   -0.2146 H         1 <0>         0.1168
     60 H17         4.9824   -3.7987    2.4122 H         1 <0>         0.0985
     61 H18         6.0603   -3.2590    1.1026 H         1 <0>         0.0954
     62 H19         5.9897   -2.3474    2.6298 H         1 <0>         0.1041
     63 H20         8.8318   -0.2694    3.1168 H         1 <0>         0.1103
     64 H21         8.7669   -1.3166    1.6789 H         1 <0>         0.0689
     65 H22         8.7059    0.4528    1.4948 H         1 <0>         0.0680
     66 H23         4.5282    1.1817    1.9785 H         1 <0>         0.3917
     67 H24         3.2707   -2.5416    8.3461 H         1 <0>         0.0887
     68 H25         1.5143   -2.4282    8.0802 H         1 <0>         0.0891
     69 H26         2.8417   -4.4149   10.3809 H         1 <0>         0.0794
     70 H27         1.0853   -4.3015   10.1150 H         1 <0>         0.0799
     71 H28         0.9901   -6.7447    9.7025 H         1 <0>         0.0649
     72 H29         2.7464   -6.8581    9.9684 H         1 <0>         0.0646
     73 H30         1.6714   -6.3942   11.3091 H         1 <0>         0.0711
     74 H31        -1.6057   -3.0290    4.1265 H         1 <0>         0.1013
     75 H32        -1.4995   -1.2931    4.5382 H         1 <0>         0.1001
     76 H33        -3.6834   -1.7741    3.2407 H         1 <0>         0.4268
@<TRIPOS>BOND
     1    1    2 1
     2    1   45 1
     3    1   46 1
     4    1   47 1
     5    2    3 1
     6    2   48 1
     7    2   49 1
     8    3    4 1
     9    4    5 1
    10    4   50 1
    11    4   51 1
    12    5   10 ar
    13    5    6 ar
    14    6    7 ar
    15    6   52 1
    16    7    8 ar
    17    7   53 1
    18    8   24 1
    19    8    9 ar
    20    9   10 ar
    21    9   11 1
    22   10   54 1
    23   11   23 ar
    24   11   12 ar
    25   12   43 1
    26   12   13 ar
    27   13   14 ar
    28   13   41 1
    29   14   22 ar
    30   14   15 1
    31   15   20 ar
    32   15   16 ar
    33   16   17 ar
    34   16   55 1
    35   17   18 ar
    36   17   37 1
    37   18   19 ar
    38   18   56 1
    39   19   20 ar
    40   19   57 1
    41   20   21 1
    42   21   29 1
    43   21   22 1
    44   22   23 ar
    45   23   24 1
    46   24   25 1
    47   25   26 1
    48   25   30 1
    49   25   27 1
    50   27   28 1
    51   27   58 1
    52   27   59 1
    53   28   29 1
    54   28   32 1
    55   28   36 1
    56   29   30 1
    57   29   31 1
    58   31   60 1
    59   31   61 1
    60   31   62 1
    61   32   33 2
    62   32   34 1
    63   34   35 1
    64   35   63 1
    65   35   64 1
    66   35   65 1
    67   36   66 1
    68   37   38 1
    69   37   67 1
    70   37   68 1
    71   38   39 1
    72   39   40 1
    73   39   69 1
    74   39   70 1
    75   40   71 1
    76   40   72 1
    77   40   73 1
    78   41   42 1
    79   41   74 1
    80   41   75 1
    81   42   43 am
    82   42   76 1
    83   43   44 2
@<TRIPOS>MOLECULE
ZINC03964325
   57    59     0     0     0
SMALL
USER_CHARGES

@<TRIPOS>ATOM
      1 C1          0.1489    2.0884    0.1150 C.3       1 <0>        -0.1876
      2 C2          0.1348    0.5603    0.1888 C.3       1 <0>        -0.0191
      3 N1         -1.2520    0.0881    0.2979 N.4       1 <0>        -0.3822
      4 C3         -1.9779    0.4111   -0.9377 C.3       1 <0>        -0.0142
      5 C4         -3.4549    0.0484   -0.7712 C.3       1 <0>        -0.1895
      6 C5         -1.2593   -1.3663    0.5041 C.3       1 <0>        -0.0265
      7 C6         -0.6131   -1.6936    1.8518 C.3       1 <0>         0.0952
      8 N2         -0.6203   -3.1440    2.0575 N.am      1 <0>        -0.7289
      9 C7         -0.0988   -3.6675    3.1846 C.2       1 <0>         0.6111
     10 O1          0.3779   -2.9358    4.0309 O.2       1 <0>        -0.5184
     11 C8         -0.1061   -5.1270    3.3915 C.2       1 <0>        -0.2420
     12 C9          0.9071   -6.0320    3.0089 C.2       1 <0>        -0.0577
     13 C10         0.4868   -7.2892    3.3960 C.2       1 <0>        -0.0075
     14 N3         -0.7476   -7.1595    3.9982 N.pl3     1 <0>        -0.4910
     15 H1         -1.2731   -7.8879    4.3645 H         1 <0>         0.4270
     16 C11        -1.1044   -5.8642    4.0022 C.2       1 <0>         0.1158
     17 C12        -2.3825   -5.3072    4.5743 C.3       1 <0>        -0.0999
     18 C13         1.1957   -8.4957    3.2079 C.2       1 <0>         0.0729
     19 C14         0.5100   -9.6674    2.9570 C.2       1 <0>        -0.1889
     20 C15         1.0648  -11.0377    2.8871 C.ar      1 <0>        -0.0736
     21 C16         2.3472  -11.5557    3.0375 C.ar      1 <0>        -0.1000
     22 C17         2.5553  -12.9162    2.9116 C.ar      1 <0>         0.0861
     23 C18         1.4888  -13.7593    2.6366 C.ar      1 <0>        -0.1139
     24 C19         0.2139  -13.2531    2.4856 C.ar      1 <0>        -0.1021
     25 C20        -0.0144  -11.8871    2.6092 C.ar      1 <0>         0.1282
     26 N4         -1.1765  -11.1301    2.5069 N.am      1 <0>        -0.6466
     27 C21        -0.9294   -9.8245    2.7079 C.2       1 <0>         0.5595
     28 O2         -1.7538   -8.9280    2.6842 O.2       1 <0>        -0.5156
     29 F1          3.7984  -13.4252    3.0561 F         1 <0>        -0.1318
     30 C22         2.1990   -5.6919    2.3116 C.3       1 <0>        -0.0931
     31 H2          1.1793    2.4435    0.1331 H         1 <0>         0.1076
     32 H3         -0.3308    2.4121   -0.8087 H         1 <0>         0.0811
     33 H4         -0.3916    2.4984    0.9682 H         1 <0>         0.0809
     34 H5          0.5888    0.1488   -0.7126 H         1 <0>         0.1317
     35 H6          0.6996    0.2334    1.0619 H         1 <0>         0.1337
     36 H7         -1.8867    1.4775   -1.1444 H         1 <0>         0.1351
     37 H8         -1.5554   -0.1571   -1.7664 H         1 <0>         0.1307
     38 H9         -3.5537   -1.0316   -0.6617 H         1 <0>         0.0802
     39 H10        -3.8523    0.5414    0.1160 H         1 <0>         0.0808
     40 H11        -4.0109    0.3769   -1.6492 H         1 <0>         0.1074
     41 H12        -2.2871   -1.7292    0.4963 H         1 <0>         0.1397
     42 H13        -0.6973   -1.8494   -0.2952 H         1 <0>         0.1376
     43 H14         0.4147   -1.3306    1.8596 H         1 <0>         0.0893
     44 H15        -1.1751   -1.2105    2.6511 H         1 <0>         0.0890
     45 H16        -1.0005   -3.7277    1.3824 H         1 <0>         0.4099
     46 H17        -3.1529   -5.3000    3.8032 H         1 <0>         0.0840
     47 H18        -2.7087   -5.9289    5.4080 H         1 <0>         0.0782
     48 H19        -2.2103   -4.2898    4.9254 H         1 <0>         0.0840
     49 H20         2.2744   -8.5020    3.2604 H         1 <0>         0.1589
     50 H21         3.1765  -10.8977    3.2512 H         1 <0>         0.1436
     51 H22         1.6578  -14.8215    2.5394 H         1 <0>         0.1485
     52 H23        -0.6084  -13.9196    2.2712 H         1 <0>         0.1415
     53 H24        -2.0541  -11.4980    2.3189 H         1 <0>         0.4217
     54 H25         2.9686   -5.4822    3.0545 H         1 <0>         0.0785
     55 H26         2.5107   -6.5337    1.6932 H         1 <0>         0.0726
     56 H27         2.0522   -4.8138    1.6827 H         1 <0>         0.0634
     57 H28        -1.7009    0.5410    1.0799 H         1 <0>         0.4247
@<TRIPOS>BOND
     1    1    2 1
     2    1   31 1
     3    1   32 1
     4    1   33 1
     5    2    3 1
     6    2   34 1
     7    2   35 1
     8    3    4 1
     9    3    6 1
    10    3   57 1
    11    4    5 1
    12    4   36 1
    13    4   37 1
    14    5   38 1
    15    5   39 1
    16    5   40 1
    17    6    7 1
    18    6   41 1
    19    6   42 1
    20    7    8 1
    21    7   43 1
    22    7   44 1
    23    8    9 am
    24    8   45 1
    25    9   10 2
    26    9   11 1
    27   11   16 2
    28   11   12 1
    29   12   13 2
    30   12   30 1
    31   13   14 1
    32   13   18 1
    33   14   15 1
    34   14   16 1
    35   16   17 1
    36   17   46 1
    37   17   47 1
    38   17   48 1
    39   18   19 2
    40   18   49 1
    41   19   27 1
    42   19   20 1
    43   20   25 ar
    44   20   21 ar
    45   21   22 ar
    46   21   50 1
    47   22   23 ar
    48   22   29 1
    49   23   24 ar
    50   23   51 1
    51   24   25 ar
    52   24   52 1
    53   25   26 1
    54   26   27 am
    55   26   53 1
    56   27   28 2
    57   30   54 1
    58   30   55 1
    59   30   56 1
