@<TRIPOS>MOLECULE
ZINC04228232
   46    48     0     0     0
SMALL
USER_CHARGES
2-amino-4-[[5-(6-aminopurin-9-yl)-3,4-dihydroxy-tetrahydrofuran-2-yl]methylsulfanyl]butanoic acid
@<TRIPOS>ATOM
      1 C1          3.8176   -3.6131    2.4220 C.ar      1 <0>         0.3467
      2 N1          3.8812   -4.7432    1.7415 N.ar      1 <0>        -0.5735
      3 C2          3.2200   -4.8967    0.5990 C.ar      1 <0>         0.4480
      4 C3          2.4450   -3.8245    0.1245 C.ar      1 <0>        -0.0679
      5 C4          2.4150   -2.6416    0.8820 C.ar      1 <0>         0.3043
      6 N2          3.1057   -2.5831    2.0162 N.ar      1 <0>        -0.5273
      7 N3          1.5939   -1.7779    0.2022 N.pl3     1 <0>        -0.4718
      8 C5          1.1623   -2.4217   -0.9192 C.2       1 <0>         0.2723
      9 N4          1.6629   -3.6223   -0.9629 N.2       1 <0>        -0.4524
     10 C6          1.2492   -0.4120    0.6044 C.3       1 <0>         0.3206
     11 H1          1.1941   -0.3353    1.6903 H         1 <0>         0.1255
     12 C7          2.2740    0.6028    0.0367 C.3       1 <0>         0.0349
     13 H2          2.5932    0.3143   -0.9647 H         1 <0>         0.0880
     14 C8          1.4475    1.9113   -0.0015 C.3       1 <0>         0.0507
     15 H3          1.6594    2.4699   -0.9132 H         1 <0>         0.0883
     16 C9         -0.0174    1.4332    0.0099 C.3       1 <0>         0.1083
     17 H4         -0.5174    1.7922    0.9095 H         1 <0>         0.1084
     18 O1          0.0021   -0.0041    0.0020 O.3       1 <0>        -0.3461
     19 C10        -0.7432    1.9505   -1.2337 C.3       1 <0>        -0.0976
     20 S1         -2.4954    1.4893   -1.1468 S.3       1 <0>        -0.1983
     21 C11        -3.2038    2.1672   -2.6730 C.3       1 <0>        -0.1141
     22 C12        -4.6986    1.8454   -2.7283 C.3       1 <0>        -0.1100
     23 C13        -5.2961    2.4171   -4.0156 C.3       1 <0>        -0.0114
     24 H5         -4.7385    2.0409   -4.8733 H         1 <0>         0.1410
     25 C14        -6.7385    1.9959   -4.1302 C.2       1 <0>         0.4540
     26 O2         -7.6185    2.7648   -3.8232 O.co2     1 <0>        -0.6140
     27 O3          1.7219    2.7101    1.1512 O.3       1 <0>        -0.5381
     28 O4          3.3979    0.7348    0.9094 O.3       1 <0>        -0.5265
     29 N5          3.2930   -6.0845   -0.1072 N.pl3     1 <0>        -0.7437
     30 H6          4.3708   -3.5309    3.3459 H         1 <0>         0.2070
     31 H7          0.5027   -1.9980   -1.6620 H         1 <0>         0.2259
     32 H8         -0.6551    3.0359   -1.2806 H         1 <0>         0.1030
     33 H9         -0.2955    1.5108   -2.1249 H         1 <0>         0.0954
     34 H10        -3.0640    3.2480   -2.6897 H         1 <0>         0.0727
     35 H11        -2.7044    1.7229   -3.5340 H         1 <0>         0.0955
     36 H12        -4.8384    0.7645   -2.7116 H         1 <0>         0.1232
     37 H13        -5.1980    2.2897   -1.8674 H         1 <0>         0.0940
     38 H14        -5.7247    4.2568   -3.1970 H         1 <0>         0.4359
     39 H15        -4.2547    4.1925   -3.9722 H         1 <0>         0.4165
     40 H16         2.6306    3.0380    1.1952 H         1 <0>         0.3888
     41 H17         4.0670    1.3592    0.5971 H         1 <0>         0.3846
     42 H18         2.3775   -6.4773   -0.1943 H         1 <0>         0.3706
     43 H19         3.8313   -6.8174    0.2306 H         1 <0>         0.3742
     44 O5         -7.0455    0.7667   -4.5733 O.co2     1 <0>        -0.6970
     45 N6         -5.2265    3.8890   -4.0058 N.4       1 <0>        -0.6272
     46 H20        -5.6618    4.2531   -4.8615 H         1 <0>         0.4385
@<TRIPOS>BOND
     1    1    6 ar
     2    1    2 ar
     3    1   30 1
     4    2    3 ar
     5    3    4 ar
     6    3   29 1
     7    4    9 1
     8    4    5 ar
     9    5    6 ar
    10    5    7 1
    11    7    8 1
    12    7   10 1
    13    8    9 2
    14    8   31 1
    15   10   11 1
    16   10   18 1
    17   10   12 1
    18   12   13 1
    19   12   14 1
    20   12   28 1
    21   14   15 1
    22   14   16 1
    23   14   27 1
    24   16   17 1
    25   16   18 1
    26   16   19 1
    27   19   20 1
    28   19   32 1
    29   19   33 1
    30   20   21 1
    31   21   22 1
    32   21   34 1
    33   21   35 1
    34   22   23 1
    35   22   36 1
    36   22   37 1
    37   23   24 1
    38   23   25 1
    39   23   45 1
    40   25   26 2
    41   25   44 1
    42   27   40 1
    43   28   41 1
    44   29   42 1
    45   29   43 1
    46   38   45 1
    47   39   45 1
    48   45   46 1
@<TRIPOS>MOLECULE
ZINC13509104
   46    48     0     0     0
SMALL
USER_CHARGES
(2R)-2-amino-4-[[(2S,3S,4R,5R)-5-(6-aminopurin-9-yl)-3,4-dihydroxy-tetrahydrofuran-2-yl]methylsulfanyl]butanoic acid
@<TRIPOS>ATOM
      1 C1         -0.2748  -10.1383   -5.2352 C.ar      1 <0>         0.3483
      2 N1         -1.3558  -10.1479   -5.9940 N.ar      1 <0>        -0.5728
      3 C2         -2.0140   -9.0265   -6.2682 C.ar      1 <0>         0.4482
      4 C3         -1.5263   -7.8180   -5.7419 C.ar      1 <0>        -0.0680
      5 C4         -0.3713   -7.8606   -4.9432 C.ar      1 <0>         0.3023
      6 N2          0.2151   -9.0319   -4.7173 N.ar      1 <0>        -0.5275
      7 N3         -0.1240   -6.5648   -4.5663 N.pl3     1 <0>        -0.4731
      8 C5         -1.0905   -5.7845   -5.1276 C.2       1 <0>         0.2718
      9 N4         -1.9122   -6.5216   -5.8169 N.2       1 <0>        -0.4528
     10 C6          0.9801   -6.1035   -3.7210 C.3       1 <0>         0.3182
     11 H1          1.1783   -6.8261   -2.9293 H         1 <0>         0.1246
     12 C7          2.2495   -5.8755   -4.5713 C.3       1 <0>         0.0359
     13 H2          1.9835   -5.6827   -5.6106 H         1 <0>         0.0838
     14 C8          2.9052   -4.6272   -3.9397 C.3       1 <0>         0.0509
     15 H3          2.9633   -3.8172   -4.6667 H         1 <0>         0.0878
     16 C9          1.9544   -4.2486   -2.7825 C.3       1 <0>         0.1076
     17 H4          2.3031   -4.6851   -1.8466 H         1 <0>         0.1080
     18 O1          0.6769   -4.8094   -3.1561 O.3       1 <0>        -0.3451
     19 C10         1.8512   -2.7275   -2.6538 C.3       1 <0>        -0.0903
     20 S1          0.8496   -2.3102   -1.2002 S.3       1 <0>        -0.2031
     21 C11         0.8250   -0.4964   -1.1902 C.3       1 <0>        -0.1128
     22 C12         0.0021   -0.0041    0.0020 C.3       1 <0>        -0.1101
     23 C13        -0.0187    1.5258    0.0104 C.3       1 <0>        -0.0113
     24 H5          1.0039    1.9031    0.0027 H         1 <0>         0.1408
     25 C14        -0.7240    2.0118    1.2503 C.2       1 <0>         0.4540
     26 O2         -1.8766    2.3692    1.1888 O.co2     1 <0>        -0.6136
     27 O3          4.2054   -4.9414   -3.4369 O.3       1 <0>        -0.5360
     28 O4          3.1239   -7.0019   -4.4776 O.3       1 <0>        -0.5255
     29 N5         -3.1449   -9.0462   -7.0656 N.pl3     1 <0>        -0.7432
     30 H6          0.2261  -11.0734   -5.0323 H         1 <0>         0.2078
     31 H7         -1.1634   -4.7126   -5.0170 H         1 <0>         0.2254
     32 H8          1.3816   -2.3183   -3.5483 H         1 <0>         0.0944
     33 H9          2.8492   -2.3039   -2.5412 H         1 <0>         0.1075
     34 H10         0.3769   -0.1340   -2.1154 H         1 <0>         0.0737
     35 H11         1.8445   -0.1197   -1.1083 H         1 <0>         0.0950
     36 H12         0.4501   -0.3665    0.9272 H         1 <0>         0.1226
     37 H13        -1.0175   -0.3808   -0.0798 H         1 <0>         0.0946
     38 H14        -0.2400    1.7542   -2.0236 H         1 <0>         0.4167
     39 H15        -1.6803    1.6760   -1.1957 H         1 <0>         0.4361
     40 H16         4.8431   -5.1863   -4.1214 H         1 <0>         0.3864
     41 H17         3.9633   -6.8881   -4.9440 H         1 <0>         0.3839
     42 H18        -3.9220   -8.6839   -6.5509 H         1 <0>         0.3704
     43 H19        -3.4718   -9.8867   -7.4229 H         1 <0>         0.3746
     44 O5         -0.0719    2.0476    2.4230 O.co2     1 <0>        -0.6976
     45 N6         -0.7281    2.0373   -1.1755 N.4       1 <0>        -0.6271
     46 H20        -0.7597    3.0628   -1.1336 H         1 <0>         0.4385
@<TRIPOS>BOND
     1    1    6 ar
     2    1    2 ar
     3    1   30 1
     4    2    3 ar
     5    3    4 ar
     6    3   29 1
     7    4    9 1
     8    4    5 ar
     9    5    6 ar
    10    5    7 1
    11    7    8 1
    12    7   10 1
    13    8    9 2
    14    8   31 1
    15   10   11 1
    16   10   18 1
    17   10   12 1
    18   12   13 1
    19   12   14 1
    20   12   28 1
    21   14   15 1
    22   14   16 1
    23   14   27 1
    24   16   17 1
    25   16   18 1
    26   16   19 1
    27   19   20 1
    28   19   32 1
    29   19   33 1
    30   20   21 1
    31   21   22 1
    32   21   34 1
    33   21   35 1
    34   22   23 1
    35   22   36 1
    36   22   37 1
    37   23   24 1
    38   23   25 1
    39   23   45 1
    40   25   26 2
    41   25   44 1
    42   27   40 1
    43   28   41 1
    44   29   42 1
    45   29   43 1
    46   38   45 1
    47   39   45 1
    48   45   46 1
@<TRIPOS>MOLECULE
ZINC13509082
   46    48     0     0     0
SMALL
USER_CHARGES

@<TRIPOS>ATOM
      1 C1         -0.0158    1.3119    0.0093 C.ar      1 <0>         0.3651
      2 N1          1.0888    2.0360    0.0026 N.ar      1 <0>        -0.5915
      3 C2          2.2875    1.4625   -0.0119 C.ar      1 <0>         0.5092
      4 C3          2.3582    0.0588   -0.0202 C.ar      1 <0>        -0.1104
      5 C4          1.1547   -0.6659   -0.0126 C.ar      1 <0>         0.3160
      6 N2          0.0021   -0.0041    0.0020 N.ar      1 <0>        -0.5487
      7 N3          1.5110   -1.9908   -0.0227 N.pl3     1 <0>        -0.4711
      8 C5          2.8729   -2.0476   -0.0358 C.2       1 <0>         0.2626
      9 N4          3.3680   -0.8441   -0.0343 N.2       1 <0>        -0.4593
     10 C6          0.5956   -3.1347   -0.0195 C.3       1 <0>         0.3214
     11 H1         -0.2963   -2.9126   -0.6053 H         1 <0>         0.1244
     12 C7          0.2130   -3.5234    1.4313 C.3       1 <0>         0.0353
     13 H2          1.0640   -3.4074    2.1024 H         1 <0>         0.0872
     14 C8         -0.1695   -5.0156    1.2770 C.3       1 <0>         0.0507
     15 H3          0.2092   -5.5955    2.1186 H         1 <0>         0.0875
     16 C9          0.5206   -5.4491   -0.0308 C.3       1 <0>         0.1080
     17 H4         -0.2285   -5.7500   -0.7632 H         1 <0>         0.1078
     18 O1          1.2553   -4.3151   -0.5254 O.3       1 <0>        -0.3453
     19 C10         1.4746   -6.6130    0.2454 C.3       1 <0>        -0.0977
     20 S1          2.2806   -7.1142   -1.3005 S.3       1 <0>        -0.1965
     21 C11         3.3631   -8.4836   -0.8071 C.3       1 <0>        -0.1154
     22 C12         4.1134   -9.0078   -2.0331 C.3       1 <0>        -0.1103
     23 C13         5.0264  -10.1628   -1.6170 C.3       1 <0>        -0.0445
     24 H5          5.6844   -9.8341   -0.8125 H         1 <0>         0.1357
     25 C14         5.8554  -10.5984   -2.7977 C.2       1 <0>         0.4904
     26 O2          6.7376   -9.8728   -3.2241 O.co2     1 <0>        -0.6309
     27 O3          5.6439  -11.6763   -3.3266 O.co2     1 <0>        -0.6703
     28 N5          4.2082  -11.2902   -1.1506 N.4       1 <0>        -0.6141
     29 O4         -1.5871   -5.1600    1.1692 O.3       1 <0>        -0.5389
     30 O5         -0.9020   -2.7551    1.8879 O.3       1 <0>        -0.5251
     31 N6          3.4393    2.2295   -0.0193 N.pl3     1 <0>        -0.8170
     32 H6         -0.9693    1.8187    0.0257 H         1 <0>         0.2056
     33 H7          3.4551   -2.9572   -0.0459 H         1 <0>         0.2234
     34 H8          2.2313   -6.2996    0.9647 H         1 <0>         0.0938
     35 H9          0.9133   -7.4543    0.6519 H         1 <0>         0.1031
     36 H10         4.0801   -8.1309   -0.0657 H         1 <0>         0.0941
     37 H11         2.7621   -9.2856   -0.3785 H         1 <0>         0.0715
     38 H12         3.3963   -9.3605   -2.7745 H         1 <0>         0.0924
     39 H13         4.7144   -8.2058   -2.4617 H         1 <0>         0.1215
     40 H14         3.5992  -11.5945   -1.8952 H         1 <0>         0.4331
     41 H15         4.8104  -12.0519   -0.8761 H         1 <0>         0.4338
     42 H16        -2.0743   -4.8478    1.9440 H         1 <0>         0.3886
     43 H17        -1.1790   -2.9622    2.7909 H         1 <0>         0.3840
     44 H18         3.3774    3.1975   -0.0138 H         1 <0>         0.4113
     45 H19         4.3085    1.7992   -0.0299 H         1 <0>         0.4193
     46 H20         3.6532  -10.9986   -0.3600 H         1 <0>         0.4102
@<TRIPOS>BOND
     1    1    6 ar
     2    1    2 ar
     3    1   32 1
     4    2    3 ar
     5    3    4 ar
     6    3   31 1
     7    4    9 1
     8    4    5 ar
     9    5    6 ar
    10    5    7 1
    11    7    8 1
    12    7   10 1
    13    8    9 2
    14    8   33 1
    15   10   11 1
    16   10   18 1
    17   10   12 1
    18   12   13 1
    19   12   14 1
    20   12   30 1
    21   14   15 1
    22   14   16 1
    23   14   29 1
    24   16   17 1
    25   16   18 1
    26   16   19 1
    27   19   20 1
    28   19   34 1
    29   19   35 1
    30   20   21 1
    31   21   22 1
    32   21   36 1
    33   21   37 1
    34   22   23 1
    35   22   38 1
    36   22   39 1
    37   23   24 1
    38   23   25 1
    39   23   28 1
    40   25   26 2
    41   25   27 1
    42   28   40 1
    43   28   41 1
    44   28   46 1
    45   29   42 1
    46   30   43 1
    47   31   44 1
    48   31   45 1
