@<TRIPOS>MOLECULE
ZINC01549287
   45    47     0     0     0
SMALL
USER_CHARGES

@<TRIPOS>ATOM
      1 C1          3.6572    2.1784   -0.0212 C.3       1 <0>         0.0483
      2 N1          2.4025    1.4221   -0.0133 N.pl3     1 <0>        -0.4373
      3 C2          2.4591    0.0800   -0.0210 C.2       1 <0>         0.1989
      4 C3          1.3062   -0.6758   -0.0140 C.2       1 <0>        -0.3010
      5 C4          0.0021   -0.0041    0.0020 C.2       1 <0>         0.4393
      6 O1         -1.0353   -0.6464    0.0089 O.2       1 <0>        -0.4552
      7 C5         -0.0180    1.4767    0.0102 C.2       1 <0>        -0.2180
      8 C6          1.2307    2.1055    0.0016 C.2       1 <0>         0.0810
      9 S1          0.8218    3.8344    0.0149 S.3       1 <0>         0.1120
     10 C7         -0.9553    3.6976    0.0311 C.2       1 <0>        -0.1519
     11 C8         -1.1621    2.3723    0.0201 C.2       1 <0>        -0.0840
     12 C9         -1.9785    4.8038    0.0468 C.3       1 <0>        -0.0307
     13 C10        -2.3106    5.1709    1.4946 C.3       1 <0>        -0.1197
     14 C11        -3.3494    6.2941    1.5105 C.3       1 <0>         0.0749
     15 O2         -3.6595    6.6369    2.8627 O.3       1 <0>        -0.5749
     16 C12         1.3830   -2.1451   -0.0232 C.2       1 <0>         0.5761
     17 O3          0.3628   -2.8076   -0.0174 O.2       1 <0>        -0.5042
     18 N2          2.5838   -2.7571   -0.0379 N.am      1 <0>        -0.7338
     19 C13         2.6603   -4.2200   -0.0470 C.3       1 <0>         0.1633
     20 C14         4.1053   -4.6474   -0.0630 C.ar      1 <0>        -0.1062
     21 C15         4.7550   -4.8420   -1.2676 C.ar      1 <0>        -0.0874
     22 C16         6.0819   -5.2284   -1.2829 C.ar      1 <0>        -0.1120
     23 C17         6.7568   -5.4315   -0.0923 C.ar      1 <0>        -0.0276
     24 C18         6.1044   -5.2421    1.1130 C.ar      1 <0>        -0.1119
     25 C19         4.7791   -4.8502    1.1270 C.ar      1 <0>        -0.0875
     26 Cl1         8.4216   -5.9233   -0.1108 Cl        1 <0>        -0.0652
     27 H1          3.9585    2.3715   -1.0507 H         1 <0>         0.0893
     28 H2          3.5138    3.1254    0.4991 H         1 <0>         0.0928
     29 H3          4.4327    1.6010    0.4822 H         1 <0>         0.1010
     30 H4          3.4199   -0.4132   -0.0325 H         1 <0>         0.1749
     31 H5         -2.1667    1.9758    0.0221 H         1 <0>         0.1477
     32 H6         -1.5770    5.6775   -0.4666 H         1 <0>         0.0845
     33 H7         -2.8836    4.4688   -0.4598 H         1 <0>         0.0949
     34 H8         -2.7121    4.2973    2.0080 H         1 <0>         0.0769
     35 H9         -1.4055    5.5059    2.0012 H         1 <0>         0.0737
     36 H10        -2.9478    7.1677    0.9971 H         1 <0>         0.0474
     37 H11        -4.2545    5.9591    1.0039 H         1 <0>         0.0488
     38 H12        -4.3133    7.3442    2.9491 H         1 <0>         0.3826
     39 H13         3.3973   -2.2288   -0.0425 H         1 <0>         0.3930
     40 H14         2.1745   -4.6148    0.8453 H         1 <0>         0.0815
     41 H15         2.1578   -4.6047   -0.9345 H         1 <0>         0.0815
     42 H16         4.2268   -4.6877   -2.1969 H         1 <0>         0.1356
     43 H17         6.5906   -5.3762   -2.2241 H         1 <0>         0.1365
     44 H18         6.6308   -5.4002    2.0427 H         1 <0>         0.1366
     45 H19         4.2698   -4.7019    2.0678 H         1 <0>         0.1356
@<TRIPOS>BOND
     1    1    2 1
     2    1   27 1
     3    1   28 1
     4    1   29 1
     5    2    8 1
     6    2    3 1
     7    3    4 2
     8    3   30 1
     9    4    5 1
    10    4   16 1
    11    5    6 2
    12    5    7 1
    13    7   11 1
    14    7    8 2
    15    8    9 1
    16    9   10 1
    17   10   11 2
    18   10   12 1
    19   11   31 1
    20   12   13 1
    21   12   32 1
    22   12   33 1
    23   13   14 1
    24   13   34 1
    25   13   35 1
    26   14   15 1
    27   14   36 1
    28   14   37 1
    29   15   38 1
    30   16   17 2
    31   16   18 am
    32   18   19 1
    33   18   39 1
    34   19   20 1
    35   19   40 1
    36   19   41 1
    37   20   25 ar
    38   20   21 ar
    39   21   22 ar
    40   21   42 1
    41   22   23 ar
    42   22   43 1
    43   23   24 ar
    44   23   26 1
    45   24   25 ar
    46   24   44 1
    47   25   45 1
@<TRIPOS>MOLECULE
ZINC03789195
   58    61     0     0     0
SMALL
USER_CHARGES

@<TRIPOS>ATOM
      1 C1          0.0517    1.5165   -0.0013 C.3       1 <0>        -0.1510
      2 C2          0.0597   -0.0113   -0.0039 C.3       1 <0>        -0.0205
      3 C3         -1.3839   -0.5183    0.0681 C.3       1 <0>        -0.1057
      4 C4         -2.0073   -0.0926    1.3956 C.3       1 <0>        -0.1522
      5 C5         -1.2467   -0.7149    2.5584 C.3       1 <0>         0.1241
      6 H1         -1.6690   -0.3382    3.4995 H         1 <0>         0.0545
      7 C6          0.2443   -0.3839    2.5303 C.3       1 <0>        -0.0289
      8 C7          0.8591   -0.5918    1.1619 C.3       1 <0>        -0.0651
      9 H2          0.8616   -1.6981    1.0154 H         1 <0>         0.0708
     10 C8          2.3272   -0.1820    1.1054 C.3       1 <0>        -0.1144
     11 C9          2.9588   -0.6405   -0.2274 C.3       1 <0>        -0.1116
     12 C10         2.1628    0.0090   -1.3378 C.3       1 <0>        -0.0892
     13 H3          2.1939    1.0957   -1.1977 H         1 <0>         0.0728
     14 C11         0.7113   -0.5117   -1.2851 C.3       1 <0>        -0.0404
     15 C12         0.6599   -2.0338   -1.3497 C.3       1 <0>        -0.1018
     16 C13         1.4022   -2.6209   -2.5424 C.3       1 <0>        -0.1367
     17 C14         1.0650   -1.8831   -3.8405 C.3       1 <0>         0.1458
     18 C15         1.2842   -0.3737   -3.5928 C.3       1 <0>        -0.0767
     19 H4          1.2955    0.2236   -4.5095 H         1 <0>         0.0879
     20 C16         2.6032   -0.2675   -2.7728 C.3       1 <0>        -0.1192
     21 C17         0.1513    0.0486   -2.6005 C.3       1 <0>        -0.1034
     22 C18         1.9787   -2.3701   -4.9727 C.3       1 <0>         0.0475
     23 O1          1.7902   -3.7733   -5.1666 O.3       1 <0>        -0.5736
     24 O2         -0.2979   -2.1346   -4.2044 O.3       1 <0>        -0.5537
     25 C19         0.4780    1.0227    3.0785 C.3       1 <0>        -0.1459
     26 C20         0.9253   -1.3705    3.5128 C.3       1 <0>         0.0830
     27 O3          0.3833   -1.1888    4.8225 O.3       1 <0>        -0.5704
     28 O4         -1.4166   -2.1369    2.5351 O.3       1 <0>        -0.5646
     29 H5          1.0764    1.8851    0.0448 H         1 <0>         0.0581
     30 H6         -0.4242    1.8789   -0.9125 H         1 <0>         0.0571
     31 H7         -0.5029    1.8754    0.8657 H         1 <0>         0.0608
     32 H8         -1.9566   -0.0961   -0.7578 H         1 <0>         0.0622
     33 H9         -1.3910   -1.6059   -0.0036 H         1 <0>         0.0714
     34 H10        -2.0319    0.9887    1.4885 H         1 <0>         0.0736
     35 H11        -3.0458   -0.4531    1.4215 H         1 <0>         0.0589
     36 H12         2.4249    0.8974    1.1806 H         1 <0>         0.0647
     37 H13         2.8795   -0.6491    1.9186 H         1 <0>         0.0605
     38 H14         3.9969   -0.3105   -0.2686 H         1 <0>         0.0612
     39 H15         2.9097   -1.7236   -0.3037 H         1 <0>         0.0658
     40 H16         1.0855   -2.4583   -0.4407 H         1 <0>         0.0656
     41 H17        -0.3894   -2.3441   -1.4097 H         1 <0>         0.0638
     42 H18         2.4733   -2.6120   -2.3584 H         1 <0>         0.0711
     43 H19         1.0986   -3.6727   -2.6533 H         1 <0>         0.0628
     44 H20         3.1914    0.5850   -3.1375 H         1 <0>         0.0600
     45 H21         3.2044   -1.1630   -2.8329 H         1 <0>         0.0736
     46 H22        -0.8004   -0.4149   -2.8519 H         1 <0>         0.0837
     47 H23         0.0558    1.1339   -2.5766 H         1 <0>         0.0667
     48 H24         1.7318   -1.8398   -5.8924 H         1 <0>         0.0526
     49 H25         3.0185   -2.1762   -4.7094 H         1 <0>         0.0524
     50 H26         2.3375   -4.1503   -5.8691 H         1 <0>         0.3828
     51 H27        -0.4999   -3.0688   -4.3511 H         1 <0>         0.3797
     52 H28         0.2229    1.0468    4.1379 H         1 <0>         0.0661
     53 H29         1.5262    1.2929    2.9508 H         1 <0>         0.0601
     54 H30        -0.1485    1.7321    2.5377 H         1 <0>         0.0589
     55 H31         0.7448   -2.3938    3.1836 H         1 <0>         0.0553
     56 H32         1.9983   -1.1796    3.5340 H         1 <0>         0.0390
     57 H33         0.7642   -1.7749    5.4907 H         1 <0>         0.3766
     58 H34        -2.3368   -2.4243    2.6102 H         1 <0>         0.3734
@<TRIPOS>BOND
     1    1    2 1
     2    1   29 1
     3    1   30 1
     4    1   31 1
     5    2    8 1
     6    2   14 1
     7    2    3 1
     8    3    4 1
     9    3   32 1
    10    3   33 1
    11    4    5 1
    12    4   34 1
    13    4   35 1
    14    5    6 1
    15    5    7 1
    16    5   28 1
    17    7    8 1
    18    7   25 1
    19    7   26 1
    20    8    9 1
    21    8   10 1
    22   10   11 1
    23   10   36 1
    24   10   37 1
    25   11   12 1
    26   11   38 1
    27   11   39 1
    28   12   13 1
    29   12   20 1
    30   12   14 1
    31   14   21 1
    32   14   15 1
    33   15   16 1
    34   15   40 1
    35   15   41 1
    36   16   17 1
    37   16   42 1
    38   16   43 1
    39   17   18 1
    40   17   22 1
    41   17   24 1
    42   18   19 1
    43   18   20 1
    44   18   21 1
    45   20   44 1
    46   20   45 1
    47   21   46 1
    48   21   47 1
    49   22   23 1
    50   22   48 1
    51   22   49 1
    52   23   50 1
    53   24   51 1
    54   25   52 1
    55   25   53 1
    56   25   54 1
    57   26   27 1
    58   26   55 1
    59   26   56 1
    60   27   57 1
    61   28   58 1
@<TRIPOS>MOLECULE
ZINC28526445
   51    54     0     0     0
SMALL
USER_CHARGES
N-[(4-chlorophenyl)methyl]-7-methyl-2-(morpholinomethyl)-4-oxo-thieno[3,2-e]pyridine-5-carboxamide
@<TRIPOS>ATOM
      1 C1          3.6572    2.1784   -0.0212 C.3       1 <0>         0.0432
      2 N1          2.4025    1.4221   -0.0133 N.pl3     1 <0>        -0.4367
      3 C2          2.4591    0.0800   -0.0210 C.2       1 <0>         0.1981
      4 C3          1.3062   -0.6758   -0.0140 C.2       1 <0>        -0.2991
      5 C4          0.0021   -0.0041    0.0020 C.2       1 <0>         0.4389
      6 O1         -1.0353   -0.6464    0.0089 O.2       1 <0>        -0.4566
      7 C5         -0.0180    1.4767    0.0102 C.2       1 <0>        -0.2209
      8 C6          1.2307    2.1055    0.0016 C.2       1 <0>         0.0805
      9 S1          0.8218    3.8344    0.0149 S.3       1 <0>         0.1341
     10 C7         -0.9553    3.6976    0.0311 C.2       1 <0>        -0.1490
     11 C8         -1.1621    2.3723    0.0201 C.2       1 <0>        -0.0808
     12 C9         -1.9785    4.8038    0.0468 C.3       1 <0>         0.1368
     13 N2         -2.2973    5.1563    1.4369 N.3       1 <0>        -0.5336
     14 C10        -2.9806    4.0471    2.1181 C.3       1 <0>         0.0108
     15 C11        -3.2400    4.4335    3.5767 C.3       1 <0>         0.0626
     16 O2         -4.0008    5.6439    3.6158 O.3       1 <0>        -0.3839
     17 C12        -3.3645    6.7453    2.9620 C.3       1 <0>         0.0618
     18 C13        -3.1064    6.3823    1.4972 C.3       1 <0>         0.0165
     19 C14         1.3830   -2.1451   -0.0232 C.2       1 <0>         0.5768
     20 O3          0.3628   -2.8076   -0.0174 O.2       1 <0>        -0.5088
     21 N3          2.5838   -2.7571   -0.0379 N.am      1 <0>        -0.7423
     22 C15         2.6603   -4.2200   -0.0470 C.3       1 <0>         0.1647
     23 C16         4.1053   -4.6474   -0.0630 C.ar      1 <0>        -0.1035
     24 C17         4.7550   -4.8420   -1.2676 C.ar      1 <0>        -0.0877
     25 C18         6.0819   -5.2284   -1.2829 C.ar      1 <0>        -0.1120
     26 C19         6.7568   -5.4315   -0.0923 C.ar      1 <0>        -0.0280
     27 C20         6.1044   -5.2421    1.1130 C.ar      1 <0>        -0.1119
     28 C21         4.7791   -4.8502    1.1270 C.ar      1 <0>        -0.0877
     29 Cl1         8.4216   -5.9233   -0.1108 Cl        1 <0>        -0.0655
     30 H1          4.5065    1.4795   -0.0331 H         1 <0>         0.1056
     31 H2          3.7121    2.8069    0.8799 H         1 <0>         0.0912
     32 H3          3.6950    2.8166   -0.9163 H         1 <0>         0.0909
     33 H4          3.4199   -0.4132   -0.0325 H         1 <0>         0.1747
     34 H5         -2.1667    1.9758    0.0221 H         1 <0>         0.1440
     35 H6         -1.5733    5.6855   -0.4713 H         1 <0>         0.0968
     36 H7         -2.8919    4.4657   -0.4645 H         1 <0>         0.0675
     37 H8         -3.9372    3.8418    1.6154 H         1 <0>         0.0476
     38 H9         -2.3471    3.1486    2.0819 H         1 <0>         0.0911
     39 H10        -3.8011    3.6291    4.0748 H         1 <0>         0.1013
     40 H11        -2.2801    4.5846    4.0923 H         1 <0>         0.0607
     41 H12        -4.0175    7.6290    3.0132 H         1 <0>         0.1015
     42 H13        -2.4093    6.9658    3.4610 H         1 <0>         0.0612
     43 H14        -2.5655    7.2032    1.0038 H         1 <0>         0.0901
     44 H15        -4.0651    6.2146    0.9845 H         1 <0>         0.0479
     45 H16         3.5064   -2.1581   -0.0431 H         1 <0>         0.4092
     46 H17         2.1700   -4.6184    0.8535 H         1 <0>         0.0798
     47 H18         2.1532   -4.6081   -0.9426 H         1 <0>         0.0797
     48 H19         4.2268   -4.6877   -2.1969 H         1 <0>         0.1351
     49 H20         6.5906   -5.3762   -2.2241 H         1 <0>         0.1362
     50 H21         6.6308   -5.4002    2.0427 H         1 <0>         0.1362
     51 H22         4.2698   -4.7019    2.0678 H         1 <0>         0.1352
@<TRIPOS>BOND
     1    1    2 1
     2    1   30 1
     3    1   31 1
     4    1   32 1
     5    2    8 1
     6    2    3 1
     7    3    4 2
     8    3   33 1
     9    4    5 1
    10    4   19 1
    11    5    6 2
    12    5    7 1
    13    7   11 1
    14    7    8 2
    15    8    9 1
    16    9   10 1
    17   10   11 2
    18   10   12 1
    19   11   34 1
    20   12   13 1
    21   12   35 1
    22   12   36 1
    23   13   18 1
    24   13   14 1
    25   14   15 1
    26   14   37 1
    27   14   38 1
    28   15   16 1
    29   15   39 1
    30   15   40 1
    31   16   17 1
    32   17   18 1
    33   17   41 1
    34   17   42 1
    35   18   43 1
    36   18   44 1
    37   19   20 2
    38   19   21 am
    39   21   22 1
    40   21   45 1
    41   22   23 1
    42   22   46 1
    43   22   47 1
    44   23   28 ar
    45   23   24 ar
    46   24   25 ar
    47   24   48 1
    48   25   26 ar
    49   25   49 1
    50   26   27 ar
    51   26   29 1
    52   27   28 ar
    53   27   50 1
    54   28   51 1
@<TRIPOS>MOLECULE
ZINC24629762
    8     7     0     0     0
SMALL
USER_CHARGES
phosphonoformic acid
@<TRIPOS>ATOM
      1 C1         -0.8671    2.0608    1.5026 C.2       1 <0>        -0.0780
      2 O1         -0.2818    2.7591    2.2962 O.co2     1 <0>        -0.6463
      3 O2         -2.1456    1.7179    1.7254 O.co2     1 <0>        -0.8005
      4 P1         -0.0180    1.4758    0.0102 P.3       1 <0>         2.2480
      5 O3          0.0021   -0.0041    0.0020 O.2       1 <0>        -1.0980
      6 O4          1.4924    2.0330   -0.0013 O.3       1 <0>        -1.1227
      7 O5         -0.7967    2.0091   -1.2942 O.3       1 <0>        -0.9227
      8 H1         -0.4268    1.7539   -2.2982 H         1 <0>         0.4202
@<TRIPOS>BOND
     1    1    2 2
     2    1    3 1
     3    1    4 1
     4    4    5 2
     5    4    6 1
     6    4    7 1
     7    7    8 1
