@<TRIPOS>MOLECULE
ZINC00970363
   32    34     0     0     0
SMALL
USER_CHARGES

@<TRIPOS>ATOM
      1 C1         -0.0158    1.3119    0.0093 C.ar      1 <0>         0.3635
      2 N1          1.0888    2.0360    0.0026 N.ar      1 <0>        -0.5926
      3 C2          2.2875    1.4625   -0.0119 C.ar      1 <0>         0.5083
      4 C3          2.3582    0.0588   -0.0202 C.ar      1 <0>        -0.1040
      5 C4          1.1547   -0.6659   -0.0126 C.ar      1 <0>         0.3092
      6 N2          0.0021   -0.0041    0.0020 N.ar      1 <0>        -0.5618
      7 N3          1.5110   -1.9908   -0.0227 N.pl3     1 <0>        -0.4570
      8 C5          2.8729   -2.0476   -0.0358 C.2       1 <0>         0.2848
      9 N4          3.3680   -0.8441   -0.0343 N.2       1 <0>        -0.4678
     10 C6          0.5956   -3.1347   -0.0195 C.3       1 <0>         0.3187
     11 H1         -0.2832   -2.9148    0.5866 H         1 <0>         0.1247
     12 C7          0.1775   -3.4928   -1.4629 C.3       1 <0>         0.0731
     13 H2         -0.7979   -3.0653   -1.6951 H         1 <0>         0.1010
     14 C8          0.1056   -5.0362   -1.4608 C.3       1 <0>         0.0472
     15 H3          0.8193   -5.4528   -2.1716 H         1 <0>         0.0914
     16 C9          0.4888   -5.4280   -0.0165 C.3       1 <0>         0.0513
     17 H4         -0.4066   -5.5617    0.5906 H         1 <0>         0.0991
     18 O1          1.2661   -4.3138    0.4763 O.3       1 <0>        -0.3494
     19 C10         1.3272   -6.7078   -0.0164 C.3       1 <0>         0.0830
     20 O2          1.5723   -7.1166    1.3308 O.3       1 <0>        -0.5637
     21 O3         -1.2191   -5.4762   -1.7672 O.3       1 <0>        -0.5483
     22 O4          1.1582   -3.0358   -2.3963 O.3       1 <0>        -0.5400
     23 N5          3.4393    2.2295   -0.0193 N.pl3     1 <0>        -0.8177
     24 H5         -0.9693    1.8187    0.0257 H         1 <0>         0.2051
     25 H6          3.4551   -2.9572   -0.0459 H         1 <0>         0.2192
     26 H7          0.7880   -7.4954   -0.5427 H         1 <0>         0.0663
     27 H8          2.2767   -6.5201   -0.5176 H         1 <0>         0.0617
     28 H9          2.0996   -7.9235    1.4072 H         1 <0>         0.3869
     29 H10        -1.3212   -6.4377   -1.7794 H         1 <0>         0.3893
     30 H11         0.9460   -3.2344   -3.3186 H         1 <0>         0.3892
     31 H12         3.3774    3.1975   -0.0138 H         1 <0>         0.4105
     32 H13         4.3085    1.7992   -0.0299 H         1 <0>         0.4190
@<TRIPOS>BOND
     1    1    6 ar
     2    1    2 ar
     3    1   24 1
     4    2    3 ar
     5    3    4 ar
     6    3   23 1
     7    4    9 1
     8    4    5 ar
     9    5    6 ar
    10    5    7 1
    11    7    8 1
    12    7   10 1
    13    8    9 2
    14    8   25 1
    15   10   11 1
    16   10   18 1
    17   10   12 1
    18   12   13 1
    19   12   14 1
    20   12   22 1
    21   14   15 1
    22   14   16 1
    23   14   21 1
    24   16   17 1
    25   16   18 1
    26   16   19 1
    27   19   20 1
    28   19   26 1
    29   19   27 1
    30   20   28 1
    31   21   29 1
    32   22   30 1
    33   23   31 1
    34   23   32 1
@<TRIPOS>MOLECULE
ZINC01489478
   44    46     0     0     0
SMALL
USER_CHARGES

@<TRIPOS>ATOM
      1 C1         -0.0167    1.3794    0.0096 C.ar      1 <0>        -0.0817
      2 C2          1.1707    2.0873    0.0021 C.ar      1 <0>        -0.1335
      3 C3          2.3795    1.4131   -0.0131 C.ar      1 <0>         0.0887
      4 C4          2.4004    0.0287   -0.0208 C.ar      1 <0>        -0.1440
      5 C5          1.2126   -0.6807   -0.0132 C.ar      1 <0>         0.1171
      6 C6          0.0021   -0.0041    0.0020 C.ar      1 <0>         0.0839
      7 F1         -1.1585   -0.6956    0.0099 F         1 <0>        -0.1067
      8 F2          1.2319   -2.0315   -0.0211 F         1 <0>        -0.1030
      9 F3          3.5392    2.1060   -0.0209 F         1 <0>        -0.1333
     10 C7          1.1490    3.5942    0.0099 C.3       1 <0>        -0.0986
     11 C8          1.4054    4.1005    1.4307 C.3       1 <0>         0.0506
     12 H1          0.6827    3.6519    2.1123 H         1 <0>         0.1580
     13 C9          1.2602    5.6233    1.4634 C.3       1 <0>        -0.1765
     14 C10         1.3912    6.1100    2.8836 C.2       1 <0>         0.5209
     15 O1          1.5819    5.3170    3.7813 O.2       1 <0>        -0.5393
     16 N1          1.2964    7.4265    3.1563 N.am      1 <0>        -0.6081
     17 C11         1.4271    7.9249    4.5338 C.3       1 <0>         0.0952
     18 C12         2.6637    8.8263    4.6301 C.3       1 <0>         0.0730
     19 N2          2.6784    9.7446    3.4923 N.pl3     1 <0>        -0.4438
     20 C13         1.9779    9.5775    2.3419 C.2       1 <0>         0.1760
     21 N3          2.2506   10.5825    1.5682 N.2       1 <0>        -0.2525
     22 N4          3.0752   11.3728    2.1663 N.2       1 <0>        -0.2118
     23 C14         3.3627   10.8973    3.3507 C.2       1 <0>         0.0959
     24 C15         4.2850   11.5213    4.3661 C.3       1 <0>         0.5693
     25 F4          4.5356   12.8516    4.0130 F         1 <0>        -0.1374
     26 F5          3.6850   11.4792    5.6292 F         1 <0>        -0.1626
     27 F6          5.4907   10.8124    4.3986 F         1 <0>        -0.1586
     28 C16         1.0648    8.4092    2.0807 C.3       1 <0>         0.1933
     29 N5          2.7650    3.7293    1.8450 N.4       1 <0>        -0.6399
     30 H2         -0.9593    1.9064    0.0260 H         1 <0>         0.1694
     31 H3          3.3436   -0.4973   -0.0330 H         1 <0>         0.1718
     32 H4          1.9247    3.9721   -0.6560 H         1 <0>         0.1136
     33 H5          0.1750    3.9453   -0.3307 H         1 <0>         0.1379
     34 H6          2.0400    6.0758    0.8509 H         1 <0>         0.1296
     35 H7          0.2823    5.9035    1.0720 H         1 <0>         0.1549
     36 H8          0.5381    8.4969    4.7998 H         1 <0>         0.1034
     37 H9          1.5366    7.0825    5.2169 H         1 <0>         0.1347
     38 H10         2.6273    9.3968    5.5581 H         1 <0>         0.1263
     39 H11         3.5641    8.2122    4.6141 H         1 <0>         0.1076
     40 H12         1.2983    7.9641    1.1135 H         1 <0>         0.1300
     41 H13         0.0267    8.7414    2.0975 H         1 <0>         0.1270
     42 H14         2.8608    2.7250    1.8234 H         1 <0>         0.4308
     43 H15         3.4341    4.1445    1.2141 H         1 <0>         0.4312
     44 H16         2.9341    4.0632    2.7820 H         1 <0>         0.4409
@<TRIPOS>BOND
     1    1    6 ar
     2    1    2 ar
     3    1   30 1
     4    2    3 ar
     5    2   10 1
     6    3    4 ar
     7    3    9 1
     8    4    5 ar
     9    4   31 1
    10    5    6 ar
    11    5    8 1
    12    6    7 1
    13   10   11 1
    14   10   32 1
    15   10   33 1
    16   11   12 1
    17   11   13 1
    18   11   29 1
    19   13   14 1
    20   13   34 1
    21   13   35 1
    22   14   15 2
    23   14   16 am
    24   16   28 1
    25   16   17 1
    26   17   18 1
    27   17   36 1
    28   17   37 1
    29   18   19 1
    30   18   38 1
    31   18   39 1
    32   19   23 1
    33   19   20 1
    34   20   21 2
    35   20   28 1
    36   21   22 1
    37   22   23 2
    38   23   24 1
    39   24   25 1
    40   24   26 1
    41   24   27 1
    42   28   40 1
    43   28   41 1
    44   29   42 1
    45   29   43 1
    46   29   44 1
@<TRIPOS>MOLECULE
ZINC13523046
   48    51     0     0     0
SMALL
USER_CHARGES
(2S)-1-[2-[[(5R,7S)-3-hydroxy-1-adamantyl]amino]acetyl]pyrrolidine-2-carbonitrile
@<TRIPOS>ATOM
      1 C1         -6.0332    0.3087   -2.7484 C.3       1 <0>        -0.1305
      2 C2         -6.2936    1.5206   -3.6816 C.3       1 <0>        -0.1257
      3 C3         -4.8950    2.1578   -3.8225 C.3       1 <0>         0.2400
      4 H1         -4.4271    1.8197   -4.7471 H         1 <0>         0.1319
      5 N1         -4.0970    1.7183   -2.6686 N.am      1 <0>        -0.5948
      6 C4         -4.9403    0.8713   -1.8056 C.3       1 <0>         0.0828
      7 C5         -2.8094    2.0412   -2.4353 C.2       1 <0>         0.5161
      8 O1         -2.2105    2.7490   -3.2171 O.2       1 <0>        -0.5172
      9 C6         -2.1139    1.5227   -1.2030 C.3       1 <0>        -0.0285
     10 C7         -0.0187    1.5258    0.0104 C.3       1 <0>         0.0687
     11 C8          0.0021   -0.0041    0.0020 C.3       1 <0>        -0.1307
     12 C9          0.7421   -0.5109    1.2415 C.3       1 <0>        -0.0754
     13 H2          0.7568   -1.6008    1.2356 H         1 <0>         0.1026
     14 C10         2.1775    0.0187    1.2307 C.3       1 <0>        -0.1234
     15 C11         2.1567    1.5485    1.2391 C.3       1 <0>        -0.0757
     16 H3          3.1793    1.9258    1.2314 H         1 <0>         0.0994
     17 C12         1.4167    2.0553   -0.0004 C.3       1 <0>        -0.1297
     18 C13         1.4406    2.0419    2.4979 C.3       1 <0>        -0.1506
     19 C14         0.0052    1.5124    2.5088 C.3       1 <0>         0.1495
     20 C15         0.0259   -0.0175    2.5003 C.3       1 <0>        -0.1107
     21 C16        -0.7348    2.0192    1.2692 C.3       1 <0>        -0.1624
     22 O2         -0.6637    1.9732    3.6845 O.3       1 <0>        -0.5460
     23 C17        -5.0083    3.6254   -3.8231 C.1       1 <0>         0.1798
     24 N2         -5.0958    4.7580   -3.8236 N.1       1 <0>        -0.3854
     25 H4         -5.6601   -0.5459   -3.3128 H         1 <0>         0.0923
     26 H5         -6.9319    0.0446   -2.1910 H         1 <0>         0.1047
     27 H6         -6.6679    1.1883   -4.6499 H         1 <0>         0.1110
     28 H7         -6.9903    2.2202   -3.2198 H         1 <0>         0.0927
     29 H8         -4.3516    0.0588   -1.3798 H         1 <0>         0.0922
     30 H9         -5.3914    1.4680   -1.0128 H         1 <0>         0.0894
     31 H10        -2.1137    0.4328   -1.2174 H         1 <0>         0.1653
     32 H11        -2.6387    1.8742   -0.3146 H         1 <0>         0.1620
     33 H12        -1.0205   -0.3814    0.0098 H         1 <0>         0.0883
     34 H13         0.5123   -0.3556   -0.8948 H         1 <0>         0.0942
     35 H14         2.7046   -0.3424    2.1137 H         1 <0>         0.0844
     36 H15         2.6876   -0.3328    0.3339 H         1 <0>         0.0772
     37 H16         1.9269    1.7038   -0.8972 H         1 <0>         0.0942
     38 H17         1.4019    3.1452    0.0056 H         1 <0>         0.0904
     39 H18         1.9677    1.6809    3.3810 H         1 <0>         0.0902
     40 H19         1.4258    3.1318    2.5039 H         1 <0>         0.0745
     41 H20        -0.9967   -0.3948    2.5081 H         1 <0>         0.0787
     42 H21         0.5531   -0.3786    3.3834 H         1 <0>         0.0890
     43 H22        -0.7496    3.1091    1.2752 H         1 <0>         0.0907
     44 H23        -1.7574    1.6419    1.2770 H         1 <0>         0.0943
     45 H24        -0.7143    2.9362    3.7562 H         1 <0>         0.3838
     46 N3         -0.7249    2.0187   -1.1872 N.4       1 <0>        -0.5007
     47 H25        -0.7319    3.0454   -1.1777 H         1 <0>         0.4378
     48 H26        -0.2374    1.6876   -2.0280 H         1 <0>         0.4394
@<TRIPOS>BOND
     1    1    6 1
     2    1    2 1
     3    1   25 1
     4    1   26 1
     5    2    3 1
     6    2   27 1
     7    2   28 1
     8    3    4 1
     9    3    5 1
    10    3   23 1
    11    5    6 1
    12    5    7 am
    13    6   29 1
    14    6   30 1
    15    7    8 2
    16    7    9 1
    17    9   31 1
    18    9   32 1
    19    9   46 1
    20   10   17 1
    21   10   21 1
    22   10   11 1
    23   10   46 1
    24   11   12 1
    25   11   33 1
    26   11   34 1
    27   12   13 1
    28   12   20 1
    29   12   14 1
    30   14   15 1
    31   14   35 1
    32   14   36 1
    33   15   16 1
    34   15   17 1
    35   15   18 1
    36   17   37 1
    37   17   38 1
    38   18   19 1
    39   18   39 1
    40   18   40 1
    41   19   20 1
    42   19   21 1
    43   19   22 1
    44   20   41 1
    45   20   42 1
    46   21   43 1
    47   21   44 1
    48   22   45 1
    49   23   24 3
    50   46   47 1
    51   46   48 1
@<TRIPOS>MOLECULE
ZINC33992379
   30    30     0     0     0
SMALL
USER_CHARGES

@<TRIPOS>ATOM
      1 C1         -0.0189    1.5390    0.0105 C.3       1 <0>        -0.1322
      2 C2          1.4884    1.9071   -0.0019 C.3       1 <0>        -0.1367
      3 C3          2.0919    0.7759    0.8676 C.3       1 <0>         0.1028
      4 N1          1.3128   -0.4257    0.5176 N.am      1 <0>        -0.5956
      5 C4          0.0021   -0.0041    0.0020 C.3       1 <0>         0.0802
      6 C5          1.7328   -1.6997    0.6479 C.2       1 <0>         0.5214
      7 O1          2.8396   -1.9314    1.0862 O.2       1 <0>        -0.5343
      8 C6          0.8272   -2.8362    0.2489 C.3       1 <0>         0.0085
      9 H1         -0.1941   -2.6123    0.5571 H         1 <0>         0.1576
     10 C7          0.8737   -3.0164   -1.2697 C.3       1 <0>        -0.1140
     11 C8         -0.1378   -4.0855   -1.6877 C.3       1 <0>        -0.1993
     12 C9         -0.0920   -4.2631   -3.1835 C.2       1 <0>         0.4884
     13 O2          0.6784   -3.5963   -3.8532 O.co2     1 <0>        -0.6865
     14 O3         -0.8252   -5.0734   -3.7239 O.co2     1 <0>        -0.6833
     15 N2          1.2761   -4.0727    0.9028 N.4       1 <0>        -0.6188
     16 H2         -0.4998    1.9132    0.9143 H         1 <0>         0.0821
     17 H3         -0.5169    1.9228   -0.8798 H         1 <0>         0.0930
     18 H4          1.8895    1.8774   -1.0150 H         1 <0>         0.0837
     19 H5          1.6561    2.8825    0.4546 H         1 <0>         0.0932
     20 H6          3.1442    0.6302    0.6235 H         1 <0>         0.0872
     21 H7          1.9758    1.0083    1.9262 H         1 <0>         0.0789
     22 H8         -0.7901   -0.3891    0.6441 H         1 <0>         0.0789
     23 H9         -0.1315   -0.3710   -1.0156 H         1 <0>         0.0875
     24 H10         0.6263   -2.0725   -1.7554 H         1 <0>         0.1137
     25 H11         1.8750   -3.3271   -1.5682 H         1 <0>         0.0964
     26 H12         0.1096   -5.0295   -1.2020 H         1 <0>         0.0564
     27 H13        -1.1391   -3.7748   -1.3892 H         1 <0>         0.0755
     28 H14         1.2453   -3.9538    1.9043 H         1 <0>         0.4322
     29 H15         0.6697   -4.8336    0.6356 H         1 <0>         0.4423
     30 H16         2.2214   -4.2799    0.6175 H         1 <0>         0.4407
@<TRIPOS>BOND
     1    1    5 1
     2    1    2 1
     3    1   16 1
     4    1   17 1
     5    2    3 1
     6    2   18 1
     7    2   19 1
     8    3    4 1
     9    3   20 1
    10    3   21 1
    11    4    5 1
    12    4    6 am
    13    5   22 1
    14    5   23 1
    15    6    7 2
    16    6    8 1
    17    8    9 1
    18    8   10 1
    19    8   15 1
    20   10   11 1
    21   10   24 1
    22   10   25 1
    23   11   12 1
    24   11   26 1
    25   11   27 1
    26   12   13 2
    27   12   14 1
    28   15   28 1
    29   15   29 1
    30   15   30 1
@<TRIPOS>MOLECULE
ZINC33992380
   30    30     0     0     0
SMALL
USER_CHARGES

@<TRIPOS>ATOM
      1 C1         -0.0189    1.5390    0.0105 C.3       1 <0>        -0.1330
      2 C2          1.4884    1.9071   -0.0019 C.3       1 <0>        -0.1348
      3 C3          2.0919    0.7759    0.8676 C.3       1 <0>         0.1020
      4 N1          1.3128   -0.4257    0.5176 N.am      1 <0>        -0.5955
      5 C4          0.0021   -0.0041    0.0020 C.3       1 <0>         0.0806
      6 C5          1.7328   -1.6997    0.6479 C.2       1 <0>         0.5214
      7 O1          2.8396   -1.9314    1.0862 O.2       1 <0>        -0.5344
      8 C6          0.8272   -2.8362    0.2489 C.3       1 <0>         0.0085
      9 H1          0.2989   -2.5751   -0.6681 H         1 <0>         0.1576
     10 C7         -0.1865   -3.0965    1.3650 C.3       1 <0>        -0.1141
     11 C8         -1.1831   -4.1645    0.9099 C.3       1 <0>        -0.1992
     12 C9         -2.1815   -4.4209    2.0092 C.2       1 <0>         0.4884
     13 O2         -2.1032   -3.8064    3.0593 O.co2     1 <0>        -0.6864
     14 O3         -3.0676   -5.2428    1.8485 O.co2     1 <0>        -0.6835
     15 N2          1.6296   -4.0460    0.0242 N.4       1 <0>        -0.6188
     16 H2         -0.4998    1.9132    0.9143 H         1 <0>         0.0861
     17 H3         -0.5169    1.9228   -0.8798 H         1 <0>         0.0911
     18 H4          1.8895    1.8774   -1.0150 H         1 <0>         0.0794
     19 H5          1.6561    2.8825    0.4546 H         1 <0>         0.0936
     20 H6          3.1442    0.6302    0.6235 H         1 <0>         0.0861
     21 H7          1.9758    1.0083    1.9262 H         1 <0>         0.0814
     22 H8         -0.7901   -0.3891    0.6441 H         1 <0>         0.0879
     23 H9         -0.1315   -0.3710   -1.0156 H         1 <0>         0.0783
     24 H10         0.3359   -3.4434    2.2566 H         1 <0>         0.0965
     25 H11        -0.7209   -2.1743    1.5928 H         1 <0>         0.1136
     26 H12        -1.7054   -3.8176    0.0183 H         1 <0>         0.0755
     27 H13        -0.6486   -5.0867    0.6821 H         1 <0>         0.0564
     28 H14         1.0232   -4.8069   -0.2429 H         1 <0>         0.4423
     29 H15         2.2980   -3.8743   -0.7118 H         1 <0>         0.4321
     30 H16         2.1186   -4.2877    0.8730 H         1 <0>         0.4407
@<TRIPOS>BOND
     1    1    5 1
     2    1    2 1
     3    1   16 1
     4    1   17 1
     5    2    3 1
     6    2   18 1
     7    2   19 1
     8    3    4 1
     9    3   20 1
    10    3   21 1
    11    4    5 1
    12    4    6 am
    13    5   22 1
    14    5   23 1
    15    6    7 2
    16    6    8 1
    17    8    9 1
    18    8   10 1
    19    8   15 1
    20   10   11 1
    21   10   24 1
    22   10   25 1
    23   11   12 1
    24   11   26 1
    25   11   27 1
    26   12   13 2
    27   12   14 1
    28   15   28 1
    29   15   29 1
    30   15   30 1
@<TRIPOS>MOLECULE
ZINC19435046
   32    33     0     0     0
SMALL
USER_CHARGES
(2R)-2-amino-2-phenyl-1-pyrrolidin-1-yl-ethanone
@<TRIPOS>ATOM
      1 C1          1.2084   -0.6789   -0.0136 C.ar      1 <0>        -0.0845
      2 C2          0.0021   -0.0041    0.0020 C.ar      1 <0>        -0.1049
      3 C3         -0.0167    1.3781    0.0096 C.ar      1 <0>        -0.0893
      4 C4          1.1709    2.0855    0.0021 C.ar      1 <0>        -0.1476
      5 C5          2.3773    1.4107   -0.0136 C.ar      1 <0>        -0.1102
      6 C6          2.3961    0.0285   -0.0212 C.ar      1 <0>        -0.1026
      7 C7          1.1505    3.5924    0.0099 C.3       1 <0>         0.0778
      8 H1          0.1867    3.9565    0.3953 H         1 <0>         0.1605
      9 C8          1.3773    4.1051   -1.3889 C.2       1 <0>         0.5193
     10 O1          2.4764    4.4959   -1.7208 O.2       1 <0>        -0.5276
     11 N1          0.3586    4.1294   -2.2711 N.am      1 <0>        -0.5928
     12 C9         -1.0163    3.6820   -2.0049 C.3       1 <0>         0.0747
     13 C10        -1.8210    3.8739   -3.3076 C.3       1 <0>        -0.1366
     14 C11        -0.7170    3.8797   -4.3978 C.3       1 <0>        -0.1323
     15 C12         0.4402    4.6031   -3.6648 C.3       1 <0>         0.1052
     16 N2          2.2130    4.0919    0.8928 N.4       1 <0>        -0.6709
     17 H2          1.2231   -1.7588   -0.0196 H         1 <0>         0.1389
     18 H3         -0.9258   -0.5567    0.0079 H         1 <0>         0.1402
     19 H4         -0.9592    1.9054    0.0170 H         1 <0>         0.1359
     20 H5          3.3052    1.9634   -0.0192 H         1 <0>         0.1242
     21 H6          3.3386   -0.4987   -0.0327 H         1 <0>         0.1388
     22 H7         -1.0064    2.6224   -1.7095 H         1 <0>         0.0818
     23 H8         -1.4473    4.2851   -1.1922 H         1 <0>         0.0778
     24 H9         -2.5300    3.0413   -3.4266 H         1 <0>         0.0927
     25 H10        -2.3748    4.8231   -3.2600 H         1 <0>         0.0853
     26 H11        -0.4735    2.8444   -4.6785 H         1 <0>         0.0835
     27 H12        -1.0783    4.4242   -5.2827 H         1 <0>         0.0986
     28 H13         0.3174    5.6960   -3.6884 H         1 <0>         0.0842
     29 H14         1.4202    4.3351   -4.0864 H         1 <0>         0.0889
     30 H15         2.1981    5.1918    0.8985 H         1 <0>         0.4640
     31 H16         3.1890    3.7403    0.5272 H         1 <0>         0.4603
     32 H17         2.0474    3.7176    1.9138 H         1 <0>         0.4667
@<TRIPOS>BOND
     1    1    6 ar
     2    1    2 ar
     3    1   17 1
     4    2    3 ar
     5    2   18 1
     6    3    4 ar
     7    3   19 1
     8    4    5 ar
     9    4    7 1
    10    5    6 ar
    11    5   20 1
    12    6   21 1
    13    7    8 1
    14    7    9 1
    15    7   16 1
    16    9   10 2
    17    9   11 am
    18   11   15 1
    19   11   12 1
    20   12   13 1
    21   12   22 1
    22   12   23 1
    23   13   14 1
    24   13   24 1
    25   13   25 1
    26   14   15 1
    27   14   26 1
    28   14   27 1
    29   15   28 1
    30   15   29 1
    31   16   30 1
    32   16   31 1
    33   16   32 1
@<TRIPOS>MOLECULE
ZINC19435046
   31    32     0     0     0
SMALL
USER_CHARGES
(2R)-2-amino-2-phenyl-1-pyrrolidin-1-yl-ethanone
@<TRIPOS>ATOM
      1 C1          1.2084   -0.6789   -0.0136 C.ar      1 <0>        -0.1127
      2 C2          0.0021   -0.0041    0.0020 C.ar      1 <0>        -0.1230
      3 C3         -0.0167    1.3781    0.0096 C.ar      1 <0>        -0.1143
      4 C4          1.1709    2.0855    0.0021 C.ar      1 <0>        -0.0894
      5 C5          2.3773    1.4107   -0.0136 C.ar      1 <0>        -0.0812
      6 C6          2.3961    0.0285   -0.0212 C.ar      1 <0>        -0.1231
      7 C7          1.1505    3.5924    0.0099 C.3       1 <0>         0.1115
      8 H1          0.1867    3.9565    0.3953 H         1 <0>         0.0628
      9 C8          1.3773    4.1051   -1.3889 C.2       1 <0>         0.5353
     10 O1          2.4764    4.4959   -1.7208 O.2       1 <0>        -0.5156
     11 N1          0.3586    4.1294   -2.2711 N.am      1 <0>        -0.6206
     12 C9         -1.0163    3.6820   -2.0049 C.3       1 <0>         0.0858
     13 C10        -1.8210    3.8739   -3.3076 C.3       1 <0>        -0.1351
     14 C11        -0.7170    3.8797   -4.3978 C.3       1 <0>        -0.1286
     15 C12         0.4402    4.6031   -3.6648 C.3       1 <0>         0.1074
     16 N2          2.2130    4.0919    0.8928 N.3       1 <0>        -0.8071
     17 H2          1.2231   -1.7588   -0.0196 H         1 <0>         0.1233
     18 H3         -0.9258   -0.5567    0.0079 H         1 <0>         0.1243
     19 H4         -0.9592    1.9054    0.0170 H         1 <0>         0.1220
     20 H5          3.3052    1.9634   -0.0192 H         1 <0>         0.1347
     21 H6          3.3386   -0.4987   -0.0327 H         1 <0>         0.1246
     22 H7         -1.0064    2.6224   -1.7095 H         1 <0>         0.0750
     23 H8         -1.4473    4.2851   -1.1922 H         1 <0>         0.0664
     24 H9         -2.5300    3.0413   -3.4266 H         1 <0>         0.0841
     25 H10        -2.3748    4.8231   -3.2600 H         1 <0>         0.0778
     26 H11        -0.4735    2.8444   -4.6785 H         1 <0>         0.0783
     27 H12        -1.0783    4.4242   -5.2827 H         1 <0>         0.0878
     28 H13         0.3174    5.6960   -3.6884 H         1 <0>         0.0702
     29 H14         1.4202    4.3351   -4.0864 H         1 <0>         0.0797
     30 H15         2.1981    5.1918    0.8985 H         1 <0>         0.3495
     31 H16         2.0474    3.7176    1.9138 H         1 <0>         0.3503
@<TRIPOS>BOND
     1    1    6 ar
     2    1    2 ar
     3    1   17 1
     4    2    3 ar
     5    2   18 1
     6    3    4 ar
     7    3   19 1
     8    4    5 ar
     9    4    7 1
    10    5    6 ar
    11    5   20 1
    12    6   21 1
    13    7    8 1
    14    7    9 1
    15    7   16 1
    16    9   10 2
    17    9   11 am
    18   11   15 1
    19   11   12 1
    20   12   13 1
    21   12   22 1
    22   12   23 1
    23   13   14 1
    24   13   24 1
    25   13   25 1
    26   14   15 1
    27   14   26 1
    28   14   27 1
    29   15   28 1
    30   15   29 1
    31   16   30 1
    32   16   31 1
@<TRIPOS>MOLECULE
ZINC53259547
   31    32     0     0     0
SMALL
USER_CHARGES

@<TRIPOS>ATOM
      1 C1         -0.0167    1.3781    0.0096 C.ar      1 <0>        -0.1140
      2 C2          1.1709    2.0855    0.0021 C.ar      1 <0>        -0.1167
      3 C3          2.3773    1.4107   -0.0130 C.ar      1 <0>        -0.1096
      4 C4          2.3960    0.0285   -0.0201 C.ar      1 <0>        -0.1245
      5 C5          1.2084   -0.6789   -0.0117 C.ar      1 <0>        -0.1094
      6 C6          0.0021   -0.0041    0.0020 C.ar      1 <0>        -0.1138
      7 C7          3.7112   -0.7071   -0.0376 C.3       1 <0>         0.1220
      8 H1          4.4960   -0.0399   -0.3940 H         1 <0>         0.1090
      9 C8          4.0438   -1.1746    1.3559 C.2       1 <0>         0.5423
     10 O1          3.8330   -2.3253    1.6760 O.2       1 <0>        -0.5256
     11 N1          4.5754   -0.3140    2.2465 N.am      1 <0>        -0.6173
     12 C9          4.8751    1.1031    1.9949 C.3       1 <0>         0.0905
     13 C10         5.4925    1.6774    3.2874 C.3       1 <0>        -0.1328
     14 C11         6.0278    0.4123    4.0088 C.3       1 <0>        -0.1341
     15 C12         4.9468   -0.6362    3.6364 C.3       1 <0>         0.1040
     16 N2          3.6112   -1.8677   -0.9326 N.3       1 <0>        -0.8224
     17 H2         -0.9591    1.9053    0.0259 H         1 <0>         0.1252
     18 H3          1.1563    3.1654    0.0076 H         1 <0>         0.1263
     19 H4          3.3051    1.9634   -0.0196 H         1 <0>         0.1258
     20 H5          1.2231   -1.7588   -0.0176 H         1 <0>         0.1227
     21 H6         -0.9258   -0.5567    0.0082 H         1 <0>         0.1258
     22 H7          5.5861    1.1915    1.1734 H         1 <0>         0.0701
     23 H8          3.9573    1.6388    1.7527 H         1 <0>         0.0745
     24 H9          6.3078    2.3623    3.0542 H         1 <0>         0.0851
     25 H10         4.7320    2.1728    3.8910 H         1 <0>         0.0783
     26 H11         7.0052    0.1254    3.6208 H         1 <0>         0.0782
     27 H12         6.0667    0.5646    5.0874 H         1 <0>         0.0865
     28 H13         4.0812   -0.5414    4.2921 H         1 <0>         0.0686
     29 H14         5.3597   -1.6433    3.6950 H         1 <0>         0.0801
     30 H15         2.8899   -2.5018   -0.6233 H         1 <0>         0.3531
     31 H16         3.4526   -1.5767   -1.8857 H         1 <0>         0.3524
@<TRIPOS>BOND
     1    1    6 ar
     2    1    2 ar
     3    1   17 1
     4    2    3 ar
     5    2   18 1
     6    3    4 ar
     7    3   19 1
     8    4    5 ar
     9    4    7 1
    10    5    6 ar
    11    5   20 1
    12    6   21 1
    13    7    8 1
    14    7    9 1
    15    7   16 1
    16    9   10 2
    17    9   11 am
    18   11   15 1
    19   11   12 1
    20   12   13 1
    21   12   22 1
    22   12   23 1
    23   13   14 1
    24   13   24 1
    25   13   25 1
    26   14   15 1
    27   14   26 1
    28   14   27 1
    29   15   28 1
    30   15   29 1
    31   16   30 1
    32   16   31 1
@<TRIPOS>MOLECULE
ZINC13588224
   38    39     0     0     0
SMALL
USER_CHARGES
(2S)-2-amino-2-cyclohexyl-1-pyrrolidin-1-yl-ethanone
@<TRIPOS>ATOM
      1 C1         -1.4058    5.8055    3.8090 C.3       1 <0>        -0.1282
      2 C2         -0.2661    6.2249    2.8784 C.3       1 <0>        -0.1224
      3 C3         -0.5659    5.7457    1.4567 C.3       1 <0>        -0.1246
      4 C4         -0.6958    4.2212    1.4490 C.3       1 <0>        -0.1047
      5 C5         -1.8356    3.8019    2.3796 C.3       1 <0>        -0.1286
      6 C6         -1.5358    4.2810    3.8013 C.3       1 <0>        -0.1211
      7 C7         -0.9957    3.7421    0.0273 C.3       1 <0>         0.0254
      8 H1         -0.2011    4.0507   -0.6679 H         1 <0>         0.1557
      9 C8         -1.1237    2.2405    0.0197 C.2       1 <0>         0.5166
     10 O1         -2.2217    1.7255    0.0223 O.2       1 <0>        -0.5270
     11 N1         -0.0179    1.4700    0.0101 N.am      1 <0>        -0.5969
     12 C9          1.3681    1.9604   -0.0005 C.3       1 <0>         0.0811
     13 C10         2.2911    0.7243   -0.0432 C.3       1 <0>        -0.1373
     14 C11         1.3681   -0.3787   -0.6252 C.3       1 <0>        -0.1321
     15 C12         0.0021   -0.0041    0.0020 C.3       1 <0>         0.1050
     16 N2         -2.2532    4.3430   -0.4370 N.4       1 <0>        -0.6748
     17 H2         -2.3474    6.2555    3.4614 H         1 <0>         0.0650
     18 H3         -1.1902    6.1500    4.8312 H         1 <0>         0.0752
     19 H4         -0.1728    7.3209    2.8839 H         1 <0>         0.0775
     20 H5          0.6756    5.7750    3.2260 H         1 <0>         0.0728
     21 H6         -1.5075    6.1957    1.1090 H         1 <0>         0.0619
     22 H7          0.2535    6.0472    0.7877 H         1 <0>         0.0826
     23 H8          0.2458    3.7711    1.7965 H         1 <0>         0.1191
     24 H9         -2.7772    4.2520    2.0319 H         1 <0>         0.0621
     25 H10        -1.9291    2.7059    2.3741 H         1 <0>         0.0800
     26 H11        -0.5942    3.8310    4.1490 H         1 <0>         0.0712
     27 H12        -2.3553    3.9795    4.4703 H         1 <0>         0.0764
     28 H13         1.5268    2.5919   -0.8871 H         1 <0>         0.0770
     29 H14         1.5551    2.5510    0.9085 H         1 <0>         0.0786
     30 H15         3.1569    0.9353   -0.6880 H         1 <0>         0.0929
     31 H16         2.6395    0.4915    0.9739 H         1 <0>         0.0851
     32 H17         1.3728   -0.3188   -1.7236 H         1 <0>         0.0837
     33 H18         1.7342   -1.3670   -0.3103 H         1 <0>         0.0983
     34 H19        -0.0892   -0.3777    1.0326 H         1 <0>         0.0830
     35 H20        -0.8390   -0.3789   -0.5997 H         1 <0>         0.0893
     36 H21        -2.4687    3.9985   -1.4592 H         1 <0>         0.4614
     37 H22        -2.1598    5.4390   -0.4315 H         1 <0>         0.4602
     38 H23        -3.0726    4.0414    0.2320 H         1 <0>         0.4601
@<TRIPOS>BOND
     1    1    6 1
     2    1    2 1
     3    1   17 1
     4    1   18 1
     5    2    3 1
     6    2   19 1
     7    2   20 1
     8    3    4 1
     9    3   21 1
    10    3   22 1
    11    4    5 1
    12    4    7 1
    13    4   23 1
    14    5    6 1
    15    5   24 1
    16    5   25 1
    17    6   26 1
    18    6   27 1
    19    7    8 1
    20    7    9 1
    21    7   16 1
    22    9   10 2
    23    9   11 am
    24   11   15 1
    25   11   12 1
    26   12   13 1
    27   12   28 1
    28   12   29 1
    29   13   14 1
    30   13   30 1
    31   13   31 1
    32   14   15 1
    33   14   32 1
    34   14   33 1
    35   15   34 1
    36   15   35 1
    37   16   36 1
    38   16   37 1
    39   16   38 1
@<TRIPOS>MOLECULE
ZINC00007335
   31    31     0     0     0
SMALL
USER_CHARGES
(2S)-2-amino-3-methyl-1-pyrrolidin-1-yl-butan-1-one
@<TRIPOS>ATOM
      1 C1         -0.2147    0.5337    0.0647 C.3       1 <0>        -0.1684
      2 C2         -0.9302    1.1001    1.2929 C.3       1 <0>        -0.1071
      3 C3         -1.3641    2.5400    1.0115 C.3       1 <0>        -0.1607
      4 C4          0.0203    1.0789    2.4917 C.3       1 <0>         0.0158
      5 H1          0.9175    1.6505    2.2541 H         1 <0>         0.1570
      6 C5         -0.6641    1.6917    3.6863 C.2       1 <0>         0.5163
      7 O1         -1.3909    1.0146    4.3822 O.2       1 <0>        -0.5194
      8 N1         -0.4686    2.9921    3.9813 N.am      1 <0>        -0.5948
      9 C6          0.4677    3.8949    3.2959 C.3       1 <0>         0.0780
     10 C7          0.3676    5.2705    3.9879 C.3       1 <0>        -0.1342
     11 C8         -0.1956    4.9124    5.3886 C.3       1 <0>        -0.1360
     12 C9         -1.1535    3.7433    5.0490 C.3       1 <0>         0.0999
     13 H2          0.0944   -0.4921    0.2652 H         1 <0>         0.0566
     14 H3          0.6629    1.1410   -0.1567 H         1 <0>         0.0769
     15 H4         -0.8919    0.5488   -0.7893 H         1 <0>         0.0921
     16 H5         -1.8078    0.4928    1.5143 H         1 <0>         0.1055
     17 H6         -2.0989    2.5472    0.2064 H         1 <0>         0.0863
     18 H7         -1.8064    2.9685    1.9108 H         1 <0>         0.0683
     19 H8         -0.4963    3.1300    0.7168 H         1 <0>         0.0733
     20 H9          1.4836    3.5087    3.3798 H         1 <0>         0.0780
     21 H10         0.1903    3.9892    2.2460 H         1 <0>         0.0847
     22 H11        -0.3188    5.9266    3.4525 H         1 <0>         0.0865
     23 H12         1.3514    5.7318    4.0742 H         1 <0>         0.0935
     24 H13        -0.7415    5.7530    5.8168 H         1 <0>         0.0973
     25 H14         0.6001    4.5839    6.0573 H         1 <0>         0.0820
     26 H15        -2.1084    4.1274    4.6901 H         1 <0>         0.0834
     27 H16        -1.3030    3.1093    5.9230 H         1 <0>         0.0898
     28 H17         1.0684   -0.3459    3.5452 H         1 <0>         0.4415
     29 H18        -0.4242   -0.8601    3.0220 H         1 <0>         0.4453
     30 N2          0.4011   -0.3159    2.7761 N.4       1 <0>        -0.6321
     31 H19         0.8349   -0.7245    1.9400 H         1 <0>         0.4447
@<TRIPOS>BOND
     1    1    2 1
     2    1   13 1
     3    1   14 1
     4    1   15 1
     5    2    3 1
     6    2    4 1
     7    2   16 1
     8    3   17 1
     9    3   18 1
    10    3   19 1
    11    4    5 1
    12    4    6 1
    13    4   30 1
    14    6    7 2
    15    6    8 am
    16    8   12 1
    17    8    9 1
    18    9   10 1
    19    9   20 1
    20    9   21 1
    21   10   11 1
    22   10   22 1
    23   10   23 1
    24   11   12 1
    25   11   24 1
    26   11   25 1
    27   12   26 1
    28   12   27 1
    29   28   30 1
    30   29   30 1
    31   30   31 1
@<TRIPOS>MOLECULE
ZINC03203426
   31    31     0     0     0
SMALL
USER_CHARGES
(2R)-2-amino-3-methyl-1-pyrrolidin-1-yl-butan-1-one
@<TRIPOS>ATOM
      1 C1         -2.8122    3.3692   -1.4153 C.3       1 <0>        -0.1687
      2 C2         -1.5933    2.4449   -1.3911 C.3       1 <0>        -0.1074
      3 C3         -0.3833    3.1812   -1.9698 C.3       1 <0>        -0.1612
      4 C4         -1.2961    2.0305    0.0514 C.3       1 <0>         0.0155
      5 H1         -1.1259    2.9204    0.6574 H         1 <0>         0.1570
      6 C5         -0.0662    1.1601    0.0808 C.2       1 <0>         0.5155
      7 O1         -0.1500   -0.0176   -0.1963 O.2       1 <0>        -0.5174
      8 N1          1.1279    1.6917    0.4096 N.am      1 <0>        -0.5956
      9 C6          1.3907    3.1153    0.6661 C.3       1 <0>         0.0762
     10 C7          2.8951    3.2544    0.9799 C.3       1 <0>        -0.1341
     11 C8          3.5040    1.9889    0.3202 C.3       1 <0>        -0.1366
     12 C9          2.3881    0.9428    0.5655 C.3       1 <0>         0.0999
     13 H2         -2.6070    4.2571   -0.8172 H         1 <0>         0.0769
     14 H3         -3.0240    3.6645   -2.4430 H         1 <0>         0.0922
     15 H4         -3.6742    2.8447   -1.0030 H         1 <0>         0.0565
     16 H5         -1.7985    1.5571   -1.9892 H         1 <0>         0.1060
     17 H6          0.5012    2.5500   -1.8840 H         1 <0>         0.0682
     18 H7         -0.5656    3.4105   -3.0197 H         1 <0>         0.0868
     19 H8         -0.2236    4.1075   -1.4179 H         1 <0>         0.0739
     20 H9          1.1382    3.7036   -0.2161 H         1 <0>         0.0867
     21 H10         0.8031    3.4528    1.5199 H         1 <0>         0.0777
     22 H11         3.0703    3.2506    2.0557 H         1 <0>         0.0855
     23 H12         3.3019    4.1588    0.5275 H         1 <0>         0.0938
     24 H13         4.4295    1.6966    0.8162 H         1 <0>         0.0972
     25 H14         3.6664    2.1441   -0.7464 H         1 <0>         0.0828
     26 H15         2.4651    0.5354    1.5736 H         1 <0>         0.0832
     27 H16         2.4483    0.1436   -0.1732 H         1 <0>         0.0899
     28 H17        -2.6170    0.4515    0.0462 H         1 <0>         0.4453
     29 H18        -2.2943    1.0523    1.5630 H         1 <0>         0.4414
     30 N2         -2.4572    1.2990    0.5882 N.4       1 <0>        -0.6319
     31 H19        -3.2898    1.8969    0.5285 H         1 <0>         0.4449
@<TRIPOS>BOND
     1    1    2 1
     2    1   13 1
     3    1   14 1
     4    1   15 1
     5    2    3 1
     6    2    4 1
     7    2   16 1
     8    3   17 1
     9    3   18 1
    10    3   19 1
    11    4    5 1
    12    4    6 1
    13    4   30 1
    14    6    7 2
    15    6    8 am
    16    8   12 1
    17    8    9 1
    18    9   10 1
    19    9   20 1
    20    9   21 1
    21   10   11 1
    22   10   22 1
    23   10   23 1
    24   11   12 1
    25   11   24 1
    26   11   25 1
    27   12   26 1
    28   12   27 1
    29   28   30 1
    30   29   30 1
    31   30   31 1
@<TRIPOS>MOLECULE
ZINC11957328
   25    25     0     0     0
SMALL
USER_CHARGES
(2S)-2-amino-1-pyrrolidin-1-yl-propan-1-one
@<TRIPOS>ATOM
      1 C1         -1.6456    2.4041    1.4435 C.3       1 <0>        -0.1817
      2 C2         -1.3296    1.9443    0.0189 C.3       1 <0>         0.0155
      3 H1         -1.2655    2.8123   -0.6372 H         1 <0>         0.1604
      4 C3         -0.0144    1.2086    0.0087 C.2       1 <0>         0.5134
      5 O1          0.0021   -0.0041    0.0020 O.2       1 <0>        -0.5261
      6 N1          1.1435    1.8983    0.0013 N.am      1 <0>        -0.5951
      7 C4          1.2683    3.3632    0.0016 C.3       1 <0>         0.0833
      8 C5          2.7750    3.6948   -0.0333 C.3       1 <0>        -0.1350
      9 C6          3.3987    2.4057   -0.6305 C.3       1 <0>        -0.1364
     10 C7          2.4947    1.3088   -0.0147 C.3       1 <0>         0.1005
     11 H2         -0.8554    3.0677    1.7949 H         1 <0>         0.1099
     12 H3         -2.5969    2.9363    1.4509 H         1 <0>         0.1001
     13 H4         -1.7097    1.5361    2.0997 H         1 <0>         0.0916
     14 H5          0.7752    3.7774   -0.8778 H         1 <0>         0.0798
     15 H6          0.8214    3.7732    0.9073 H         1 <0>         0.0812
     16 H7          3.1566    3.8783    0.9711 H         1 <0>         0.0866
     17 H8          2.9669    4.5513   -0.6796 H         1 <0>         0.0941
     18 H9          4.4329    2.2863   -0.3078 H         1 <0>         0.0978
     19 H10         3.3279    2.4052   -1.7182 H         1 <0>         0.0823
     20 H11         2.8188    1.0753    0.9994 H         1 <0>         0.0836
     21 H12         2.5101    0.4124   -0.6346 H         1 <0>         0.0894
     22 H13        -2.2423    0.7837   -1.4158 H         1 <0>         0.4426
     23 H14        -2.4740    0.2371    0.1377 H         1 <0>         0.4447
     24 N2         -2.4145    1.0655   -0.4522 N.4       1 <0>        -0.6300
     25 H15        -3.3051    1.5743   -0.4060 H         1 <0>         0.4473
@<TRIPOS>BOND
     1    1    2 1
     2    1   11 1
     3    1   12 1
     4    1   13 1
     5    2    3 1
     6    2    4 1
     7    2   24 1
     8    4    5 2
     9    4    6 am
    10    6   10 1
    11    6    7 1
    12    7    8 1
    13    7   14 1
    14    7   15 1
    15    8    9 1
    16    8   16 1
    17    8   17 1
    18    9   10 1
    19    9   18 1
    20    9   19 1
    21   10   20 1
    22   10   21 1
    23   22   24 1
    24   23   24 1
    25   24   25 1
@<TRIPOS>MOLECULE
ZINC19426088
   25    25     0     0     0
SMALL
USER_CHARGES
(2R)-2-amino-1-pyrrolidin-1-yl-propan-1-one
@<TRIPOS>ATOM
      1 C1          1.4227    1.6154   -0.0028 C.3       1 <0>        -0.1815
      2 C2         -0.0127    1.0858    0.0080 C.3       1 <0>         0.0226
      3 H1         -0.0265   -0.0140    0.0249 H         1 <0>         0.1547
      4 C3         -0.7416    1.5850   -1.2129 C.2       1 <0>         0.5112
      5 O1         -1.4902    2.5352   -1.1259 O.2       1 <0>        -0.5292
      6 N1         -0.5615    0.9756   -2.4014 N.am      1 <0>        -0.5976
      7 C4          0.3173   -0.1768   -2.6490 C.3       1 <0>         0.0803
      8 C5          0.2208   -0.5122   -4.1521 C.3       1 <0>        -0.1375
      9 C6         -0.2615    0.8250   -4.7741 C.3       1 <0>        -0.1328
     10 C7         -1.2081    1.3581   -3.6699 C.3       1 <0>         0.1044
     11 N2         -0.7003    1.5596    1.2166 N.4       1 <0>        -0.6735
     12 H2          1.9547    1.2510    0.8884 H         1 <0>         0.0989
     13 H3          1.4078    2.7153    0.0033 H         1 <0>         0.0908
     14 H4          1.9376    1.2607   -0.9078 H         1 <0>         0.1076
     15 H5          1.3506    0.0850   -2.3772 H         1 <0>         0.0789
     16 H6         -0.0168   -1.0302   -2.0406 H         1 <0>         0.0784
     17 H7          1.2094   -0.8202   -4.5232 H         1 <0>         0.0935
     18 H8         -0.4978   -1.3319   -4.2995 H         1 <0>         0.0852
     19 H9          0.6047    1.4781   -4.9562 H         1 <0>         0.0843
     20 H10        -0.7747    0.6227   -5.7258 H         1 <0>         0.0987
     21 H11        -2.2039    0.8945   -3.7282 H         1 <0>         0.0836
     22 H12        -1.3100    2.4525   -3.7141 H         1 <0>         0.0894
     23 H13        -1.7323    1.1789    1.2244 H         1 <0>         0.4620
     24 H14        -0.7152    2.6595    1.2226 H         1 <0>         0.4634
     25 H15        -0.1683    1.1952    2.1078 H         1 <0>         0.4643
@<TRIPOS>BOND
     1    1    2 1
     2    1   12 1
     3    1   13 1
     4    1   14 1
     5    2    3 1
     6    2    4 1
     7    2   11 1
     8    4    5 2
     9    4    6 am
    10    6   10 1
    11    6    7 1
    12    7    8 1
    13    7   15 1
    14    7   16 1
    15    8    9 1
    16    8   17 1
    17    8   18 1
    18    9   10 1
    19    9   19 1
    20    9   20 1
    21   10   21 1
    22   10   22 1
    23   11   23 1
    24   11   24 1
    25   11   25 1
@<TRIPOS>MOLECULE
ZINC35931795
   34    34     0     0     0
SMALL
USER_CHARGES

@<TRIPOS>ATOM
      1 C1         -0.0361    1.8406   -0.6731 C.3       1 <0>        -0.1544
      2 C2         -0.1087    0.3691   -0.2602 C.3       1 <0>        -0.0744
      3 C3          0.5710    0.1865    1.0983 C.3       1 <0>        -0.1689
      4 C4         -1.5737   -0.0606   -0.1595 C.3       1 <0>        -0.1634
      5 C5          0.6040   -0.4900   -1.3067 C.3       1 <0>         0.0153
      6 H1          0.1287   -0.3489   -2.2774 H         1 <0>         0.1589
      7 C6          2.0516   -0.0799   -1.3918 C.2       1 <0>         0.5162
      8 O1          2.8578   -0.5350   -0.6083 O.2       1 <0>        -0.5168
      9 N1          2.4503    0.7924   -2.3386 N.am      1 <0>        -0.5939
     10 C7          1.6066    1.3356   -3.4132 C.3       1 <0>         0.0768
     11 C8          2.4935    2.2680   -4.2651 C.3       1 <0>        -0.1341
     12 C9          3.9269    1.7585   -3.9600 C.3       1 <0>        -0.1357
     13 C10         3.8031    1.3649   -2.4646 C.3       1 <0>         0.1001
     14 N2          0.5176   -1.9046   -0.9201 N.4       1 <0>        -0.6239
     15 H2          1.0033    2.1686   -0.6678 H         1 <0>         0.0690
     16 H3         -0.4489    1.9576   -1.6751 H         1 <0>         0.0726
     17 H4         -0.6111    2.4438    0.0294 H         1 <0>         0.0870
     18 H5          0.0632    0.7985    1.8438 H         1 <0>         0.0886
     19 H6          0.5192   -0.8618    1.3924 H         1 <0>         0.0563
     20 H7          1.6146    0.4926    1.0265 H         1 <0>         0.0813
     21 H8         -2.0579    0.0695   -1.1273 H         1 <0>         0.0774
     22 H9         -1.6254   -1.1089    0.1347 H         1 <0>         0.0564
     23 H10        -2.0814    0.5514    0.5860 H         1 <0>         0.0928
     24 H11         1.2233    0.5229   -4.0302 H         1 <0>         0.0779
     25 H12         0.7789    1.9008   -2.9848 H         1 <0>         0.0851
     26 H13         2.2625    2.1580   -5.3246 H         1 <0>         0.0935
     27 H14         2.3774    3.3049   -3.9496 H         1 <0>         0.0863
     28 H15         4.1736    0.8938   -4.5760 H         1 <0>         0.0823
     29 H16         4.6607    2.5534   -4.0934 H         1 <0>         0.0969
     30 H17         3.9034    2.2445   -1.8288 H         1 <0>         0.0832
     31 H18         4.5557    0.6204   -2.2051 H         1 <0>         0.0900
     32 H19         0.9876   -2.4711   -1.6102 H         1 <0>         0.4391
     33 H20         0.9576   -2.0351   -0.0215 H         1 <0>         0.4414
     34 H21        -0.4517   -2.1791   -0.8631 H         1 <0>         0.4408
@<TRIPOS>BOND
     1    1    2 1
     2    1   15 1
     3    1   16 1
     4    1   17 1
     5    2    3 1
     6    2    4 1
     7    2    5 1
     8    3   18 1
     9    3   19 1
    10    3   20 1
    11    4   21 1
    12    4   22 1
    13    4   23 1
    14    5    6 1
    15    5    7 1
    16    5   14 1
    17    7    8 2
    18    7    9 am
    19    9   13 1
    20    9   10 1
    21   10   11 1
    22   10   24 1
    23   10   25 1
    24   11   12 1
    25   11   26 1
    26   11   27 1
    27   12   13 1
    28   12   28 1
    29   12   29 1
    30   13   30 1
    31   13   31 1
    32   14   32 1
    33   14   33 1
    34   14   34 1
@<TRIPOS>MOLECULE
ZINC35931795
   33    33     0     0     0
SMALL
USER_CHARGES

@<TRIPOS>ATOM
      1 C1         -0.0420    1.8410   -0.6790 C.3       1 <0>        -0.1466
      2 C2         -0.1088    0.3707   -0.2610 C.3       1 <0>        -0.0966
      3 C3          0.5750    0.1948    1.0963 C.3       1 <0>        -0.1488
      4 C4         -1.5721   -0.0634   -0.1550 C.3       1 <0>        -0.1438
      5 C5          0.6039   -0.4896   -1.3064 C.3       1 <0>         0.0879
      6 H1          0.1287   -0.3496   -2.2773 H         1 <0>         0.0968
      7 C6          2.0516   -0.0799   -1.3918 C.2       1 <0>         0.5445
      8 O1          2.8579   -0.5352   -0.6085 O.2       1 <0>        -0.5309
      9 N1          2.4503    0.7924   -2.3386 N.am      1 <0>        -0.6193
     10 C7          1.6066    1.3356   -3.4132 C.3       1 <0>         0.0905
     11 C8          2.4935    2.2680   -4.2651 C.3       1 <0>        -0.1326
     12 C9          3.9269    1.7585   -3.9600 C.3       1 <0>        -0.1342
     13 C10         3.8031    1.3649   -2.4646 C.3       1 <0>         0.1032
     14 N2          0.5173   -1.9038   -0.9183 N.3       1 <0>        -0.8312
     15 H2          0.9966    2.1720   -0.6786 H         1 <0>         0.0576
     16 H3         -0.4588    1.9534   -1.6799 H         1 <0>         0.0602
     17 H4         -0.6161    2.4449    0.0236 H         1 <0>         0.0618
     18 H5          0.0673    0.8077    1.8411 H         1 <0>         0.0591
     19 H6          0.5274   -0.8527    1.3941 H         1 <0>         0.0562
     20 H7          1.6175    0.5040    1.0208 H         1 <0>         0.0658
     21 H8         -2.0592    0.0619   -1.1220 H         1 <0>         0.0600
     22 H9         -1.6197   -1.1108    0.1428 H         1 <0>         0.0565
     23 H10        -2.0798    0.5495    0.5898 H         1 <0>         0.0642
     24 H11         1.2233    0.5229   -4.0302 H         1 <0>         0.0697
     25 H12         0.7789    1.9008   -2.9848 H         1 <0>         0.0747
     26 H13         2.2625    2.1580   -5.3246 H         1 <0>         0.0842
     27 H14         2.3774    3.3049   -3.9496 H         1 <0>         0.0781
     28 H15         4.1736    0.8938   -4.5760 H         1 <0>         0.0775
     29 H16         4.6607    2.5534   -4.0934 H         1 <0>         0.0856
     30 H17         3.9034    2.2445   -1.8288 H         1 <0>         0.0679
     31 H18         4.5557    0.6204   -2.2051 H         1 <0>         0.0795
     32 H19         0.9511   -2.0597   -0.0208 H         1 <0>         0.3533
     33 H20        -0.4408   -2.2203   -0.9167 H         1 <0>         0.3491
@<TRIPOS>BOND
     1    1    2 1
     2    1   15 1
     3    1   16 1
     4    1   17 1
     5    2    3 1
     6    2    4 1
     7    2    5 1
     8    3   18 1
     9    3   19 1
    10    3   20 1
    11    4   21 1
    12    4   22 1
    13    4   23 1
    14    5    6 1
    15    5    7 1
    16    5   14 1
    17    7    8 2
    18    7    9 am
    19    9   13 1
    20    9   10 1
    21   10   11 1
    22   10   24 1
    23   10   25 1
    24   11   12 1
    25   11   26 1
    26   11   27 1
    27   12   13 1
    28   12   28 1
    29   12   29 1
    30   13   30 1
    31   13   31 1
    32   14   32 1
    33   14   33 1
@<TRIPOS>MOLECULE
ZINC35931798
   34    34     0     0     0
SMALL
USER_CHARGES

@<TRIPOS>ATOM
      1 C1         -0.0161    0.7188    0.8880 C.3       1 <0>        -0.1725
      2 C2          0.0583   -0.6852    0.2845 C.3       1 <0>        -0.0742
      3 C3          0.9731   -1.5614    1.1425 C.3       1 <0>        -0.1576
      4 C4         -1.3432   -1.2977    0.2439 C.3       1 <0>        -0.1612
      5 C5          0.6192   -0.6004   -1.1365 C.3       1 <0>         0.0147
      6 H1          0.5474   -1.5775   -1.6143 H         1 <0>         0.1597
      7 C6          2.0632   -0.1728   -1.0818 C.2       1 <0>         0.5164
      8 O1          2.3443    1.0032   -0.9874 O.2       1 <0>        -0.5166
      9 N1          3.0423   -1.0973   -1.1378 N.am      1 <0>        -0.5948
     10 C7          2.8448   -2.5539   -1.1667 C.3       1 <0>         0.0743
     11 C8          4.2434   -3.2053   -1.2041 C.3       1 <0>        -0.1339
     12 C9          5.1591   -2.0956   -0.6232 C.3       1 <0>        -0.1362
     13 C10         4.4885   -0.8153   -1.1867 C.3       1 <0>         0.1001
     14 N2         -0.1532    0.3809   -1.9100 N.4       1 <0>        -0.6235
     15 H2          0.9824    1.1551    0.9170 H         1 <0>         0.0833
     16 H3         -0.6678    1.3430    0.2768 H         1 <0>         0.0554
     17 H4         -0.4157    0.6584    1.9003 H         1 <0>         0.0912
     18 H5          0.6182   -1.5572    2.1731 H         1 <0>         0.0870
     19 H6          0.9633   -2.5817    0.7590 H         1 <0>         0.0752
     20 H7          1.9896   -1.1696    1.1067 H         1 <0>         0.0693
     21 H8         -1.9950   -0.6735   -0.3674 H         1 <0>         0.0575
     22 H9         -1.2903   -2.2979   -0.1861 H         1 <0>         0.0765
     23 H10        -1.7428   -1.3581    1.2562 H         1 <0>         0.0907
     24 H11         2.3108   -2.8734   -0.2718 H         1 <0>         0.0879
     25 H12         2.2816   -2.8340   -2.0569 H         1 <0>         0.0776
     26 H13         4.2709   -4.0958   -0.5762 H         1 <0>         0.0937
     27 H14         4.5300   -3.4450   -2.2280 H         1 <0>         0.0852
     28 H15         5.1396   -2.1036    0.4666 H         1 <0>         0.0830
     29 H16         6.1789   -2.1963   -0.9948 H         1 <0>         0.0968
     30 H17         4.8061   -0.6388   -2.2144 H         1 <0>         0.0833
     31 H18         4.7286    0.0448   -0.5616 H         1 <0>         0.0899
     32 H19        -1.1200    0.0946   -1.9466 H         1 <0>         0.4409
     33 H20        -0.0867    1.2854   -1.4677 H         1 <0>         0.4417
     34 H21         0.2168    0.4368   -2.8471 H         1 <0>         0.4390
@<TRIPOS>BOND
     1    1    2 1
     2    1   15 1
     3    1   16 1
     4    1   17 1
     5    2    3 1
     6    2    4 1
     7    2    5 1
     8    3   18 1
     9    3   19 1
    10    3   20 1
    11    4   21 1
    12    4   22 1
    13    4   23 1
    14    5    6 1
    15    5    7 1
    16    5   14 1
    17    7    8 2
    18    7    9 am
    19    9   13 1
    20    9   10 1
    21   10   11 1
    22   10   24 1
    23   10   25 1
    24   11   12 1
    25   11   26 1
    26   11   27 1
    27   12   13 1
    28   12   28 1
    29   12   29 1
    30   13   30 1
    31   13   31 1
    32   14   32 1
    33   14   33 1
    34   14   34 1
@<TRIPOS>MOLECULE
ZINC35931798
   33    33     0     0     0
SMALL
USER_CHARGES

@<TRIPOS>ATOM
      1 C1         -0.0126    0.7136    0.8949 C.3       1 <0>        -0.1502
      2 C2          0.0548   -0.6889    0.2874 C.3       1 <0>        -0.0515
      3 C3          0.9649   -1.5723    1.1431 C.3       1 <0>        -0.1540
      4 C4         -1.3497   -1.2942    0.2445 C.3       1 <0>        -0.1335
      5 C5          0.6166   -0.6029   -1.1332 C.3       1 <0>         0.0885
      6 H1          0.5445   -1.5793   -1.6122 H         1 <0>         0.0976
      7 C6          2.0609   -0.1764   -1.0772 C.2       1 <0>         0.4988
      8 O1          2.3427    0.9995   -0.9834 O.2       1 <0>        -0.5409
      9 N1          3.0394   -1.1016   -1.1313 N.am      1 <0>        -0.6169
     10 C7          2.8409   -2.5581   -1.1592 C.3       1 <0>         0.0870
     11 C8          4.2390   -3.2105   -1.1944 C.3       1 <0>        -0.1328
     12 C9          5.1549   -2.1010   -0.6135 C.3       1 <0>        -0.1339
     13 C10         4.4859   -0.8207   -1.1788 C.3       1 <0>         0.0998
     14 N2         -0.1546    0.3799   -1.9061 N.3       1 <0>        -0.8190
     15 H2          0.9880    1.1448    0.9255 H         1 <0>         0.0610
     16 H3         -0.6609    1.3429    0.2853 H         1 <0>         0.0638
     17 H4         -0.4128    0.6524    1.9069 H         1 <0>         0.0581
     18 H5          0.6097   -1.5692    2.1736 H         1 <0>         0.0643
     19 H6          0.9500   -2.5913    0.7567 H         1 <0>         0.0613
     20 H7          1.9834   -1.1855    1.1087 H         1 <0>         0.0565
     21 H8         -1.9981   -0.6649   -0.3652 H         1 <0>         0.0699
     22 H9         -1.3017   -2.2934   -0.1883 H         1 <0>         0.0529
     23 H10        -1.7500   -1.3555    1.2565 H         1 <0>         0.0553
     24 H11         2.3057   -2.8764   -0.2646 H         1 <0>         0.0802
     25 H12         2.2784   -2.8385   -2.0497 H         1 <0>         0.0691
     26 H13         4.2651   -4.1006   -0.5658 H         1 <0>         0.0849
     27 H14         4.5265   -3.4513   -2.2179 H         1 <0>         0.0779
     28 H15         5.1341   -2.1081    0.4763 H         1 <0>         0.0772
     29 H16         6.1750   -2.2028   -0.9839 H         1 <0>         0.0857
     30 H17         4.8047   -0.6453   -2.2063 H         1 <0>         0.0679
     31 H18         4.7259    0.0397   -0.5541 H         1 <0>         0.0783
     32 H19        -0.1034    1.2940   -1.4820 H         1 <0>         0.3536
     33 H20         0.1553    0.4086   -2.8659 H         1 <0>         0.3433
@<TRIPOS>BOND
     1    1    2 1
     2    1   15 1
     3    1   16 1
     4    1   17 1
     5    2    3 1
     6    2    4 1
     7    2    5 1
     8    3   18 1
     9    3   19 1
    10    3   20 1
    11    4   21 1
    12    4   22 1
    13    4   23 1
    14    5    6 1
    15    5    7 1
    16    5   14 1
    17    7    8 2
    18    7    9 am
    19    9   13 1
    20    9   10 1
    21   10   11 1
    22   10   24 1
    23   10   25 1
    24   11   12 1
    25   11   26 1
    26   11   27 1
    27   12   13 1
    28   12   28 1
    29   12   29 1
    30   13   30 1
    31   13   31 1
    32   14   32 1
    33   14   33 1
@<TRIPOS>MOLECULE
ZINC11959217
   34    34     0     0     0
SMALL
USER_CHARGES
(2S,3R)-2-amino-3-methyl-1-pyrrolidin-1-yl-pentan-1-one
@<TRIPOS>ATOM
      1 C1          2.1873   -0.0730   -1.2073 C.3       1 <0>        -0.1594
      2 C2          0.7182   -0.4975   -1.2568 C.3       1 <0>        -0.1332
      3 C3          0.0021   -0.0041    0.0020 C.3       1 <0>        -0.1105
      4 H1          0.5293   -0.3651    0.8851 H         1 <0>         0.1220
      5 C4         -0.0187    1.5258    0.0104 C.3       1 <0>        -0.1734
      6 C5         -1.4333   -0.5336    0.0129 C.3       1 <0>         0.0178
      7 H2         -1.4185   -1.6235    0.0069 H         1 <0>         0.1613
      8 C6         -2.1387   -0.0476    1.2528 C.2       1 <0>         0.5186
      9 O1         -2.8888    0.9033    1.1903 O.2       1 <0>        -0.5238
     10 N1         -1.9360   -0.6698    2.4310 N.am      1 <0>        -0.5946
     11 C7         -1.0626   -1.8326    2.6469 C.3       1 <0>         0.0835
     12 C8         -1.1645   -2.2115    4.1393 C.3       1 <0>        -0.1346
     13 C9         -2.5276   -1.6003    4.5586 C.3       1 <0>        -0.1363
     14 C10        -2.5582   -0.3010    3.7156 C.3       1 <0>         0.1010
     15 H3          2.2499    1.0140   -1.1561 H         1 <0>         0.0654
     16 H4          2.6611   -0.5061   -0.3263 H         1 <0>         0.0654
     17 H5          2.6975   -0.4246   -2.1040 H         1 <0>         0.0700
     18 H6          0.6556   -1.5845   -1.3079 H         1 <0>         0.0822
     19 H7          0.2444   -0.0644   -2.1377 H         1 <0>         0.0639
     20 H8          1.0039    1.9031    0.0027 H         1 <0>         0.0922
     21 H9         -0.5459    1.8868   -0.8726 H         1 <0>         0.0574
     22 H10        -0.5289    1.8773    0.9072 H         1 <0>         0.0746
     23 H11        -1.3946   -2.6657    2.0274 H         1 <0>         0.0794
     24 H12        -0.0326   -1.5732    2.4018 H         1 <0>         0.0803
     25 H13        -0.3500   -1.7660    4.7105 H         1 <0>         0.0864
     26 H14        -1.1730   -3.2945    4.2629 H         1 <0>         0.0939
     27 H15        -2.5431   -1.3747    5.6248 H         1 <0>         0.0975
     28 H16        -3.3515   -2.2608    4.2885 H         1 <0>         0.0823
     29 H17        -1.9808    0.4828    4.2057 H         1 <0>         0.0832
     30 H18        -3.5864    0.0255    3.5592 H         1 <0>         0.0894
     31 H19        -3.0739   -0.4349   -1.2269 H         1 <0>         0.4425
     32 H20        -2.1712    0.9615   -1.1949 H         1 <0>         0.4427
     33 N2         -2.1288   -0.0563   -1.1954 N.4       1 <0>        -0.6312
     34 H21        -1.6144   -0.3698   -2.0269 H         1 <0>         0.4442
@<TRIPOS>BOND
     1    1    2 1
     2    1   15 1
     3    1   16 1
     4    1   17 1
     5    2    3 1
     6    2   18 1
     7    2   19 1
     8    3    4 1
     9    3    5 1
    10    3    6 1
    11    5   20 1
    12    5   21 1
    13    5   22 1
    14    6    7 1
    15    6    8 1
    16    6   33 1
    17    8    9 2
    18    8   10 am
    19   10   14 1
    20   10   11 1
    21   11   12 1
    22   11   23 1
    23   11   24 1
    24   12   13 1
    25   12   25 1
    26   12   26 1
    27   13   14 1
    28   13   27 1
    29   13   28 1
    30   14   29 1
    31   14   30 1
    32   31   33 1
    33   32   33 1
    34   33   34 1
@<TRIPOS>MOLECULE
ZINC11959221
   34    34     0     0     0
SMALL
USER_CHARGES
(2S,3S)-2-amino-3-methyl-1-pyrrolidin-1-yl-pentan-1-one
@<TRIPOS>ATOM
      1 C1          0.5881   -0.4898    1.9672 C.3       1 <0>        -0.1606
      2 C2          0.3881    1.0052    2.2238 C.3       1 <0>        -0.1307
      3 C3         -0.3293    1.6362    1.0288 C.3       1 <0>        -0.1033
      4 H1         -1.2588    1.0997    0.8383 H         1 <0>         0.1061
      5 C4          0.5693    1.5543   -0.2068 C.3       1 <0>        -0.1604
      6 C5         -0.6405    3.1022    1.3369 C.3       1 <0>         0.0173
      7 H2          0.2913    3.6485    1.4832 H         1 <0>         0.1568
      8 C6         -1.4018    3.7068    0.1853 C.2       1 <0>         0.5132
      9 O1         -2.6040    3.5649    0.1120 O.2       1 <0>        -0.5193
     10 N1         -0.7465    4.4053   -0.7630 N.am      1 <0>        -0.5940
     11 C7          0.6826    4.7496   -0.7397 C.3       1 <0>         0.0774
     12 C8          0.9771    5.5703   -2.0129 C.3       1 <0>        -0.1342
     13 C9         -0.4188    6.1310   -2.3929 C.3       1 <0>        -0.1360
     14 C10        -1.3456    4.9562   -1.9923 C.3       1 <0>         0.0998
     15 H3          1.0992   -0.9394    2.8186 H         1 <0>         0.0699
     16 H4         -0.3819   -0.9682    1.8317 H         1 <0>         0.0626
     17 H5          1.1896   -0.6269    1.0686 H         1 <0>         0.0685
     18 H6          1.3580    1.4835    2.3594 H         1 <0>         0.0832
     19 H7         -0.2134    1.1422    3.1225 H         1 <0>         0.0590
     20 H8          0.8497    0.5160   -0.3839 H         1 <0>         0.0893
     21 H9          1.4671    2.1503   -0.0432 H         1 <0>         0.0720
     22 H10         0.0312    1.9383   -1.0734 H         1 <0>         0.0681
     23 H11         0.9065    5.3435    0.1464 H         1 <0>         0.0780
     24 H12         1.2831    3.8399   -0.7403 H         1 <0>         0.0851
     25 H13         1.3653    4.9319   -2.8065 H         1 <0>         0.0865
     26 H14         1.6727    6.3812   -1.7972 H         1 <0>         0.0934
     27 H15        -0.4816    6.3309   -3.4626 H         1 <0>         0.0972
     28 H16        -0.6508    7.0260   -1.8156 H         1 <0>         0.0819
     29 H17        -1.3616    4.2007   -2.7779 H         1 <0>         0.0833
     30 H18        -2.3539    5.3192   -1.7932 H         1 <0>         0.0898
     31 H19        -2.3230    2.6851    2.4475 H         1 <0>         0.4456
     32 H20        -0.9399    2.8440    3.3573 H         1 <0>         0.4432
     33 N2         -1.4567    3.2092    2.5590 N.4       1 <0>        -0.6323
     34 H21        -1.6820    4.1965    2.7291 H         1 <0>         0.4434
@<TRIPOS>BOND
     1    1    2 1
     2    1   15 1
     3    1   16 1
     4    1   17 1
     5    2    3 1
     6    2   18 1
     7    2   19 1
     8    3    4 1
     9    3    5 1
    10    3    6 1
    11    5   20 1
    12    5   21 1
    13    5   22 1
    14    6    7 1
    15    6    8 1
    16    6   33 1
    17    8    9 2
    18    8   10 am
    19   10   14 1
    20   10   11 1
    21   11   12 1
    22   11   23 1
    23   11   24 1
    24   12   13 1
    25   12   25 1
    26   12   26 1
    27   13   14 1
    28   13   27 1
    29   13   28 1
    30   14   29 1
    31   14   30 1
    32   31   33 1
    33   32   33 1
    34   33   34 1
@<TRIPOS>MOLECULE
ZINC19434530
   34    34     0     0     0
SMALL
USER_CHARGES
(2R,3R)-2-amino-3-methyl-1-pyrrolidin-1-yl-pentan-1-one
@<TRIPOS>ATOM
      1 C1          0.5382    2.2643    0.1086 C.3       1 <0>        -0.1626
      2 C2         -0.4194    2.2510    1.3018 C.3       1 <0>        -0.1292
      3 C3          0.2936    1.6636    2.5215 C.3       1 <0>        -0.1039
      4 H1          0.6939    0.6705    2.2693 H         1 <0>         0.1061
      5 C4          1.4420    2.5864    2.9344 C.3       1 <0>        -0.1636
      6 C5         -0.6985    1.5346    3.6791 C.3       1 <0>         0.0239
      7 H2         -1.1015    2.5177    3.9638 H         1 <0>         0.1511
      8 C6         -0.0103    0.9049    4.8626 C.2       1 <0>         0.5135
      9 O1          0.1416   -0.2976    4.9067 O.2       1 <0>        -0.5207
     10 N1          0.4366    1.6779    5.8722 N.am      1 <0>        -0.5977
     11 C7          0.4109    3.1476    5.9020 C.3       1 <0>         0.0731
     12 C8          1.0450    3.5900    7.2375 C.3       1 <0>        -0.1367
     13 C9          1.9125    2.3651    7.6305 C.3       1 <0>        -0.1325
     14 C10         1.0378    1.1901    7.1268 C.3       1 <0>         0.1040
     15 N2         -1.8282    0.6922    3.2643 N.4       1 <0>        -0.6758
     16 H3          0.0256    2.6866   -0.7682 H         1 <0>         0.0700
     17 H4          0.8601    1.2364   -0.1146 H         1 <0>         0.0629
     18 H5          1.4174    2.8794    0.3509 H         1 <0>         0.0689
     19 H6         -0.7413    3.2789    1.5250 H         1 <0>         0.0831
     20 H7         -1.2986    1.6359    1.0596 H         1 <0>         0.0589
     21 H8          1.9546    2.1641    3.8113 H         1 <0>         0.0679
     22 H9          1.0418    3.5795    3.1866 H         1 <0>         0.0726
     23 H10         2.1552    2.6791    2.1021 H         1 <0>         0.0883
     24 H11         0.9868    3.5417    5.0517 H         1 <0>         0.0855
     25 H12        -0.6297    3.4976    5.8338 H         1 <0>         0.0754
     26 H13         1.6433    4.4989    7.0760 H         1 <0>         0.0929
     27 H14         0.2506    3.7991    7.9691 H         1 <0>         0.0842
     28 H15         2.8873    2.4288    7.1249 H         1 <0>         0.0843
     29 H16         2.0643    2.3577    8.7199 H         1 <0>         0.0981
     30 H17         0.2407    0.9397    7.8423 H         1 <0>         0.0830
     31 H18         1.6401    0.2931    6.9203 H         1 <0>         0.0897
     32 H19        -2.5414    0.5995    4.0966 H         1 <0>         0.4599
     33 H20        -1.4585   -0.3056    2.9853 H         1 <0>         0.4643
     34 H21        -2.3305    1.1519    2.4004 H         1 <0>         0.4610
@<TRIPOS>BOND
     1    1    2 1
     2    1   16 1
     3    1   17 1
     4    1   18 1
     5    2    3 1
     6    2   19 1
     7    2   20 1
     8    3    4 1
     9    3    5 1
    10    3    6 1
    11    5   21 1
    12    5   22 1
    13    5   23 1
    14    6    7 1
    15    6    8 1
    16    6   15 1
    17    8    9 2
    18    8   10 am
    19   10   14 1
    20   10   11 1
    21   11   12 1
    22   11   24 1
    23   11   25 1
    24   12   13 1
    25   12   26 1
    26   12   27 1
    27   13   14 1
    28   13   28 1
    29   13   29 1
    30   14   30 1
    31   14   31 1
    32   15   32 1
    33   15   33 1
    34   15   34 1
@<TRIPOS>MOLECULE
ZINC19434532
   34    34     0     0     0
SMALL
USER_CHARGES
(2R,3S)-2-amino-3-methyl-1-pyrrolidin-1-yl-pentan-1-one
@<TRIPOS>ATOM
      1 C1         -3.8953    2.6483    2.8325 C.3       1 <0>        -0.1622
      2 C2         -3.2835    2.7380    1.4331 C.3       1 <0>        -0.1301
      3 C3         -1.8920    2.1019    1.4431 C.3       1 <0>        -0.1082
      4 H1         -1.9618    1.0731    1.8261 H         1 <0>         0.1186
      5 C4         -0.9640    2.9193    2.3438 C.3       1 <0>        -0.1753
      6 C5         -1.3314    2.0792    0.0197 C.3       1 <0>         0.0252
      7 H2         -2.0343    1.5928   -0.6726 H         1 <0>         0.1559
      8 C6         -0.0162    1.3436    0.0094 C.2       1 <0>         0.5158
      9 O1          1.0258    1.9642    0.0028 O.2       1 <0>        -0.5271
     10 N1          0.0021   -0.0041    0.0020 N.am      1 <0>        -0.5972
     11 C7         -1.1808   -0.8771    0.0150 C.3       1 <0>         0.0806
     12 C8         -0.6744   -2.3348    0.0247 C.3       1 <0>        -0.1371
     13 C9          0.7616   -2.1978    0.5960 C.3       1 <0>        -0.1326
     14 C10         1.2115   -0.8469   -0.0141 C.3       1 <0>         0.1049
     15 N2         -1.1256    3.4567   -0.4475 N.4       1 <0>        -0.6745
     16 H3         -4.8957    3.1056    2.8253 H         1 <0>         0.0698
     17 H4         -3.2531    3.1824    3.5483 H         1 <0>         0.0651
     18 H5         -3.9769    1.5924    3.1300 H         1 <0>         0.0647
     19 H6         -3.9257    2.2039    0.7173 H         1 <0>         0.0808
     20 H7         -3.2019    3.7938    1.1356 H         1 <0>         0.0646
     21 H8          0.0364    2.4619    2.3509 H         1 <0>         0.0754
     22 H9         -1.3671    2.9355    3.3672 H         1 <0>         0.0935
     23 H10        -0.8941    3.9481    1.9609 H         1 <0>         0.0575
     24 H11        -1.7794   -0.6701    0.9144 H         1 <0>         0.0781
     25 H12        -1.7881   -0.6851   -0.8818 H         1 <0>         0.0780
     26 H13        -1.3285   -2.9459    0.6640 H         1 <0>         0.0931
     27 H14        -0.6866   -2.7340   -1.0002 H         1 <0>         0.0851
     28 H15         0.7193   -2.1854    1.6951 H         1 <0>         0.0840
     29 H16         1.3719   -3.0499    0.2622 H         1 <0>         0.0984
     30 H17         1.5627   -0.9645   -1.0499 H         1 <0>         0.0834
     31 H18         1.9988   -0.3700    0.5881 H         1 <0>         0.0892
     32 H19        -0.7226    3.4404   -1.4709 H         1 <0>         0.4616
     33 H20        -0.4146    3.9674    0.2186 H         1 <0>         0.4605
     34 H21        -2.0856    3.9937   -0.4400 H         1 <0>         0.4605
@<TRIPOS>BOND
     1    1    2 1
     2    1   16 1
     3    1   17 1
     4    1   18 1
     5    2    3 1
     6    2   19 1
     7    2   20 1
     8    3    4 1
     9    3    5 1
    10    3    6 1
    11    5   21 1
    12    5   22 1
    13    5   23 1
    14    6    7 1
    15    6    8 1
    16    6   15 1
    17    8    9 2
    18    8   10 am
    19   10   14 1
    20   10   11 1
    21   11   12 1
    22   11   24 1
    23   11   25 1
    24   12   13 1
    25   12   26 1
    26   12   27 1
    27   13   14 1
    28   13   28 1
    29   13   29 1
    30   14   30 1
    31   14   31 1
    32   15   32 1
    33   15   33 1
    34   15   34 1
@<TRIPOS>MOLECULE
ZINC13473901
   39    40     0     0     0
SMALL
USER_CHARGES
(2S)-1-[(2S)-2-amino-2-cyclohexyl-acetyl]pyrrolidine-2-carbonitrile
@<TRIPOS>ATOM
      1 C1          5.3317   -0.6522    5.3615 C.3       1 <0>        -0.1275
      2 C2          4.5993   -1.8718    4.7982 C.3       1 <0>        -0.1210
      3 C3          4.7068   -1.8713    3.2720 C.3       1 <0>        -0.1247
      4 C4          4.0731   -0.5943    2.7165 C.3       1 <0>        -0.1048
      5 C5          4.8055    0.6252    3.2798 C.3       1 <0>        -0.1305
      6 C6          4.6980    0.6247    4.8060 C.3       1 <0>        -0.1197
      7 C7          4.1806   -0.5938    1.1903 C.3       1 <0>         0.0205
      8 H1          3.6588   -1.4626    0.7890 H         1 <0>         0.1670
      9 C8          3.5564    0.6640    0.6432 C.2       1 <0>         0.5190
     10 O1          4.2588    1.5976    0.3179 O.2       1 <0>        -0.5107
     11 N1          2.2175    0.7513    0.5153 N.am      1 <0>        -0.5927
     12 C9          1.2500   -0.3030    0.8698 C.3       1 <0>         0.0824
     13 C10         0.0021   -0.0041    0.0020 C.3       1 <0>        -0.1307
     14 C11        -0.0190    1.5473    0.0105 C.3       1 <0>        -0.1258
     15 C12         1.4802    1.9134   -0.0018 C.3       1 <0>         0.2402
     16 H2          1.8000    2.1320   -1.0206 H         1 <0>         0.1319
     17 C13         1.7174    3.0815    0.8619 C.1       1 <0>         0.1781
     18 N2          1.9004    3.9830    1.5284 N.1       1 <0>        -0.3829
     19 H3          5.2551   -0.6526    6.4488 H         1 <0>         0.0753
     20 H4          6.3816   -0.6928    5.0712 H         1 <0>         0.0650
     21 H5          3.5495   -1.8312    5.0885 H         1 <0>         0.0731
     22 H6          5.0508   -2.7815    5.1940 H         1 <0>         0.0781
     23 H7          4.1851   -2.7401    2.8707 H         1 <0>         0.0841
     24 H8          5.7567   -1.9119    2.9817 H         1 <0>         0.0624
     25 H9          3.0232   -0.5537    3.0068 H         1 <0>         0.1233
     26 H10         5.8553    0.5846    2.9895 H         1 <0>         0.0630
     27 H11         4.3540    1.5350    2.8840 H         1 <0>         0.0774
     28 H12         3.6481    0.6653    5.0963 H         1 <0>         0.0710
     29 H13         5.2197    1.4936    5.2072 H         1 <0>         0.0760
     30 H14         0.9981   -0.2461    1.9288 H         1 <0>         0.0894
     31 H15         1.6541   -1.2858    0.6274 H         1 <0>         0.0921
     32 H16        -0.8994   -0.4096    0.4613 H         1 <0>         0.1048
     33 H17         0.1286   -0.3875   -1.0104 H         1 <0>         0.0923
     34 H18        -0.5170    1.9312   -0.8798 H         1 <0>         0.1111
     35 H19        -0.4999    1.9215    0.9143 H         1 <0>         0.0931
     36 H20         6.1013    0.1468    1.1593 H         1 <0>         0.4430
     37 H21         6.0204   -1.5132    1.0988 H         1 <0>         0.4443
     38 N3          5.5931   -0.6475    0.7739 N.4       1 <0>        -0.6320
     39 H22         5.6444   -0.6126   -0.2510 H         1 <0>         0.4456
@<TRIPOS>BOND
     1    1    6 1
     2    1    2 1
     3    1   19 1
     4    1   20 1
     5    2    3 1
     6    2   21 1
     7    2   22 1
     8    3    4 1
     9    3   23 1
    10    3   24 1
    11    4    5 1
    12    4    7 1
    13    4   25 1
    14    5    6 1
    15    5   26 1
    16    5   27 1
    17    6   28 1
    18    6   29 1
    19    7    8 1
    20    7    9 1
    21    7   38 1
    22    9   10 2
    23    9   11 am
    24   11   15 1
    25   11   12 1
    26   12   13 1
    27   12   30 1
    28   12   31 1
    29   13   14 1
    30   13   32 1
    31   13   33 1
    32   14   15 1
    33   14   34 1
    34   14   35 1
    35   15   16 1
    36   15   17 1
    37   17   18 3
    38   36   38 1
    39   37   38 1
    40   38   39 1
@<TRIPOS>MOLECULE
ZINC13829391
   38    39     0     0     0
SMALL
USER_CHARGES

@<TRIPOS>ATOM
      1 C1         -0.0170    1.3989    0.0097 C.ar      1 <0>         0.0165
      2 C2          1.1775    2.0684    0.0019 C.ar      1 <0>        -0.2364
      3 C3          2.3672    1.3437   -0.0133 C.ar      1 <0>         0.4186
      4 N1          2.3578    0.0178   -0.0204 N.ar      1 <0>        -0.5310
      5 C4          1.2318   -0.6650   -0.0133 C.ar      1 <0>         0.2105
      6 C5          0.0021   -0.0041    0.0020 C.ar      1 <0>        -0.1222
      7 C6         -1.2220   -0.7472    0.0102 C.1       1 <0>         0.2482
      8 N2         -2.1930   -1.3367    0.0167 N.1       1 <0>        -0.3982
      9 N3          3.5779    2.0182   -0.0217 N.pl3     1 <0>        -0.7209
     10 C7          3.6004    3.4830   -0.0146 C.3       1 <0>         0.1024
     11 C8          5.0504    3.9709   -0.0262 C.3       1 <0>        -0.0186
     12 N4          5.0729    5.4397   -0.0191 N.4       1 <0>        -0.4957
     13 C9          6.4652    5.9082   -0.0303 C.3       1 <0>        -0.0108
     14 C10         6.4883    7.4150   -0.0229 C.2       1 <0>         0.5409
     15 O1          5.4473    8.0375   -0.0096 O.2       1 <0>        -0.5057
     16 N5          7.6656    8.0710   -0.0311 N.am      1 <0>        -0.4592
     17 C11         7.8331    9.5337   -0.0194 C.3       1 <0>         0.2120
     18 H1          7.3835    9.9794   -0.9067 H         1 <0>         0.1490
     19 C12         9.3646    9.7143   -0.0364 C.3       1 <0>        -0.1452
     20 C13         9.8946    8.2983   -0.0560 C.2       1 <0>         0.1403
     21 N6          8.9261    7.4772   -0.0459 N.2       1 <0>        -0.2700
     22 C14         7.2518   10.1134    1.2024 C.1       1 <0>         0.1767
     23 N7          6.8031   10.5608    2.1453 N.1       1 <0>        -0.3664
     24 H2         -0.9524    1.9385    0.0260 H         1 <0>         0.1485
     25 H3          1.1971    3.1482    0.0072 H         1 <0>         0.1392
     26 H4          1.2598   -1.7447   -0.0197 H         1 <0>         0.1746
     27 H5          4.4104    1.5205   -0.0324 H         1 <0>         0.4155
     28 H6          3.0835    3.8586   -0.8977 H         1 <0>         0.0914
     29 H7          3.1008    3.8497    0.8822 H         1 <0>         0.0908
     30 H8          5.5673    3.5953    0.8569 H         1 <0>         0.1459
     31 H9          5.5499    3.6043   -0.9230 H         1 <0>         0.1469
     32 H10         4.5945    5.7874   -0.8365 H         1 <0>         0.4386
     33 H11         6.9820    5.5326    0.8528 H         1 <0>         0.1706
     34 H12         6.9647    5.5415   -0.9270 H         1 <0>         0.1733
     35 H13         9.6767   10.2523   -0.9315 H         1 <0>         0.1399
     36 H14         9.6985   10.2356    0.8608 H         1 <0>         0.1261
     37 H15        10.9397    8.0262   -0.0718 H         1 <0>         0.2256
     38 H16         4.6105    5.7791    0.8111 H         1 <0>         0.4383
@<TRIPOS>BOND
     1    1    6 ar
     2    1    2 ar
     3    1   24 1
     4    2    3 ar
     5    2   25 1
     6    3    4 ar
     7    3    9 1
     8    4    5 ar
     9    5    6 ar
    10    5   26 1
    11    6    7 1
    12    7    8 3
    13    9   10 1
    14    9   27 1
    15   10   11 1
    16   10   28 1
    17   10   29 1
    18   11   12 1
    19   11   30 1
    20   11   31 1
    21   12   13 1
    22   12   32 1
    23   12   38 1
    24   13   14 1
    25   13   33 1
    26   13   34 1
    27   14   15 2
    28   14   16 am
    29   16   21 1
    30   16   17 1
    31   17   18 1
    32   17   19 1
    33   17   22 1
    34   19   20 1
    35   19   35 1
    36   19   36 1
    37   20   21 2
    38   20   37 1
    39   22   23 3
@<TRIPOS>MOLECULE
ZINC13829393
   38    39     0     0     0
SMALL
USER_CHARGES

@<TRIPOS>ATOM
      1 C1         -0.0170    1.3989    0.0097 C.ar      1 <0>         0.0165
      2 C2          1.1775    2.0684    0.0019 C.ar      1 <0>        -0.2364
      3 C3          2.3672    1.3437   -0.0133 C.ar      1 <0>         0.4186
      4 N1          2.3578    0.0178   -0.0204 N.ar      1 <0>        -0.5310
      5 C4          1.2318   -0.6650   -0.0133 C.ar      1 <0>         0.2105
      6 C5          0.0021   -0.0041    0.0020 C.ar      1 <0>        -0.1222
      7 C6         -1.2220   -0.7472    0.0102 C.1       1 <0>         0.2482
      8 N2         -2.1930   -1.3367    0.0167 N.1       1 <0>        -0.3982
      9 N3          3.5779    2.0182   -0.0217 N.pl3     1 <0>        -0.7208
     10 C7          3.6004    3.4830   -0.0146 C.3       1 <0>         0.1024
     11 C8          5.0504    3.9709   -0.0262 C.3       1 <0>        -0.0186
     12 N4          5.0729    5.4397   -0.0191 N.4       1 <0>        -0.4957
     13 C9          6.4652    5.9082   -0.0303 C.3       1 <0>        -0.0108
     14 C10         6.4883    7.4150   -0.0229 C.2       1 <0>         0.5409
     15 O1          5.4473    8.0375   -0.0096 O.2       1 <0>        -0.5058
     16 N5          7.6656    8.0710   -0.0311 N.am      1 <0>        -0.4593
     17 C11         7.8331    9.5337   -0.0194 C.3       1 <0>         0.2121
     18 H1          7.4053    9.9627    0.8867 H         1 <0>         0.1487
     19 C12         9.3646    9.7143   -0.0364 C.3       1 <0>        -0.1452
     20 C13         9.8946    8.2983   -0.0560 C.2       1 <0>         0.1403
     21 N6          8.9261    7.4772   -0.0459 N.2       1 <0>        -0.2699
     22 C14         7.2224   10.1360   -1.2157 C.1       1 <0>         0.1769
     23 N7          6.7511   10.6008   -2.1389 N.1       1 <0>        -0.3663
     24 H2         -0.9524    1.9385    0.0260 H         1 <0>         0.1485
     25 H3          1.1971    3.1482    0.0072 H         1 <0>         0.1392
     26 H4          1.2598   -1.7447   -0.0197 H         1 <0>         0.1746
     27 H5          4.4104    1.5205   -0.0324 H         1 <0>         0.4155
     28 H6          3.0835    3.8586   -0.8977 H         1 <0>         0.0908
     29 H7          3.1008    3.8497    0.8822 H         1 <0>         0.0914
     30 H8          5.5673    3.5953    0.8569 H         1 <0>         0.1469
     31 H9          5.5499    3.6043   -0.9230 H         1 <0>         0.1459
     32 H10         4.5945    5.7874   -0.8365 H         1 <0>         0.4382
     33 H11         6.9820    5.5326    0.8528 H         1 <0>         0.1732
     34 H12         6.9647    5.5415   -0.9270 H         1 <0>         0.1706
     35 H13         9.6767   10.2523   -0.9315 H         1 <0>         0.1260
     36 H14         9.6985   10.2356    0.8608 H         1 <0>         0.1400
     37 H15        10.9397    8.0262   -0.0718 H         1 <0>         0.2256
     38 H16         4.6105    5.7791    0.8111 H         1 <0>         0.4387
@<TRIPOS>BOND
     1    1    6 ar
     2    1    2 ar
     3    1   24 1
     4    2    3 ar
     5    2   25 1
     6    3    4 ar
     7    3    9 1
     8    4    5 ar
     9    5    6 ar
    10    5   26 1
    11    6    7 1
    12    7    8 3
    13    9   10 1
    14    9   27 1
    15   10   11 1
    16   10   28 1
    17   10   29 1
    18   11   12 1
    19   11   30 1
    20   11   31 1
    21   12   13 1
    22   12   32 1
    23   12   38 1
    24   13   14 1
    25   13   33 1
    26   13   34 1
    27   14   15 2
    28   14   16 am
    29   16   21 1
    30   16   17 1
    31   17   18 1
    32   17   19 1
    33   17   22 1
    34   19   20 1
    35   19   35 1
    36   19   36 1
    37   20   21 2
    38   20   37 1
    39   22   23 3
@<TRIPOS>MOLECULE
ZINC00008765
   40    41     0     0     0
SMALL
USER_CHARGES
ethyl 1-(aminomethyl)-6,8-dimethoxy-isoquinoline-4-carboxylate
@<TRIPOS>ATOM
      1 C1          8.5751   -0.8845    0.0532 C.3       1 <0>        -0.1558
      2 C2          7.3880    0.0793   -0.0003 C.3       1 <0>         0.0644
      3 O1          6.1491   -0.6779    0.0068 O.3       1 <0>        -0.3506
      4 C3          5.0008    0.0268   -0.0369 C.2       1 <0>         0.5139
      5 O2          5.0343    1.2411   -0.0798 O.2       1 <0>        -0.4848
      6 C4          3.7068   -0.6738   -0.0327 C.ar      1 <0>        -0.1430
      7 C5          3.6395   -2.0623    0.0159 C.ar      1 <0>         0.1657
      8 N1          2.4782   -2.6925    0.0188 N.ar      1 <0>        -0.4774
      9 C6          1.3165   -2.0808   -0.0222 C.ar      1 <0>         0.1567
     10 C7          1.2380   -0.6842   -0.0735 C.ar      1 <0>        -0.1541
     11 C8          2.4437    0.0656   -0.0800 C.ar      1 <0>         0.0795
     12 C9          2.3967    1.4574   -0.1301 C.ar      1 <0>        -0.1861
     13 C10         1.1712    2.0944   -0.1748 C.ar      1 <0>         0.2085
     14 C11        -0.0158    1.3597   -0.1686 C.ar      1 <0>        -0.2698
     15 C12         0.0025   -0.0059   -0.1190 C.ar      1 <0>         0.1754
     16 O3         -1.1607   -0.7047   -0.1132 O.3       1 <0>        -0.3360
     17 C13        -2.3722    0.0518   -0.1607 C.3       1 <0>         0.0109
     18 O4          1.1210    3.4502   -0.2250 O.3       1 <0>        -0.2948
     19 C14        -0.1752    4.0502   -0.2693 C.3       1 <0>         0.0182
     20 C15         0.0486   -2.8953   -0.0145 C.3       1 <0>         0.0540
     21 H1          9.5051   -0.3161    0.0479 H         1 <0>         0.0872
     22 H2          8.5186   -1.4802    0.9643 H         1 <0>         0.0696
     23 H3          8.5472   -1.5438   -0.8143 H         1 <0>         0.0691
     24 H4          7.4445    0.6750   -0.9114 H         1 <0>         0.0768
     25 H5          7.4158    0.7386    0.8672 H         1 <0>         0.0771
     26 H6          4.5538   -2.6361    0.0515 H         1 <0>         0.1876
     27 H7          3.3103    2.0333   -0.1354 H         1 <0>         0.1808
     28 H8         -0.9625    1.8780   -0.2080 H         1 <0>         0.1526
     29 H9         -3.2250   -0.6270   -0.1504 H         1 <0>         0.1176
     30 H10        -2.4226    0.7118    0.7054 H         1 <0>         0.0727
     31 H11        -2.3930    0.6476   -1.0732 H         1 <0>         0.0702
     32 H12        -0.7363    3.7691    0.6220 H         1 <0>         0.0628
     33 H13        -0.0724    5.1347   -0.3070 H         1 <0>         0.1154
     34 H14        -0.7055    3.7044   -1.1566 H         1 <0>         0.0619
     35 H15         0.2504   -3.8778    0.4122 H         1 <0>         0.1562
     36 H16        -0.7063   -2.3868    0.5852 H         1 <0>         0.1657
     37 H17         0.2645   -3.4613   -1.9821 H         1 <0>         0.4380
     38 H18        -1.2922   -3.5935   -1.4121 H         1 <0>         0.4443
     39 N2         -0.4463   -3.0262   -1.3963 N.4       1 <0>        -0.6364
     40 H19        -0.6614   -2.0934   -1.7676 H         1 <0>         0.4361
@<TRIPOS>BOND
     1    1    2 1
     2    1   21 1
     3    1   22 1
     4    1   23 1
     5    2    3 1
     6    2   24 1
     7    2   25 1
     8    3    4 1
     9    4    5 2
    10    4    6 1
    11    6   11 ar
    12    6    7 ar
    13    7    8 ar
    14    7   26 1
    15    8    9 ar
    16    9   10 ar
    17    9   20 1
    18   10   15 ar
    19   10   11 ar
    20   11   12 ar
    21   12   13 ar
    22   12   27 1
    23   13   14 ar
    24   13   18 1
    25   14   15 ar
    26   14   28 1
    27   15   16 1
    28   16   17 1
    29   17   29 1
    30   17   30 1
    31   17   31 1
    32   18   19 1
    33   19   32 1
    34   19   33 1
    35   19   34 1
    36   20   35 1
    37   20   36 1
    38   20   39 1
    39   37   39 1
    40   38   39 1
    41   39   40 1
@<TRIPOS>MOLECULE
ZINC14948119
   32    32     0     0     0
SMALL
USER_CHARGES
(2S,3R)-2-amino-3-methyl-1-thiazolidin-3-yl-pentan-1-one
@<TRIPOS>ATOM
      1 C1          2.1873   -0.0730   -1.2073 C.3       1 <0>        -0.1599
      2 C2          0.7182   -0.4975   -1.2568 C.3       1 <0>        -0.1331
      3 C3          0.0021   -0.0041    0.0020 C.3       1 <0>        -0.1121
      4 H1          0.5293   -0.3651    0.8851 H         1 <0>         0.1225
      5 C4         -0.0187    1.5258    0.0104 C.3       1 <0>        -0.1738
      6 C5         -1.4333   -0.5336    0.0129 C.3       1 <0>         0.0155
      7 H2         -1.4185   -1.6235    0.0069 H         1 <0>         0.1640
      8 C6         -2.1387   -0.0476    1.2528 C.2       1 <0>         0.5182
      9 O1         -2.8888    0.9033    1.1903 O.2       1 <0>        -0.5118
     10 N1         -1.9360   -0.6698    2.4310 N.am      1 <0>        -0.5951
     11 C7         -2.5924   -0.2318    3.6595 C.3       1 <0>         0.0918
     12 C8         -2.8576   -1.4442    4.6046 C.3       1 <0>        -0.0738
     13 S1         -1.2853   -2.3691    4.3008 S.3       1 <0>        -0.2361
     14 C9         -1.0329   -1.8297    2.5567 C.3       1 <0>         0.1248
     15 H3          2.2499    1.0140   -1.1561 H         1 <0>         0.0657
     16 H4          2.6611   -0.5061   -0.3263 H         1 <0>         0.0661
     17 H5          2.6975   -0.4246   -2.1040 H         1 <0>         0.0708
     18 H6          0.6556   -1.5845   -1.3079 H         1 <0>         0.0833
     19 H7          0.2444   -0.0644   -2.1377 H         1 <0>         0.0647
     20 H8          1.0039    1.9031    0.0027 H         1 <0>         0.0940
     21 H9         -0.5459    1.8868   -0.8726 H         1 <0>         0.0583
     22 H10        -0.5289    1.8773    0.9072 H         1 <0>         0.0744
     23 H11        -1.9552    0.4913    4.1686 H         1 <0>         0.0967
     24 H12        -3.5416    0.2422    3.4097 H         1 <0>         0.1115
     25 H13        -3.7285   -2.0192    4.2902 H         1 <0>         0.1092
     26 H14        -2.9435   -1.1297    5.6447 H         1 <0>         0.1390
     27 H15        -1.3221   -2.6197    1.8636 H         1 <0>         0.1082
     28 H16         0.0021   -1.5319    2.3889 H         1 <0>         0.1155
     29 H17        -3.0739   -0.4349   -1.2269 H         1 <0>         0.4431
     30 H18        -2.1712    0.9615   -1.1949 H         1 <0>         0.4434
     31 N2         -2.1288   -0.0563   -1.1954 N.4       1 <0>        -0.6309
     32 H19        -1.6144   -0.3698   -2.0269 H         1 <0>         0.4459
@<TRIPOS>BOND
     1    1    2 1
     2    1   15 1
     3    1   16 1
     4    1   17 1
     5    2    3 1
     6    2   18 1
     7    2   19 1
     8    3    4 1
     9    3    5 1
    10    3    6 1
    11    5   20 1
    12    5   21 1
    13    5   22 1
    14    6    7 1
    15    6    8 1
    16    6   31 1
    17    8    9 2
    18    8   10 am
    19   10   14 1
    20   10   11 1
    21   11   12 1
    22   11   23 1
    23   11   24 1
    24   12   13 1
    25   12   25 1
    26   12   26 1
    27   13   14 1
    28   14   27 1
    29   14   28 1
    30   29   31 1
    31   30   31 1
    32   31   32 1
@<TRIPOS>MOLECULE
ZINC05764214
   28    29     0     0     0
SMALL
USER_CHARGES
[2-(2-chlorophenyl)phenyl]methanamine
@<TRIPOS>ATOM
      1 C1         -1.8783    5.0951   -0.5252 C.ar      1 <0>        -0.1088
      2 C2         -0.7904    5.8048   -1.0014 C.ar      1 <0>        -0.0802
      3 C3          0.3006    5.1360   -1.5179 C.ar      1 <0>        -0.0952
      4 C4          0.3051    3.7430   -1.5593 C.ar      1 <0>        -0.0231
      5 C5         -0.7931    3.0333   -1.0784 C.ar      1 <0>        -0.1496
      6 C6         -1.8815    3.7127   -0.5691 C.ar      1 <0>        -0.0848
      7 C7         -0.7955    1.5269   -1.1198 C.3       1 <0>         0.0344
      8 C8          1.4755    3.0183   -2.1130 C.ar      1 <0>        -0.0750
      9 C9          2.7112    3.0933   -1.4734 C.ar      1 <0>        -0.1028
     10 C10         3.7965    2.4174   -1.9927 C.ar      1 <0>        -0.1047
     11 C11         3.6601    1.6660   -3.1464 C.ar      1 <0>        -0.0914
     12 C12         2.4367    1.5873   -3.7860 C.ar      1 <0>        -0.1012
     13 C13         1.3417    2.2551   -3.2722 C.ar      1 <0>        -0.0407
     14 Cl1        -0.1956    2.1495   -4.0716 Cl        1 <0>        -0.0457
     15 H1         -2.7300    5.6225   -0.1218 H         1 <0>         0.1386
     16 H2         -0.7951    6.8843   -0.9691 H         1 <0>         0.1394
     17 H3          1.1492    5.6911   -1.8896 H         1 <0>         0.1366
     18 H4         -2.7352    3.1637   -0.2002 H         1 <0>         0.1363
     19 H5         -0.3538    1.1885   -2.0571 H         1 <0>         0.1407
     20 H6         -1.8205    1.1631   -1.0490 H         1 <0>         0.1422
     21 H7          0.0021   -0.0041    0.0020 H         1 <0>         0.4395
     22 H8          0.9253    1.3792    0.0006 H         1 <0>         0.4323
     23 H9          2.8194    3.6792   -0.5726 H         1 <0>         0.1402
     24 H10         4.7544    2.4749   -1.4973 H         1 <0>         0.1409
     25 H11         4.5123    1.1386   -3.5487 H         1 <0>         0.1429
     26 H12         2.3358    0.9990   -4.6861 H         1 <0>         0.1441
     27 N1         -0.0252    1.0139    0.0269 N.4       1 <0>        -0.6438
     28 H13        -0.4761    1.3157    0.8986 H         1 <0>         0.4389
@<TRIPOS>BOND
     1    1    6 ar
     2    1    2 ar
     3    1   15 1
     4    2    3 ar
     5    2   16 1
     6    3    4 ar
     7    3   17 1
     8    4    5 ar
     9    4    8 1
    10    5    6 ar
    11    5    7 1
    12    6   18 1
    13    7   19 1
    14    7   20 1
    15    7   27 1
    16    8   13 ar
    17    8    9 ar
    18    9   10 ar
    19    9   23 1
    20   10   11 ar
    21   10   24 1
    22   11   12 ar
    23   11   25 1
    24   12   13 ar
    25   12   26 1
    26   13   14 1
    27   21   27 1
    28   22   27 1
    29   27   28 1
@<TRIPOS>MOLECULE
ZINC04899477
   55    55     0     0     0
SMALL
USER_CHARGES

@<TRIPOS>ATOM
      1 C1          0.4931    1.2701    0.6104 C.3       1 <0>        -0.1590
      2 C2          0.2527   -0.1700    0.1529 C.3       1 <0>        -0.1284
      3 C3          1.1955   -0.5012   -1.0057 C.3       1 <0>        -0.1026
      4 H1          2.2246   -0.3073   -0.7035 H         1 <0>         0.1072
      5 C4          0.8456    0.3709   -2.2132 C.3       1 <0>        -0.1638
      6 C5          1.0435   -1.9767   -1.3811 C.3       1 <0>         0.0139
      7 H2          0.0326   -2.1562   -1.7470 H         1 <0>         0.1571
      8 C6          2.0372   -2.3257   -2.4589 C.2       1 <0>         0.5236
      9 O1          3.1731   -2.6293   -2.1612 O.2       1 <0>        -0.5083
     10 N1          1.6637   -2.3006   -3.7536 N.am      1 <0>        -0.5755
     11 C7          0.2975   -2.0525   -4.2491 C.3       1 <0>         0.0804
     12 C8          0.4894   -1.5180   -5.6903 C.3       1 <0>        -0.1318
     13 C9          1.6929   -2.3662   -6.1796 C.3       1 <0>        -0.1275
     14 C10         2.5524   -2.5096   -4.9060 C.3       1 <0>         0.1181
     15 H3          2.9853   -3.5091   -4.8639 H         1 <0>         0.1044
     16 C11         3.6468   -1.4735   -4.9039 C.2       1 <0>         0.5110
     17 O2          3.6879   -0.6367   -4.0270 O.2       1 <0>        -0.5375
     18 N2          4.5799   -1.4769   -5.8764 N.am      1 <0>        -0.6865
     19 C12         5.6438   -0.4698   -5.8743 C.3       1 <0>         0.0770
     20 H4          5.9252   -0.2407   -4.8465 H         1 <0>         0.0777
     21 C13         6.8603   -1.0114   -6.6276 C.3       1 <0>        -0.0765
     22 H5          7.1627   -1.9639   -6.1923 H         1 <0>         0.0553
     23 C14         6.4990   -1.2154   -8.1002 C.3       1 <0>        -0.1443
     24 C15         8.0138   -0.0121   -6.5192 C.3       1 <0>        -0.1221
     25 C16         9.2667   -0.6074   -7.1646 C.3       1 <0>        -0.1491
     26 C17         5.1507    0.7831   -6.5512 C.2       1 <0>         0.4978
     27 O3          4.0158    0.8304   -6.9943 O.co2     1 <0>        -0.6900
     28 O4          5.8867    1.7495   -6.6557 O.co2     1 <0>        -0.6859
     29 N3          1.2914   -2.8110   -0.1977 N.4       1 <0>        -0.6225
     30 H6          1.5263    1.3788    0.9402 H         1 <0>         0.0624
     31 H7          0.3029    1.9513   -0.2190 H         1 <0>         0.0702
     32 H8         -0.1785    1.5060    1.4358 H         1 <0>         0.0656
     33 H9          0.4429   -0.8512    0.9822 H         1 <0>         0.0539
     34 H10        -0.7805   -0.2787   -0.1770 H         1 <0>         0.0811
     35 H11        -0.2122    0.2563   -2.4499 H         1 <0>         0.0653
     36 H12         1.0547    1.4149   -1.9801 H         1 <0>         0.0840
     37 H13         1.4451    0.0627   -3.0698 H         1 <0>         0.0888
     38 H14        -0.2756   -2.9796   -4.2614 H         1 <0>         0.0831
     39 H15        -0.2005   -1.3058   -3.6306 H         1 <0>         0.0847
     40 H16        -0.3952   -1.7077   -6.2983 H         1 <0>         0.0955
     41 H17         0.7366   -0.4564   -5.6836 H         1 <0>         0.0913
     42 H18         1.3586   -3.3408   -6.5353 H         1 <0>         0.0890
     43 H19         2.2452   -1.8392   -6.9575 H         1 <0>         0.1067
     44 H20         4.5471   -2.1462   -6.5777 H         1 <0>         0.3901
     45 H21         7.3657   -1.6013   -8.6369 H         1 <0>         0.0526
     46 H22         5.6773   -1.9274   -8.1775 H         1 <0>         0.0418
     47 H23         6.1966   -0.2630   -8.5355 H         1 <0>         0.0668
     48 H24         7.7443    0.9110   -7.0325 H         1 <0>         0.1012
     49 H25         8.2124    0.2010   -5.4688 H         1 <0>         0.0522
     50 H26         9.5363   -1.5304   -6.6513 H         1 <0>         0.0427
     51 H27         9.0681   -0.8205   -8.2150 H         1 <0>         0.0525
     52 H28        10.0885    0.1046   -7.0874 H         1 <0>         0.0500
     53 H29         2.2272   -2.6448    0.1410 H         1 <0>         0.4428
     54 H30         0.6260   -2.5773    0.5240 H         1 <0>         0.4374
     55 H31         1.1911   -3.7840   -0.4452 H         1 <0>         0.4362
@<TRIPOS>BOND
     1    1    2 1
     2    1   30 1
     3    1   31 1
     4    1   32 1
     5    2    3 1
     6    2   33 1
     7    2   34 1
     8    3    4 1
     9    3    5 1
    10    3    6 1
    11    5   35 1
    12    5   36 1
    13    5   37 1
    14    6    7 1
    15    6    8 1
    16    6   29 1
    17    8    9 2
    18    8   10 am
    19   10   14 1
    20   10   11 1
    21   11   12 1
    22   11   38 1
    23   11   39 1
    24   12   13 1
    25   12   40 1
    26   12   41 1
    27   13   14 1
    28   13   42 1
    29   13   43 1
    30   14   15 1
    31   14   16 1
    32   16   17 2
    33   16   18 am
    34   18   19 1
    35   18   44 1
    36   19   20 1
    37   19   21 1
    38   19   26 1
    39   21   22 1
    40   21   23 1
    41   21   24 1
    42   23   45 1
    43   23   46 1
    44   23   47 1
    45   24   25 1
    46   24   48 1
    47   24   49 1
    48   25   50 1
    49   25   51 1
    50   25   52 1
    51   26   27 2
    52   26   28 1
    53   29   53 1
    54   29   54 1
    55   29   55 1
@<TRIPOS>MOLECULE
ZINC14958767
   39    41     0     0     0
SMALL
USER_CHARGES
(4R,5R)-5-amino-4-(2-chlorophenyl)-1-phenyl-piperidin-2-one
@<TRIPOS>ATOM
      1 C1          7.2964    8.9336    0.0052 C.ar      1 <0>        -0.1007
      2 C2          6.0461    9.2537   -0.4911 C.ar      1 <0>        -0.1087
      3 C3          5.0358    8.3120   -0.4814 C.ar      1 <0>        -0.1055
      4 C4          5.2767    7.0426    0.0277 C.ar      1 <0>         0.1104
      5 C5          6.5318    6.7261    0.5306 C.ar      1 <0>        -0.1033
      6 C6          7.5396    7.6703    0.5123 C.ar      1 <0>        -0.1081
      7 N1          4.2553    6.0863    0.0390 N.am      1 <0>        -0.5603
      8 C7          3.4044    6.0096    1.2199 C.3       1 <0>         0.1004
      9 C8          2.0993    5.2826    0.8935 C.3       1 <0>         0.0225
     10 H1          1.4934    5.8996    0.2299 H         1 <0>         0.1595
     11 C9          2.4359    3.9575    0.1990 C.3       1 <0>        -0.0721
     12 H2          3.1554    3.4009    0.7995 H         1 <0>         0.1210
     13 C10         3.0406    4.2690   -1.1722 C.3       1 <0>        -0.1172
     14 C11         4.1216    5.3020   -1.0312 C.2       1 <0>         0.5109
     15 O1          4.9152    5.4300   -1.9394 O.2       1 <0>        -0.4976
     16 C12         1.1805    3.1419    0.0264 C.ar      1 <0>        -0.1316
     17 C13         0.1218    3.6486   -0.7037 C.ar      1 <0>        -0.1050
     18 C14        -1.0300    2.9010   -0.8613 C.ar      1 <0>        -0.1019
     19 C15        -1.1217    1.6434   -0.2940 C.ar      1 <0>        -0.0829
     20 C16        -0.0659    1.1379    0.4405 C.ar      1 <0>        -0.0982
     21 C17         1.0873    1.8861    0.5990 C.ar      1 <0>        -0.0329
     22 Cl1         2.4167    1.2488    1.5156 Cl        1 <0>        -0.0495
     23 H3          8.0848    9.6717   -0.0036 H         1 <0>         0.1324
     24 H4          5.8595   10.2409   -0.8872 H         1 <0>         0.1327
     25 H5          4.0596    8.5625   -0.8695 H         1 <0>         0.1233
     26 H6          6.7210    5.7412    0.9313 H         1 <0>         0.1239
     27 H7          8.5173    7.4232    0.8989 H         1 <0>         0.1328
     28 H8          3.9297    5.4700    2.0080 H         1 <0>         0.0916
     29 H9          3.1751    7.0178    1.5649 H         1 <0>         0.1084
     30 H10         3.4632    3.3585   -1.5969 H         1 <0>         0.1282
     31 H11         2.2617    4.6481   -1.8338 H         1 <0>         0.1185
     32 H12         0.1945    4.6291   -1.1508 H         1 <0>         0.1386
     33 H13        -1.8570    3.2974   -1.4319 H         1 <0>         0.1418
     34 H14        -2.0201    1.0578   -0.4216 H         1 <0>         0.1446
     35 H15        -0.1392    0.1573    0.8870 H         1 <0>         0.1456
     36 H16         1.1273    5.8741    2.6092 H         1 <0>         0.4441
     37 H17         0.5324    4.4673    1.9513 H         1 <0>         0.4425
     38 N2          1.3774    5.0015    2.1470 N.4       1 <0>        -0.6387
     39 H18         1.9831    4.4541    2.7698 H         1 <0>         0.4404
@<TRIPOS>BOND
     1    1    6 ar
     2    1    2 ar
     3    1   23 1
     4    2    3 ar
     5    2   24 1
     6    3    4 ar
     7    3   25 1
     8    4    5 ar
     9    4    7 1
    10    5    6 ar
    11    5   26 1
    12    6   27 1
    13    7   14 am
    14    7    8 1
    15    8    9 1
    16    8   28 1
    17    8   29 1
    18    9   10 1
    19    9   11 1
    20    9   38 1
    21   11   12 1
    22   11   13 1
    23   11   16 1
    24   13   14 1
    25   13   30 1
    26   13   31 1
    27   14   15 2
    28   16   21 ar
    29   16   17 ar
    30   17   18 ar
    31   17   32 1
    32   18   19 ar
    33   18   33 1
    34   19   20 ar
    35   19   34 1
    36   20   21 ar
    37   20   35 1
    38   21   22 1
    39   36   38 1
    40   37   38 1
    41   38   39 1
@<TRIPOS>MOLECULE
ZINC06716417
   49    52     0     0     0
SMALL
USER_CHARGES
2-[[2-(3-amino-1-piperidyl)-4-oxo-quinazolin-3-yl]methyl]benzonitrile
@<TRIPOS>ATOM
      1 C1         -0.8309    4.3925    3.6362 C.ar      1 <0>        -0.1049
      2 C2          0.3031    4.7519    4.3433 C.ar      1 <0>        -0.1039
      3 C3          1.5386    4.7266    3.7307 C.ar      1 <0>        -0.0750
      4 C4          1.6443    4.3312    2.3955 C.ar      1 <0>         0.0081
      5 C5          0.4955    3.9754    1.6864 C.ar      1 <0>        -0.0742
      6 C6         -0.7341    4.0057    2.3115 C.ar      1 <0>        -0.0929
      7 C7          0.5990    3.5534    0.2435 C.3       1 <0>         0.1300
      8 N1          0.8841    2.1181    0.1737 N.am      1 <0>        -0.5271
      9 C8          2.1586    1.6944    0.0086 C.2       1 <0>         0.5456
     10 O1          3.0796    2.4850   -0.0839 O.2       1 <0>        -0.4746
     11 C9          2.3898    0.2449   -0.0555 C.ar      1 <0>        -0.1942
     12 C10         3.6655   -0.2914   -0.2241 C.ar      1 <0>        -0.0374
     13 C11         3.8239   -1.6488   -0.2775 C.ar      1 <0>        -0.1303
     14 C12         2.7291   -2.4961   -0.1657 C.ar      1 <0>        -0.0669
     15 C13         1.4679   -1.9972    0.0001 C.ar      1 <0>        -0.1121
     16 C14         1.2733   -0.6143    0.0586 C.ar      1 <0>         0.1584
     17 N2          0.0416   -0.0764    0.2214 N.2       1 <0>        -0.5485
     18 C15        -0.1378    1.2196    0.2754 C.2       1 <0>         0.5604
     19 N3         -1.4142    1.6967    0.4362 N.pl3     1 <0>        -0.4778
     20 C16        -1.9854    2.1154   -0.8502 C.3       1 <0>         0.0398
     21 C17        -3.3467    2.7739   -0.6152 C.3       1 <0>        -0.1132
     22 C18        -4.2784    1.7755    0.0774 C.3       1 <0>        -0.1434
     23 C19        -3.6381    1.3185    1.3911 C.3       1 <0>         0.0272
     24 H1         -3.5173    2.1750    2.0543 H         1 <0>         0.1511
     25 C20        -2.2683    0.7022    1.0979 C.3       1 <0>         0.0492
     26 C21         2.9246    4.2965    1.7549 C.1       1 <0>         0.2093
     27 N4          3.9402    4.2690    1.2467 N.1       1 <0>        -0.3510
     28 H2         -1.7958    4.4137    4.1209 H         1 <0>         0.1300
     29 H3          0.2205    5.0525    5.3773 H         1 <0>         0.1370
     30 H4          2.4227    5.0077    4.2836 H         1 <0>         0.1373
     31 H5         -1.6231    3.7264    1.7655 H         1 <0>         0.1362
     32 H6          1.4034    4.1075   -0.2404 H         1 <0>         0.1097
     33 H7         -0.3426    3.7619   -0.2645 H         1 <0>         0.1105
     34 H8          4.5223    0.3602   -0.3122 H         1 <0>         0.1404
     35 H9          4.8113   -2.0664   -0.4077 H         1 <0>         0.1380
     36 H10         2.8768   -3.5650   -0.2106 H         1 <0>         0.1381
     37 H11         0.6256   -2.6679    0.0853 H         1 <0>         0.1376
     38 H12        -1.3152    2.8284   -1.3304 H         1 <0>         0.1007
     39 H13        -2.1096    1.2441   -1.4933 H         1 <0>         0.0701
     40 H14        -3.7775    3.0705   -1.5715 H         1 <0>         0.1038
     41 H15        -3.2214    3.6533    0.0165 H         1 <0>         0.0911
     42 H16        -4.4350    0.9133   -0.5708 H         1 <0>         0.0907
     43 H17        -5.2352    2.2543    0.2858 H         1 <0>         0.0985
     44 H18        -2.3912   -0.1625    0.4457 H         1 <0>         0.0896
     45 H19        -1.8035    0.3887    2.0327 H         1 <0>         0.1075
     46 H20        -5.4096    0.7005    2.2385 H         1 <0>         0.4432
     47 H21        -4.5748   -0.5133    1.4667 H         1 <0>         0.4371
     48 N5         -4.4855    0.3129    2.0559 N.4       1 <0>        -0.6420
     49 H22        -4.0531    0.0434    2.9474 H         1 <0>         0.4434
@<TRIPOS>BOND
     1    1    6 ar
     2    1    2 ar
     3    1   28 1
     4    2    3 ar
     5    2   29 1
     6    3    4 ar
     7    3   30 1
     8    4    5 ar
     9    4   26 1
    10    5    6 ar
    11    5    7 1
    12    6   31 1
    13    7    8 1
    14    7   32 1
    15    7   33 1
    16    8   18 1
    17    8    9 am
    18    9   10 2
    19    9   11 1
    20   11   16 ar
    21   11   12 ar
    22   12   13 ar
    23   12   34 1
    24   13   14 ar
    25   13   35 1
    26   14   15 ar
    27   14   36 1
    28   15   16 ar
    29   15   37 1
    30   16   17 1
    31   17   18 2
    32   18   19 1
    33   19   25 1
    34   19   20 1
    35   20   21 1
    36   20   38 1
    37   20   39 1
    38   21   22 1
    39   21   40 1
    40   21   41 1
    41   22   23 1
    42   22   42 1
    43   22   43 1
    44   23   24 1
    45   23   25 1
    46   23   48 1
    47   25   44 1
    48   25   45 1
    49   26   27 3
    50   46   48 1
    51   47   48 1
    52   48   49 1
@<TRIPOS>MOLECULE
ZINC00044054
   46    49     0     0     0
SMALL
USER_CHARGES

@<TRIPOS>ATOM
      1 C1          0.1638    1.3069   -0.4522 C.3       1 <0>         0.0848
      2 N1          0.0521   -0.1506   -0.5489 N.am      1 <0>        -0.5112
      3 C2         -1.1627   -0.7697   -0.3014 C.2       1 <0>         0.3333
      4 C3         -1.2413   -2.1546   -0.4006 C.2       1 <0>        -0.1314
      5 C4         -0.0908   -2.8845   -0.7480 C.2       1 <0>         0.5958
      6 O1         -0.1366   -4.0988   -0.8411 O.2       1 <0>        -0.5055
      7 N2          1.0642   -2.2264   -0.9778 N.am      1 <0>        -0.6489
      8 H1          1.8597   -2.7270   -1.2177 H         1 <0>         0.4442
      9 C5          1.1284   -0.8870   -0.8835 C.2       1 <0>         0.7102
     10 O2          2.1855   -0.3270   -1.1019 O.2       1 <0>        -0.5213
     11 N3         -2.5547   -2.4938   -0.1042 N.pl3     1 <0>        -0.3987
     12 C6         -3.2095   -1.3317    0.1575 C.2       1 <0>         0.4983
     13 N4         -2.3726   -0.3212    0.0367 N.2       1 <0>        -0.4834
     14 N5         -4.5392   -1.2270    0.4954 N.pl3     1 <0>        -0.6254
     15 C7         -4.9552   -1.1074    1.9014 C.3       1 <0>         0.1162
     16 C8         -5.9095    0.0848    2.0258 C.3       1 <0>        -0.0219
     17 N6         -7.0187   -0.0762    1.0772 N.4       1 <0>        -0.5039
     18 C9         -6.5098   -0.0328   -0.2994 C.3       1 <0>        -0.0204
     19 C10        -5.5848   -1.2252   -0.5394 C.3       1 <0>         0.1132
     20 C11        -3.1247   -3.8432   -0.0791 C.3       1 <0>         0.1466
     21 C12        -3.0018   -4.4145    1.3100 C.ar      1 <0>        -0.1237
     22 C13        -1.8310   -5.0376    1.7000 C.ar      1 <0>        -0.0896
     23 C14        -1.7183   -5.5617    2.9741 C.ar      1 <0>        -0.1148
     24 C15        -2.7761   -5.4624    3.8585 C.ar      1 <0>        -0.1001
     25 C16        -3.9465   -4.8385    3.4688 C.ar      1 <0>        -0.1244
     26 C17        -4.0577   -4.3106    2.1960 C.ar      1 <0>        -0.1064
     27 H2          1.1851    1.6092   -0.6840 H         1 <0>         0.1069
     28 H3         -0.5223    1.7716   -1.1604 H         1 <0>         0.0796
     29 H4         -0.0883    1.6243    0.5596 H         1 <0>         0.0794
     30 H5         -5.4659   -2.0193    2.2111 H         1 <0>         0.0915
     31 H6         -4.0798   -0.9430    2.5296 H         1 <0>         0.1228
     32 H7         -6.3034    0.1307    3.0412 H         1 <0>         0.1461
     33 H8         -5.3713    1.0060    1.8027 H         1 <0>         0.1406
     34 H9         -7.4720   -0.9630    1.2391 H         1 <0>         0.4276
     35 H10        -7.3459   -0.0736   -0.9975 H         1 <0>         0.1467
     36 H11        -5.9534    0.8920   -0.4522 H         1 <0>         0.1398
     37 H12        -5.1254   -1.1386   -1.5241 H         1 <0>         0.1222
     38 H13        -6.1601   -2.1491   -0.4804 H         1 <0>         0.0917
     39 H14        -4.1764   -3.7987   -0.3619 H         1 <0>         0.1031
     40 H15        -2.5859   -4.4783   -0.7822 H         1 <0>         0.1184
     41 H16        -1.0045   -5.1151    1.0091 H         1 <0>         0.1362
     42 H17        -0.8038   -6.0490    3.2786 H         1 <0>         0.1298
     43 H18        -2.6883   -5.8725    4.8537 H         1 <0>         0.1289
     44 H19        -4.7731   -4.7613    4.1596 H         1 <0>         0.1262
     45 H20        -4.9708   -3.8200    1.8928 H         1 <0>         0.1149
     46 H21        -7.6855    0.6691    1.2117 H         1 <0>         0.4359
@<TRIPOS>BOND
     1    1    2 1
     2    1   27 1
     3    1   28 1
     4    1   29 1
     5    2    9 am
     6    2    3 1
     7    3   13 1
     8    3    4 2
     9    4    5 1
    10    4   11 1
    11    5    6 2
    12    5    7 am
    13    7    8 1
    14    7    9 am
    15    9   10 2
    16   11   12 1
    17   11   20 1
    18   12   13 2
    19   12   14 1
    20   14   19 1
    21   14   15 1
    22   15   16 1
    23   15   30 1
    24   15   31 1
    25   16   17 1
    26   16   32 1
    27   16   33 1
    28   17   18 1
    29   17   34 1
    30   17   46 1
    31   18   19 1
    32   18   35 1
    33   18   36 1
    34   19   37 1
    35   19   38 1
    36   20   21 1
    37   20   39 1
    38   20   40 1
    39   21   26 ar
    40   21   22 ar
    41   22   23 ar
    42   22   41 1
    43   23   24 ar
    44   23   42 1
    45   24   25 ar
    46   24   43 1
    47   25   26 ar
    48   25   44 1
    49   26   45 1
@<TRIPOS>MOLECULE
ZINC03839141
   49    52     0     0     0
SMALL
USER_CHARGES
7-benzyl-1,3-dimethyl-8-piperazin-1-yl-purine-2,6-dione
@<TRIPOS>ATOM
      1 C1          1.6279   -4.0921    1.3954 C.3       1 <0>         0.0854
      2 N1          0.9002   -2.8878    1.8033 N.am      1 <0>        -0.5125
      3 C2          0.4426   -1.9976    0.8451 C.2       1 <0>         0.3364
      4 C3         -0.2458   -0.8624    1.2595 C.2       1 <0>        -0.1287
      5 C4         -0.4566   -0.6508    2.6335 C.2       1 <0>         0.5927
      6 O1         -1.0568    0.3371    3.0194 O.2       1 <0>        -0.5035
      7 N2          0.0130   -1.5527    3.5201 N.am      1 <0>        -0.5487
      8 C5          0.6767   -2.6470    3.1090 C.2       1 <0>         0.7066
      9 O2          1.0849   -3.4389    3.9366 O.2       1 <0>        -0.5200
     10 C6         -0.2042   -1.3365    4.9527 C.3       1 <0>         0.0807
     11 N3         -0.5788   -0.1646    0.1063 N.pl3     1 <0>        -0.3808
     12 C7         -0.0980   -0.8863   -0.9405 C.2       1 <0>         0.4294
     13 N4          0.5085   -1.9644   -0.4868 N.2       1 <0>        -0.5074
     14 N5         -0.2219   -0.5424   -2.2670 N.pl3     1 <0>        -0.4607
     15 C8          0.9415    0.2323   -2.7211 C.3       1 <0>         0.0252
     16 C9          0.7290    0.6620   -4.1746 C.3       1 <0>         0.0043
     17 C10        -0.6290   -1.3046   -4.5576 C.3       1 <0>         0.0014
     18 C11        -0.4166   -1.7344   -3.1042 C.3       1 <0>         0.0394
     19 C12        -1.3121    1.1014    0.0317 C.3       1 <0>         0.1495
     20 C13        -2.7753    0.8218   -0.1965 C.ar      1 <0>        -0.1255
     21 C14        -3.2649    0.7097   -1.4843 C.ar      1 <0>        -0.0925
     22 C15        -4.6061    0.4484   -1.6935 C.ar      1 <0>        -0.1280
     23 C16        -5.4597    0.3095   -0.6151 C.ar      1 <0>        -0.1000
     24 C17        -4.9710    0.4268    0.6727 C.ar      1 <0>        -0.1189
     25 C18        -3.6288    0.6829    0.8820 C.ar      1 <0>        -0.0883
     26 H1          1.9057   -4.6657    2.2796 H         1 <0>         0.1070
     27 H2          0.9918   -4.7007    0.7526 H         1 <0>         0.0788
     28 H3          2.5274   -3.8060    0.8504 H         1 <0>         0.0784
     29 H4         -1.1445   -1.7998    5.2516 H         1 <0>         0.0803
     30 H5          0.6156   -1.7824    5.5159 H         1 <0>         0.0997
     31 H6         -0.2454   -0.2666    5.1565 H         1 <0>         0.0982
     32 H7          1.0572    1.1161   -2.0938 H         1 <0>         0.1257
     33 H8          1.8381   -0.3836   -2.6514 H         1 <0>         0.0830
     34 H9          1.6033    1.2120   -4.5227 H         1 <0>         0.1465
     35 H10        -0.1522    1.3002   -4.2400 H         1 <0>         0.1427
     36 H11        -0.7448   -2.1885   -5.1850 H         1 <0>         0.1470
     37 H12        -1.5259   -0.6891   -4.6275 H         1 <0>         0.1416
     38 H13         0.4647   -2.3726   -3.0387 H         1 <0>         0.0898
     39 H14        -1.2909   -2.2844   -2.7561 H         1 <0>         0.1296
     40 H15        -1.1882    1.6487    0.9662 H         1 <0>         0.1186
     41 H16        -0.9234    1.6985   -0.7932 H         1 <0>         0.1063
     42 H17        -2.5989    0.8226   -2.3270 H         1 <0>         0.1221
     43 H18        -4.9880    0.3572   -2.6996 H         1 <0>         0.1244
     44 H19        -6.5084    0.1098   -0.7786 H         1 <0>         0.1274
     45 H20        -5.6379    0.3187    1.5153 H         1 <0>         0.1286
     46 H21        -3.2471    0.7749    1.8881 H         1 <0>         0.1318
     47 N6          0.5400   -0.5325   -5.0194 N.4       1 <0>        -0.5197
     48 H22         1.3788   -1.1222   -4.9650 H         1 <0>         0.4345
     49 H23         0.3901   -0.2395   -5.9919 H         1 <0>         0.4424
@<TRIPOS>BOND
     1    1    2 1
     2    1   26 1
     3    1   27 1
     4    1   28 1
     5    2    8 am
     6    2    3 1
     7    3   13 1
     8    3    4 2
     9    4    5 1
    10    4   11 1
    11    5    6 2
    12    5    7 am
    13    7    8 am
    14    7   10 1
    15    8    9 2
    16   10   29 1
    17   10   30 1
    18   10   31 1
    19   11   12 1
    20   11   19 1
    21   12   13 2
    22   12   14 1
    23   14   18 1
    24   14   15 1
    25   15   16 1
    26   15   32 1
    27   15   33 1
    28   16   34 1
    29   16   35 1
    30   16   47 1
    31   17   18 1
    32   17   36 1
    33   17   37 1
    34   17   47 1
    35   18   38 1
    36   18   39 1
    37   19   20 1
    38   19   40 1
    39   19   41 1
    40   20   25 ar
    41   20   21 ar
    42   21   22 ar
    43   21   42 1
    44   22   23 ar
    45   22   43 1
    46   23   24 ar
    47   23   44 1
    48   24   25 ar
    49   24   45 1
    50   25   46 1
    51   47   48 1
    52   47   49 1
@<TRIPOS>MOLECULE
ZINC03839141
   50    53     0     0     0
SMALL
USER_CHARGES
7-benzyl-1,3-dimethyl-8-piperazin-1-yl-purine-2,6-dione
@<TRIPOS>ATOM
      1 C1          1.6279   -4.0921    1.3954 C.3       1 <0>         0.0524
      2 N1          0.9002   -2.8878    1.8033 N.am      1 <0>        -0.5109
      3 C2          0.4426   -1.9976    0.8451 C.2       1 <0>         0.3699
      4 C3         -0.2458   -0.8624    1.2595 C.2       1 <0>        -0.0614
      5 C4         -0.4566   -0.6508    2.6335 C.2       1 <0>         0.5863
      6 O1         -1.0568    0.3371    3.0194 O.2       1 <0>        -0.4578
      7 N2          0.0130   -1.5527    3.5201 N.am      1 <0>        -0.5380
      8 C5          0.6767   -2.6470    3.1090 C.2       1 <0>         0.7055
      9 O2          1.0849   -3.4389    3.9366 O.2       1 <0>        -0.4700
     10 C6         -0.2042   -1.3365    4.9527 C.3       1 <0>         0.0722
     11 N3         -0.5788   -0.1646    0.1063 N.pl3     1 <0>        -0.3095
     12 C7         -0.0980   -0.8863   -0.9405 C.cat     1 <0>         0.4895
     13 N4         -0.2219   -0.5424   -2.2670 N.pl3     1 <0>        -0.4638
     14 C8          0.9415    0.2323   -2.7211 C.3       1 <0>         0.0160
     15 C9          0.7290    0.6620   -4.1746 C.3       1 <0>         0.0025
     16 C10        -0.6290   -1.3046   -4.5576 C.3       1 <0>         0.0050
     17 C11        -0.4166   -1.7344   -3.1042 C.3       1 <0>         0.0136
     18 C12        -1.3121    1.1014    0.0317 C.3       1 <0>         0.1384
     19 C13        -2.7753    0.8218   -0.1965 C.ar      1 <0>        -0.1517
     20 C14        -3.2649    0.7097   -1.4843 C.ar      1 <0>        -0.0899
     21 C15        -4.6061    0.4484   -1.6935 C.ar      1 <0>        -0.1242
     22 C16        -5.4597    0.3095   -0.6151 C.ar      1 <0>        -0.0817
     23 C17        -4.9710    0.4268    0.6727 C.ar      1 <0>        -0.1140
     24 C18        -3.6288    0.6829    0.8820 C.ar      1 <0>        -0.0816
     25 H1          1.9057   -4.6657    2.2796 H         1 <0>         0.1342
     26 H2          0.9918   -4.7007    0.7526 H         1 <0>         0.0927
     27 H3          2.5274   -3.8060    0.8504 H         1 <0>         0.0925
     28 H4         -1.1445   -1.7998    5.2516 H         1 <0>         0.0936
     29 H5          0.6156   -1.7824    5.5159 H         1 <0>         0.1101
     30 H6         -0.2454   -0.2666    5.1565 H         1 <0>         0.1093
     31 H7          1.0572    1.1161   -2.0938 H         1 <0>         0.1439
     32 H8          1.8381   -0.3836   -2.6514 H         1 <0>         0.0932
     33 H9          1.6033    1.2120   -4.5227 H         1 <0>         0.1610
     34 H10        -0.1522    1.3002   -4.2400 H         1 <0>         0.1531
     35 H11        -0.7448   -2.1885   -5.1850 H         1 <0>         0.1612
     36 H12        -1.5259   -0.6891   -4.6275 H         1 <0>         0.1540
     37 H13         0.4647   -2.3726   -3.0387 H         1 <0>         0.0854
     38 H14        -1.2909   -2.2844   -2.7561 H         1 <0>         0.1482
     39 H15        -1.1882    1.6487    0.9662 H         1 <0>         0.1456
     40 H16        -0.9234    1.6985   -0.7932 H         1 <0>         0.1318
     41 H17        -2.5989    0.8226   -2.3270 H         1 <0>         0.1241
     42 H18        -4.9880    0.3572   -2.6996 H         1 <0>         0.1320
     43 H19        -6.5084    0.1098   -0.7786 H         1 <0>         0.1360
     44 H20        -5.6379    0.3187    1.5153 H         1 <0>         0.1370
     45 H21        -3.2471    0.7749    1.8881 H         1 <0>         0.1355
     46 N5          0.5400   -0.5325   -5.0194 N.4       1 <0>        -0.5233
     47 H22         1.3788   -1.1222   -4.9650 H         1 <0>         0.4363
     48 H23         0.3901   -0.2395   -5.9919 H         1 <0>         0.4552
     49 N6          0.5099   -1.9665   -0.4886 N.pl3     1 <0>        -0.5143
     50 H24         0.9659   -2.6763   -1.0738 H         1 <0>         0.4750
@<TRIPOS>BOND
     1    1    2 1
     2    1   25 1
     3    1   26 1
     4    1   27 1
     5    2    8 am
     6    2    3 1
     7    3    4 2
     8    3   49 1
     9    4    5 1
    10    4   11 1
    11    5    6 2
    12    5    7 am
    13    7    8 am
    14    7   10 1
    15    8    9 2
    16   10   28 1
    17   10   29 1
    18   10   30 1
    19   11   12 1
    20   11   18 1
    21   12   13 1
    22   12   49 2
    23   13   17 1
    24   13   14 1
    25   14   15 1
    26   14   31 1
    27   14   32 1
    28   15   33 1
    29   15   34 1
    30   15   46 1
    31   16   17 1
    32   16   35 1
    33   16   36 1
    34   16   46 1
    35   17   37 1
    36   17   38 1
    37   18   19 1
    38   18   39 1
    39   18   40 1
    40   19   24 ar
    41   19   20 ar
    42   20   21 ar
    43   20   41 1
    44   21   22 ar
    45   21   42 1
    46   22   23 ar
    47   22   43 1
    48   23   24 ar
    49   23   44 1
    50   24   45 1
    51   46   47 1
    52   46   48 1
    53   49   50 1
@<TRIPOS>MOLECULE
ZINC03820029
   64    68     0     0     0
SMALL
USER_CHARGES
8-(3-amino-1-piperidyl)-7-but-2-ynyl-3-methyl-1-[(4-methylquinazolin-2-yl)methyl]purine-2,6-dione
@<TRIPOS>ATOM
      1 C1         -0.0127    1.0858    0.0080 C.3       1 <0>        -0.0547
      2 C2         -0.7017    1.5605    1.2191 C.1       1 <0>        -0.1093
      3 C3         -1.2512    1.9391    2.1850 C.1       1 <0>        -0.2443
      4 C4         -1.9402    2.4139    3.3961 C.3       1 <0>         0.2271
      5 N1         -1.9601    3.8787    3.4041 N.pl3     1 <0>        -0.4059
      6 C5         -2.9417    4.6969    2.8612 C.2       1 <0>        -0.1370
      7 C6         -2.5399    6.0057    3.1060 C.2       1 <0>         0.3423
      8 N2         -1.3789    5.9543    3.7608 N.2       1 <0>        -0.5198
      9 C7         -1.0240    4.6995    3.9498 C.2       1 <0>         0.4549
     10 N3          0.1178    4.2847    4.5959 N.pl3     1 <0>        -0.4398
     11 C8          0.9191    3.4048    3.7356 C.3       1 <0>         0.0235
     12 C9          2.1011    2.8484    4.5327 C.3       1 <0>        -0.1114
     13 C10         2.9571    4.0100    5.0448 C.3       1 <0>        -0.1448
     14 C11         2.0873    4.9373    5.8982 C.3       1 <0>         0.0301
     15 H1          1.7155    4.3920    6.7657 H         1 <0>         0.1541
     16 C12         0.9057    5.4331    5.0615 C.3       1 <0>         0.0479
     17 N4         -3.3446    7.0444    2.6659 N.am      1 <0>        -0.5131
     18 C13        -4.4924    6.7787    2.0142 C.2       1 <0>         0.7040
     19 O1         -5.1866    7.7022    1.6350 O.2       1 <0>        -0.5019
     20 N5         -4.8900    5.5175    1.7729 N.am      1 <0>        -0.5442
     21 C14        -4.1478    4.4657    2.1765 C.2       1 <0>         0.5885
     22 O2         -4.5195    3.3271    1.9512 O.2       1 <0>        -0.4841
     23 C15        -6.1480    5.2816    1.0600 C.3       1 <0>         0.1896
     24 C16        -5.8811    5.2174   -0.4218 C.ar      1 <0>         0.2963
     25 N6         -5.9440    6.3380   -1.1262 N.ar      1 <0>        -0.5026
     26 C17        -5.7160    6.3521   -2.4241 C.ar      1 <0>         0.2233
     27 C18        -5.4111    5.1360   -3.0616 C.ar      1 <0>        -0.1583
     28 C19        -5.1609    5.0581   -4.4396 C.ar      1 <0>        -0.0791
     29 C20        -4.8711    3.8513   -5.0011 C.ar      1 <0>        -0.1146
     30 C21        -4.8197    2.6940   -4.2265 C.ar      1 <0>        -0.0798
     31 C22        -5.0578    2.7337   -2.8859 C.ar      1 <0>        -0.0982
     32 C23        -5.3594    3.9583   -2.2721 C.ar      1 <0>         0.1567
     33 N7         -5.6020    4.0541   -0.9589 N.ar      1 <0>        -0.4786
     34 C24        -5.7858    7.6381   -3.2067 C.3       1 <0>        -0.1125
     35 C25        -2.9459    8.4328    2.9096 C.3       1 <0>         0.0911
     36 H2          0.0021   -0.0041    0.0020 H         1 <0>         0.0937
     37 H3          1.0099    1.4631    0.0003 H         1 <0>         0.0854
     38 H4         -0.5399    1.4469   -0.8751 H         1 <0>         0.0889
     39 H5         -2.9628    2.0366    3.4038 H         1 <0>         0.1333
     40 H6         -1.4130    2.0528    4.2791 H         1 <0>         0.1247
     41 H7          0.2997    2.5808    3.3816 H         1 <0>         0.1115
     42 H8          1.2912    3.9719    2.8823 H         1 <0>         0.0627
     43 H9          2.7044    2.2077    3.8895 H         1 <0>         0.1024
     44 H10         1.7301    2.2693    5.3783 H         1 <0>         0.0919
     45 H11         3.3607    4.5659    4.1985 H         1 <0>         0.0891
     46 H12         3.7766    3.6211    5.6492 H         1 <0>         0.0996
     47 H13         1.2779    5.9907    4.2020 H         1 <0>         0.0802
     48 H14         0.2765    6.0823    5.6705 H         1 <0>         0.1180
     49 H15         3.6738    5.7832    6.9010 H         1 <0>         0.4437
     50 H16         3.1904    6.6426    5.5618 H         1 <0>         0.4364
     51 H17        -6.5825    4.3388    1.3921 H         1 <0>         0.1290
     52 H18        -6.8423    6.0954    1.2692 H         1 <0>         0.1312
     53 H19        -5.1974    5.9479   -5.0505 H         1 <0>         0.1398
     54 H20        -4.6787    3.7904   -6.0621 H         1 <0>         0.1356
     55 H21        -4.5877    1.7500   -4.6969 H         1 <0>         0.1371
     56 H22        -5.0142    1.8280   -2.2992 H         1 <0>         0.1407
     57 H23        -6.8028    7.7883   -3.5689 H         1 <0>         0.0950
     58 H24        -5.5026    8.4709   -2.5630 H         1 <0>         0.0902
     59 H25        -5.1024    7.5852   -4.0542 H         1 <0>         0.0843
     60 H26        -2.3420    8.7892    2.0750 H         1 <0>         0.0714
     61 H27        -3.8358    9.0549    3.0059 H         1 <0>         0.0980
     62 H28        -2.3631    8.4875    3.8291 H         1 <0>         0.0878
     63 N8          2.8697    6.0973    6.3602 N.4       1 <0>        -0.6414
     64 H29         2.2771    6.6893    6.9539 H         1 <0>         0.4443
@<TRIPOS>BOND
     1    1    2 1
     2    1   36 1
     3    1   37 1
     4    1   38 1
     5    2    3 3
     6    3    4 1
     7    4    5 1
     8    4   39 1
     9    4   40 1
    10    5    9 1
    11    5    6 1
    12    6   21 1
    13    6    7 2
    14    7    8 1
    15    7   17 1
    16    8    9 2
    17    9   10 1
    18   10   16 1
    19   10   11 1
    20   11   12 1
    21   11   41 1
    22   11   42 1
    23   12   13 1
    24   12   43 1
    25   12   44 1
    26   13   14 1
    27   13   45 1
    28   13   46 1
    29   14   15 1
    30   14   16 1
    31   14   63 1
    32   16   47 1
    33   16   48 1
    34   17   18 am
    35   17   35 1
    36   18   19 2
    37   18   20 am
    38   20   21 am
    39   20   23 1
    40   21   22 2
    41   23   24 1
    42   23   51 1
    43   23   52 1
    44   24   33 ar
    45   24   25 ar
    46   25   26 ar
    47   26   27 ar
    48   26   34 1
    49   27   32 ar
    50   27   28 ar
    51   28   29 ar
    52   28   53 1
    53   29   30 ar
    54   29   54 1
    55   30   31 ar
    56   30   55 1
    57   31   32 ar
    58   31   56 1
    59   32   33 ar
    60   34   57 1
    61   34   58 1
    62   34   59 1
    63   35   60 1
    64   35   61 1
    65   35   62 1
    66   49   63 1
    67   50   63 1
    68   63   64 1
@<TRIPOS>MOLECULE
ZINC03820029
   65    69     0     0     0
SMALL
USER_CHARGES
8-(3-amino-1-piperidyl)-7-but-2-ynyl-3-methyl-1-[(4-methylquinazolin-2-yl)methyl]purine-2,6-dione
@<TRIPOS>ATOM
      1 C1          0.6350   -2.8855    0.3054 C.3       1 <0>        -0.0693
      2 C2          0.4451   -1.4289    0.2109 C.1       1 <0>        -0.0559
      3 C3          0.2937   -0.2671    0.1356 C.1       1 <0>        -0.2834
      4 C4          0.1039    1.1896    0.0412 C.3       1 <0>         0.2298
      5 N1          1.4105    1.8515    0.0135 N.pl3     1 <0>        -0.3169
      6 C5          2.1885    2.1025   -1.1088 C.2       1 <0>        -0.0575
      7 C6          3.3348    2.7457   -0.6547 C.2       1 <0>         0.3696
      8 C7          2.0930    2.3441    1.0809 C.cat     1 <0>         0.4943
      9 N2          1.6636    2.3021    2.3875 N.pl3     1 <0>        -0.4831
     10 C8          1.4867    3.6564    2.9270 C.3       1 <0>         0.0318
     11 C9          0.8724    3.5733    4.3262 C.3       1 <0>        -0.1310
     12 C10         1.7953    2.7577    5.2359 C.3       1 <0>        -0.1539
     13 C11         2.0018    1.3682    4.6266 C.3       1 <0>         0.0477
     14 H1          2.6918    0.7968    5.2476 H         1 <0>         0.1665
     15 C12         2.5834    1.5153    3.2187 C.3       1 <0>         0.0152
     16 N3          4.3007    3.1181   -1.5760 N.am      1 <0>        -0.5114
     17 C13         4.1209    2.8567   -2.8844 C.2       1 <0>         0.7014
     18 O1          4.9786    3.1904   -3.6792 O.2       1 <0>        -0.4485
     19 N4          3.0167    2.2356   -3.3337 N.am      1 <0>        -0.5347
     20 C14         2.0426    1.8491   -2.4842 C.2       1 <0>         0.5806
     21 O2          1.0465    1.2866   -2.9044 O.2       1 <0>        -0.4361
     22 C15         2.8692    1.9738   -4.7676 C.3       1 <0>         0.1873
     23 C16         3.4594    0.6266   -5.0956 C.ar      1 <0>         0.2826
     24 N5          4.7384    0.5609   -5.4363 N.ar      1 <0>        -0.5090
     25 C17         5.3173   -0.5860   -5.7295 C.ar      1 <0>         0.2311
     26 C18         4.5396   -1.7570   -5.6852 C.ar      1 <0>        -0.1542
     27 C19         5.0729   -3.0188   -5.9869 C.ar      1 <0>        -0.0790
     28 C20         4.2702   -4.1178   -5.9263 C.ar      1 <0>        -0.1080
     29 C21         2.9281   -4.0063   -5.5686 C.ar      1 <0>        -0.0736
     30 C22         2.3780   -2.7966   -5.2693 C.ar      1 <0>        -0.1015
     31 C23         3.1731   -1.6424   -5.3213 C.ar      1 <0>         0.1553
     32 N6          2.6838   -0.4291   -5.0367 N.ar      1 <0>        -0.4798
     33 C24         6.7750   -0.6408   -6.1082 C.3       1 <0>        -0.1164
     34 C25         5.5182    3.7971   -1.1258 C.3       1 <0>         0.0617
     35 H2         -0.3372   -3.3780    0.3260 H         1 <0>         0.0969
     36 H3          1.2010   -3.2349   -0.5581 H         1 <0>         0.0935
     37 H4          1.1816   -3.1223    1.2182 H         1 <0>         0.1048
     38 H5         -0.4428    1.4263   -0.8716 H         1 <0>         0.1556
     39 H6         -0.4621    1.5389    0.9047 H         1 <0>         0.1454
     40 H7          2.4550    4.1537    2.9845 H         1 <0>         0.0794
     41 H8          0.8251    4.2244    2.2730 H         1 <0>         0.1184
     42 H9         -0.1021    3.0884    4.2676 H         1 <0>         0.0830
     43 H10         0.7552    4.5777    4.7331 H         1 <0>         0.1213
     44 H11         1.3408    2.6593    6.2218 H         1 <0>         0.1126
     45 H12         2.7572    3.2622    5.3270 H         1 <0>         0.1205
     46 H13         2.7183    0.5281    2.7766 H         1 <0>         0.1233
     47 H14         3.5465    2.0227    3.2750 H         1 <0>         0.1091
     48 H15         0.3081    0.5587    5.4719 H         1 <0>         0.4478
     49 H16         0.0763    1.1453    3.9331 H         1 <0>         0.4375
     50 H17         1.8116    1.9811   -5.0313 H         1 <0>         0.1385
     51 H18         3.3901    2.7462   -5.3334 H         1 <0>         0.1406
     52 H19         6.1118   -3.1184   -6.2648 H         1 <0>         0.1432
     53 H20         4.6801   -5.0896   -6.1585 H         1 <0>         0.1400
     54 H21         2.3138   -4.8936   -5.5283 H         1 <0>         0.1405
     55 H22         1.3361   -2.7267   -4.9937 H         1 <0>         0.1414
     56 H23         6.8746   -0.5241   -7.1873 H         1 <0>         0.0995
     57 H24         7.3116    0.1633   -5.6047 H         1 <0>         0.0907
     58 H25         7.1929   -1.6012   -5.8064 H         1 <0>         0.0874
     59 H26         6.2837    3.0560   -0.8959 H         1 <0>         0.0970
     60 H27         5.8780    4.4585   -1.9141 H         1 <0>         0.1266
     61 H28         5.2989    4.3822   -0.2326 H         1 <0>         0.0884
     62 N7          0.7201    0.6458    4.5444 N.4       1 <0>        -0.6459
     63 H29         0.8855   -0.2925    4.1618 H         1 <0>         0.4432
     64 N8          3.2335    2.8662    0.6717 N.pl3     1 <0>        -0.5100
     65 H30         3.9371    3.2997    1.2810 H         1 <0>         0.4777
@<TRIPOS>BOND
     1    1    2 1
     2    1   35 1
     3    1   36 1
     4    1   37 1
     5    2    3 3
     6    3    4 1
     7    4    5 1
     8    4   38 1
     9    4   39 1
    10    5    8 1
    11    5    6 1
    12    6   20 1
    13    6    7 2
    14    7   16 1
    15    7   64 1
    16    8    9 1
    17    8   64 2
    18    9   15 1
    19    9   10 1
    20   10   11 1
    21   10   40 1
    22   10   41 1
    23   11   12 1
    24   11   42 1
    25   11   43 1
    26   12   13 1
    27   12   44 1
    28   12   45 1
    29   13   14 1
    30   13   15 1
    31   13   62 1
    32   15   46 1
    33   15   47 1
    34   16   17 am
    35   16   34 1
    36   17   18 2
    37   17   19 am
    38   19   20 am
    39   19   22 1
    40   20   21 2
    41   22   23 1
    42   22   50 1
    43   22   51 1
    44   23   32 ar
    45   23   24 ar
    46   24   25 ar
    47   25   26 ar
    48   25   33 1
    49   26   31 ar
    50   26   27 ar
    51   27   28 ar
    52   27   52 1
    53   28   29 ar
    54   28   53 1
    55   29   30 ar
    56   29   54 1
    57   30   31 ar
    58   30   55 1
    59   31   32 ar
    60   33   56 1
    61   33   57 1
    62   33   58 1
    63   34   59 1
    64   34   60 1
    65   34   61 1
    66   48   62 1
    67   49   62 1
    68   62   63 1
    69   64   65 1
@<TRIPOS>MOLECULE
ZINC11754367
   29    30     0     0     0
SMALL
USER_CHARGES
pyrrolidin-1-yl-[(2S)-pyrrolidin-2-yl]methanone
@<TRIPOS>ATOM
      1 C1         -3.7575   -0.5631   -1.7731 C.3       1 <0>        -0.1346
      2 C2         -3.4710    0.0765   -3.1574 C.3       1 <0>        -0.1364
      3 C3         -2.7193    1.3692   -2.7531 C.3       1 <0>         0.1001
      4 N1         -1.8913    0.9786   -1.5976 N.am      1 <0>        -0.5934
      5 C4         -2.4984   -0.1983   -0.9589 C.3       1 <0>         0.0844
      6 C5         -0.7617    1.5948   -1.1966 C.2       1 <0>         0.5175
      7 O1         -0.3481    2.5589   -1.8051 O.2       1 <0>        -0.5266
      8 C6         -0.0127    1.0858    0.0080 C.3       1 <0>         0.0059
      9 H1          0.0021   -0.0041    0.0020 H         1 <0>         0.1610
     10 C7         -0.6836    1.5946    1.3012 C.3       1 <0>        -0.1303
     11 C8          0.5249    1.9011    2.2246 C.3       1 <0>        -0.1407
     12 C9          1.5685    2.4294    1.2091 C.3       1 <0>        -0.0072
     13 H2         -4.6507   -0.1280   -1.3247 H         1 <0>         0.0866
     14 H3         -3.8599   -1.6447   -1.8618 H         1 <0>         0.0941
     15 H4         -4.3989    0.3110   -3.6790 H         1 <0>         0.0977
     16 H5         -2.8372   -0.5706   -3.7638 H         1 <0>         0.0824
     17 H6         -3.4279    2.1463   -2.4667 H         1 <0>         0.0836
     18 H7         -2.0885    1.7133   -3.5728 H         1 <0>         0.0895
     19 H8         -1.7942   -1.0302   -0.9691 H         1 <0>         0.0796
     20 H9         -2.7790    0.0401    0.0670 H         1 <0>         0.0811
     21 H10        -1.2591    2.4996    1.1065 H         1 <0>         0.1037
     22 H11        -1.3156    0.8212    1.7376 H         1 <0>         0.1219
     23 H12         0.8811    0.9952    2.7151 H         1 <0>         0.1044
     24 H13         0.2716    2.6666    2.9581 H         1 <0>         0.1226
     25 H14         2.5781    2.2929    1.5968 H         1 <0>         0.1437
     26 H15         1.3867    3.4811    0.9879 H         1 <0>         0.1360
     27 N2          1.3625    1.6073    0.0021 N.4       1 <0>        -0.5068
     28 H16         1.5090    2.1827   -0.8356 H         1 <0>         0.4410
     29 H17         2.0275    0.8250    0.0006 H         1 <0>         0.4393
@<TRIPOS>BOND
     1    1    5 1
     2    1    2 1
     3    1   13 1
     4    1   14 1
     5    2    3 1
     6    2   15 1
     7    2   16 1
     8    3    4 1
     9    3   17 1
    10    3   18 1
    11    4    5 1
    12    4    6 am
    13    5   19 1
    14    5   20 1
    15    6    7 2
    16    6    8 1
    17    8    9 1
    18    8   10 1
    19    8   27 1
    20   10   11 1
    21   10   21 1
    22   10   22 1
    23   11   12 1
    24   11   23 1
    25   11   24 1
    26   12   25 1
    27   12   26 1
    28   12   27 1
    29   27   28 1
    30   27   29 1
@<TRIPOS>MOLECULE
ZINC19411026
   29    30     0     0     0
SMALL
USER_CHARGES
pyrrolidin-1-yl-[(2R)-pyrrolidin-2-yl]methanone
@<TRIPOS>ATOM
      1 C1         -4.2441    2.6478   -4.4413 C.3       1 <0>        -0.1394
      2 C2         -3.5616    3.9796   -4.8510 C.3       1 <0>        -0.1373
      3 C3         -3.3268    4.6457   -3.4722 C.3       1 <0>         0.1025
      4 N1         -2.9768    3.5332   -2.5704 N.am      1 <0>        -0.5911
      5 C4         -3.5300    2.2876   -3.1216 C.3       1 <0>         0.0794
      6 C5         -2.2630    3.6396   -1.4321 C.2       1 <0>         0.5145
      7 O1         -1.8497    4.7223   -1.0745 O.2       1 <0>        -0.5287
      8 C6         -1.9784    2.4133   -0.6038 C.3       1 <0>         0.0126
      9 H1         -2.9197    1.8464   -0.5521 H         1 <0>         0.1603
     10 C7         -0.8008    1.6177   -1.2067 C.3       1 <0>        -0.1330
     11 C8         -0.0127    1.0858    0.0080 C.3       1 <0>        -0.1483
     12 C9         -0.7780    1.6049    1.2442 C.3       1 <0>         0.0063
     13 N2         -1.5127    2.8009    0.7527 N.4       1 <0>        -0.5321
     14 H2         -4.0830    1.8453   -5.1762 H         1 <0>         0.0926
     15 H3         -5.3220    2.7636   -4.2552 H         1 <0>         0.0844
     16 H4         -2.6293    3.7623   -5.3929 H         1 <0>         0.0829
     17 H5         -4.2383    4.5536   -5.5011 H         1 <0>         0.0978
     18 H6         -2.5094    5.3774   -3.5529 H         1 <0>         0.0910
     19 H7         -4.2461    5.1570   -3.1507 H         1 <0>         0.0852
     20 H8         -4.2539    1.8438   -2.4223 H         1 <0>         0.0795
     21 H9         -2.7262    1.5648   -3.3251 H         1 <0>         0.0800
     22 H10        -1.1917    0.7977   -1.8270 H         1 <0>         0.1170
     23 H11        -0.1863    2.2862   -1.8275 H         1 <0>         0.1020
     24 H12         0.0094   -0.0136   -0.0221 H         1 <0>         0.1164
     25 H13         1.0160    1.4742   -0.0237 H         1 <0>         0.1034
     26 H14        -1.4622    0.8236    1.6066 H         1 <0>         0.1378
     27 H15        -0.0612    1.8616    2.0381 H         1 <0>         0.1425
     28 H16        -0.8603    3.6834    0.6781 H         1 <0>         0.4630
     29 H17        -2.3811    3.0393    1.3843 H         1 <0>         0.4588
@<TRIPOS>BOND
     1    1    5 1
     2    1    2 1
     3    1   14 1
     4    1   15 1
     5    2    3 1
     6    2   16 1
     7    2   17 1
     8    3    4 1
     9    3   18 1
    10    3   19 1
    11    4    5 1
    12    4    6 am
    13    5   20 1
    14    5   21 1
    15    6    7 2
    16    6    8 1
    17    8    9 1
    18    8   13 1
    19    8   10 1
    20   10   11 1
    21   10   22 1
    22   10   23 1
    23   11   12 1
    24   11   24 1
    25   11   25 1
    26   12   13 1
    27   12   26 1
    28   12   27 1
    29   13   28 1
    30   13   29 1
@<TRIPOS>MOLECULE
ZINC35931820
   34    34     0     0     0
SMALL
USER_CHARGES

@<TRIPOS>ATOM
      1 C1         -0.0187    1.5258    0.0104 C.3       1 <0>        -0.1593
      2 C2          0.0021   -0.0041    0.0020 C.3       1 <0>        -0.1261
      3 C3          0.7182   -0.4975   -1.2568 C.3       1 <0>        -0.1327
      4 C4          0.7390   -2.0273   -1.2652 C.3       1 <0>        -0.1437
      5 C5          1.4551   -2.5207   -2.5240 C.3       1 <0>         0.0129
      6 H1          2.4472   -2.0723   -2.5770 H         1 <0>         0.1630
      7 C6          1.5842   -4.0213   -2.4729 C.2       1 <0>         0.5136
      8 O1          0.8103   -4.7181   -3.0948 O.2       1 <0>        -0.5256
      9 N1          2.5595   -4.5891   -1.7362 N.am      1 <0>        -0.5939
     10 C7          3.5567   -3.8672   -0.9325 C.3       1 <0>         0.0830
     11 C8          4.4791   -4.9242   -0.2894 C.3       1 <0>        -0.1349
     12 C9          4.2989   -6.1540   -1.2181 C.3       1 <0>        -0.1360
     13 C10         2.7993   -6.0371   -1.5978 C.3       1 <0>         0.1003
     14 N2          0.6798   -2.1361   -3.7110 N.4       1 <0>        -0.6213
     15 H2          1.0039    1.9031    0.0027 H         1 <0>         0.0585
     16 H3         -0.5459    1.8868   -0.8726 H         1 <0>         0.0562
     17 H4         -0.5289    1.8773    0.9072 H         1 <0>         0.0643
     18 H5          0.5293   -0.3651    0.8851 H         1 <0>         0.0718
     19 H6         -1.0205   -0.3814    0.0098 H         1 <0>         0.0689
     20 H7          0.1910   -0.1364   -2.1398 H         1 <0>         0.0627
     21 H8          1.7408   -0.1202   -1.2645 H         1 <0>         0.0828
     22 H9          1.2661   -2.3884   -0.3821 H         1 <0>         0.1163
     23 H10        -0.2836   -2.4046   -1.2575 H         1 <0>         0.0998
     24 H11         4.1407   -3.2060   -1.5728 H         1 <0>         0.0798
     25 H12         3.0578   -3.2884   -0.1552 H         1 <0>         0.0813
     26 H13         5.5153   -4.5859   -0.2941 H         1 <0>         0.0941
     27 H14         4.1524   -5.1554    0.7245 H         1 <0>         0.0864
     28 H15         4.9357   -6.0749   -2.0992 H         1 <0>         0.0827
     29 H16         4.4927   -7.0818   -0.6799 H         1 <0>         0.0975
     30 H17         2.1723   -6.4517   -0.8084 H         1 <0>         0.0839
     31 H18         2.6069   -6.5456   -2.5426 H         1 <0>         0.0896
     32 H19         0.5934   -1.1314   -3.7452 H         1 <0>         0.4408
     33 H20         1.1521   -2.4615   -4.5411 H         1 <0>         0.4408
     34 H21        -0.2385   -2.5512   -3.6620 H         1 <0>         0.4426
@<TRIPOS>BOND
     1    1    2 1
     2    1   15 1
     3    1   16 1
     4    1   17 1
     5    2    3 1
     6    2   18 1
     7    2   19 1
     8    3    4 1
     9    3   20 1
    10    3   21 1
    11    4    5 1
    12    4   22 1
    13    4   23 1
    14    5    6 1
    15    5    7 1
    16    5   14 1
    17    7    8 2
    18    7    9 am
    19    9   13 1
    20    9   10 1
    21   10   11 1
    22   10   24 1
    23   10   25 1
    24   11   12 1
    25   11   26 1
    26   11   27 1
    27   12   13 1
    28   12   28 1
    29   12   29 1
    30   13   30 1
    31   13   31 1
    32   14   32 1
    33   14   33 1
    34   14   34 1
@<TRIPOS>MOLECULE
ZINC35931823
   34    34     0     0     0
SMALL
USER_CHARGES

@<TRIPOS>ATOM
      1 C1         -0.0187    1.5258    0.0104 C.3       1 <0>        -0.1593
      2 C2          0.0021   -0.0041    0.0020 C.3       1 <0>        -0.1261
      3 C3          0.7182   -0.4975   -1.2568 C.3       1 <0>        -0.1328
      4 C4          0.7390   -2.0273   -1.2652 C.3       1 <0>        -0.1436
      5 C5          1.4551   -2.5207   -2.5240 C.3       1 <0>         0.0129
      6 H1          0.9813   -2.0877   -3.4049 H         1 <0>         0.1629
      7 C6          1.3685   -4.0236   -2.5947 C.2       1 <0>         0.5137
      8 O1          2.3115   -4.7024   -2.2469 O.2       1 <0>        -0.5255
      9 N1          0.2432   -4.6133   -3.0445 N.am      1 <0>        -0.5940
     10 C7         -0.9666   -3.9142   -3.5019 C.3       1 <0>         0.0828
     11 C8         -1.9975   -4.9928   -3.8963 C.3       1 <0>        -0.1347
     12 C9         -1.5167   -6.2385   -3.1062 C.3       1 <0>        -0.1363
     13 C10         0.0239   -6.0662   -3.1654 C.3       1 <0>         0.1004
     14 N2          2.8656   -2.1132   -2.4764 N.4       1 <0>        -0.6213
     15 H2          1.0039    1.9031    0.0027 H         1 <0>         0.0562
     16 H3         -0.5459    1.8868   -0.8726 H         1 <0>         0.0585
     17 H4         -0.5289    1.8773    0.9072 H         1 <0>         0.0643
     18 H5          0.5293   -0.3651    0.8851 H         1 <0>         0.0689
     19 H6         -1.0205   -0.3814    0.0098 H         1 <0>         0.0717
     20 H7          0.1910   -0.1364   -2.1398 H         1 <0>         0.0828
     21 H8          1.7408   -0.1202   -1.2645 H         1 <0>         0.0626
     22 H9          1.2661   -2.3884   -0.3821 H         1 <0>         0.0998
     23 H10        -0.2836   -2.4046   -1.2575 H         1 <0>         0.1164
     24 H11        -1.3651   -3.2974   -2.6965 H         1 <0>         0.0808
     25 H12        -0.7313   -3.2928   -4.3659 H         1 <0>         0.0803
     26 H13        -3.0000   -4.7008   -3.5833 H         1 <0>         0.0942
     27 H14        -1.9670   -5.1813   -4.9695 H         1 <0>         0.0861
     28 H15        -1.8770   -6.2120   -2.0778 H         1 <0>         0.0831
     29 H16        -1.8245   -7.1588   -3.6027 H         1 <0>         0.0974
     30 H17         0.4125   -6.4307   -4.1162 H         1 <0>         0.0840
     31 H18         0.4961   -6.5915   -2.3352 H         1 <0>         0.0898
     32 H19         3.3379   -2.4386   -3.3066 H         1 <0>         0.4409
     33 H20         2.9236   -1.1070   -2.4291 H         1 <0>         0.4408
     34 H21         3.3042   -2.5141   -1.6610 H         1 <0>         0.4426
@<TRIPOS>BOND
     1    1    2 1
     2    1   15 1
     3    1   16 1
     4    1   17 1
     5    2    3 1
     6    2   18 1
     7    2   19 1
     8    3    4 1
     9    3   20 1
    10    3   21 1
    11    4    5 1
    12    4   22 1
    13    4   23 1
    14    5    6 1
    15    5    7 1
    16    5   14 1
    17    7    8 2
    18    7    9 am
    19    9   13 1
    20    9   10 1
    21   10   11 1
    22   10   24 1
    23   10   25 1
    24   11   12 1
    25   11   26 1
    26   11   27 1
    27   12   13 1
    28   12   28 1
    29   12   29 1
    30   13   30 1
    31   13   31 1
    32   14   32 1
    33   14   33 1
    34   14   34 1
@<TRIPOS>MOLECULE
ZINC13529572
   23    23     0     0     0
SMALL
USER_CHARGES
(2S)-2-amino-1-thiazolidin-3-yl-propane-1-thione
@<TRIPOS>ATOM
      1 C1         -2.3024    1.0975   -3.7331 C.3       1 <0>        -0.1860
      2 C2         -0.9115    1.7305   -3.6587 C.3       1 <0>         0.0581
      3 H1         -1.0080    2.8151   -3.6097 H         1 <0>         0.1644
      4 C3         -0.1985    1.2335   -2.4275 C.2       1 <0>         0.2198
      5 S1          1.1174    0.3368   -2.5729 S.2       1 <0>        -0.3955
      6 N1         -0.6701    1.5448   -1.2039 N.pl3     1 <0>        -0.5061
      7 C4         -0.0127    1.0858    0.0080 C.3       1 <0>         0.0773
      8 C5         -0.6885    1.5609    1.3179 C.3       1 <0>        -0.0730
      9 S2         -1.6274    3.0189    0.6861 S.3       1 <0>        -0.2213
     10 C6         -1.8834    2.3717   -1.0250 C.3       1 <0>         0.1023
     11 H2         -2.8742    1.3716   -2.8465 H         1 <0>         0.1074
     12 H3         -2.8180    1.4569   -4.6235 H         1 <0>         0.1063
     13 H4         -2.2058    0.0129   -3.7821 H         1 <0>         0.0948
     14 H5          0.0021   -0.0041    0.0020 H         1 <0>         0.1158
     15 H6          1.0167    1.4442    0.0001 H         1 <0>         0.1168
     16 H7         -1.3592    0.7998    1.7163 H         1 <0>         0.1170
     17 H8          0.0520    1.8606    2.0596 H         1 <0>         0.1423
     18 H9         -1.9145    3.1842   -1.7509 H         1 <0>         0.1299
     19 H10        -2.7852    1.7623   -1.0834 H         1 <0>         0.1249
     20 H11        -0.0373    0.3597   -4.9216 H         1 <0>         0.4444
     21 H12        -0.5643    1.7384   -5.6879 H         1 <0>         0.4407
     22 N2         -0.1188    1.3724   -4.8481 N.4       1 <0>        -0.6278
     23 H13         0.8202    1.7788   -4.7628 H         1 <0>         0.4473
@<TRIPOS>BOND
     1    1    2 1
     2    1   11 1
     3    1   12 1
     4    1   13 1
     5    2    3 1
     6    2    4 1
     7    2   22 1
     8    4    5 2
     9    4    6 1
    10    6   10 1
    11    6    7 1
    12    7    8 1
    13    7   14 1
    14    7   15 1
    15    8    9 1
    16    8   16 1
    17    8   17 1
    18    9   10 1
    19   10   18 1
    20   10   19 1
    21   20   22 1
    22   21   22 1
    23   22   23 1
@<TRIPOS>MOLECULE
ZINC13523006
   47    50     0     0     0
SMALL
USER_CHARGES
(2S)-1-[2-(1-adamantylamino)acetyl]pyrrolidine-2-carbonitrile
@<TRIPOS>ATOM
      1 C1          0.7498   -2.1919   -0.6279 C.3       1 <0>        -0.1307
      2 C2         -0.6749   -2.3345   -0.0301 C.3       1 <0>        -0.1255
      3 C3         -1.1808   -0.8771    0.0145 C.3       1 <0>         0.2398
      4 H1         -1.8002   -0.6747   -0.8593 H         1 <0>         0.1317
      5 N1          0.0021   -0.0041    0.0020 N.am      1 <0>        -0.5954
      6 C4          1.2116   -0.8469   -0.0135 C.3       1 <0>         0.0833
      7 C5         -0.0162    1.3436    0.0094 C.2       1 <0>         0.5158
      8 O1         -1.0746    1.9356    0.0177 O.2       1 <0>        -0.5171
      9 C6          1.2785    2.1147    0.0012 C.3       1 <0>        -0.0273
     10 C7          2.2321    4.3403    0.0041 C.3       1 <0>         0.0642
     11 C8          3.0605    3.9966    1.2436 C.3       1 <0>        -0.1280
     12 C9          4.3536    4.8144    1.2357 C.3       1 <0>        -0.0791
     13 C10         4.0137    6.3061    1.2469 C.3       1 <0>        -0.1207
     14 C11         3.1853    6.6498    0.0074 C.3       1 <0>        -0.0788
     15 C12         1.8922    5.8321    0.0153 C.3       1 <0>        -0.1268
     16 C13         3.9899    6.3195   -1.2514 C.3       1 <0>        -0.1205
     17 C14         4.3297    4.8278   -1.2627 C.3       1 <0>        -0.0791
     18 C15         5.1581    4.4841   -0.0231 C.3       1 <0>        -0.1194
     19 C16         3.0366    4.0101   -1.2547 C.3       1 <0>        -0.1271
     20 C17        -1.9567   -0.6512    1.2448 C.1       1 <0>         0.1798
     21 N2         -2.5556   -0.4769    2.1943 N.1       1 <0>        -0.3855
     22 H2          0.7129   -2.1324   -1.7156 H         1 <0>         0.0921
     23 H3          1.3929   -3.0104   -0.3045 H         1 <0>         0.1045
     24 H4         -1.3054   -2.9444   -0.6772 H         1 <0>         0.1109
     25 H5         -0.6313   -2.7547    0.9747 H         1 <0>         0.0925
     26 H6          1.9833   -0.3915   -0.6341 H         1 <0>         0.0921
     27 H7          1.5804   -0.9998    1.0007 H         1 <0>         0.0891
     28 H8          1.8621    1.8544    0.8843 H         1 <0>         0.1621
     29 H9          1.8451    1.8640   -0.8956 H         1 <0>         0.1642
     30 H10         2.4873    4.2319    2.1404 H         1 <0>         0.0882
     31 H11         3.3026    2.9339    1.2356 H         1 <0>         0.0852
     32 H12         4.9438    4.5695    2.1187 H         1 <0>         0.0935
     33 H13         4.9350    6.8887    1.2412 H         1 <0>         0.0811
     34 H14         3.4406    6.5414    2.1437 H         1 <0>         0.0718
     35 H15         2.9432    7.7126    0.0154 H         1 <0>         0.0942
     36 H16         1.3020    6.0769   -0.8678 H         1 <0>         0.0894
     37 H17         1.3190    6.0674    0.9121 H         1 <0>         0.0888
     38 H18         3.3997    6.5644   -2.1345 H         1 <0>         0.0721
     39 H19         4.9111    6.9021   -1.2571 H         1 <0>         0.0810
     40 H20         4.9029    4.5925   -2.1594 H         1 <0>         0.0938
     41 H21         6.0794    5.0667   -0.0288 H         1 <0>         0.0812
     42 H22         5.4003    3.4214   -0.0311 H         1 <0>         0.0709
     43 H23         3.2787    2.9473   -1.2627 H         1 <0>         0.0852
     44 H24         2.4465    4.2549   -2.1378 H         1 <0>         0.0891
     45 N3          0.9807    3.5594    0.0118 N.4       1 <0>        -0.5018
     46 H25         0.4438    3.7883    0.8566 H         1 <0>         0.4375
     47 H26         0.4278    3.7974   -0.8200 H         1 <0>         0.4378
@<TRIPOS>BOND
     1    1    6 1
     2    1    2 1
     3    1   22 1
     4    1   23 1
     5    2    3 1
     6    2   24 1
     7    2   25 1
     8    3    4 1
     9    3    5 1
    10    3   20 1
    11    5    6 1
    12    5    7 am
    13    6   26 1
    14    6   27 1
    15    7    8 2
    16    7    9 1
    17    9   28 1
    18    9   29 1
    19    9   45 1
    20   10   15 1
    21   10   19 1
    22   10   11 1
    23   10   45 1
    24   11   12 1
    25   11   30 1
    26   11   31 1
    27   12   18 1
    28   12   13 1
    29   12   32 1
    30   13   14 1
    31   13   33 1
    32   13   34 1
    33   14   15 1
    34   14   16 1
    35   14   35 1
    36   15   36 1
    37   15   37 1
    38   16   17 1
    39   16   38 1
    40   16   39 1
    41   17   18 1
    42   17   19 1
    43   17   40 1
    44   18   41 1
    45   18   42 1
    46   19   43 1
    47   19   44 1
    48   20   21 3
    49   45   46 1
    50   45   47 1
@<TRIPOS>MOLECULE
ZINC13522765
   41    42     0     0     0
SMALL
USER_CHARGES
6-[2-[[2-[(2R)-2-cyanopyrrolidin-1-yl]-2-oxo-ethyl]amino]ethylamino]pyridine-3-carbonitrile
@<TRIPOS>ATOM
      1 C1         -2.4248    3.7010    0.0346 C.ar      1 <0>         0.0169
      2 C2         -1.2281    3.0355    0.0302 C.ar      1 <0>        -0.2402
      3 C3         -1.2206    1.6424    0.0168 C.ar      1 <0>         0.4237
      4 N1         -2.3542    0.9546    0.0184 N.ar      1 <0>        -0.5333
      5 C4         -3.5263    1.5547    0.0277 C.ar      1 <0>         0.2112
      6 C5         -3.6090    2.9484    0.0361 C.ar      1 <0>        -0.1259
      7 C6         -4.8840    3.6004    0.0466 C.1       1 <0>         0.2486
      8 N2         -5.8954    4.1176    0.0550 N.1       1 <0>        -0.3998
      9 N3         -0.0111    0.9658    0.0074 N.pl3     1 <0>        -0.7335
     10 C7          1.2475    1.7155   -0.0006 C.3       1 <0>         0.1058
     11 C8          2.4238    0.7372   -0.0171 C.3       1 <0>        -0.0116
     12 N4          3.6858    1.4890   -0.0251 N.4       1 <0>        -0.5262
     13 C9          4.8398    0.5801   -0.0410 C.3       1 <0>        -0.0189
     14 C10         6.1135    1.3856   -0.0489 C.2       1 <0>         0.5141
     15 O1          6.0647    2.5974   -0.0419 O.2       1 <0>        -0.5185
     16 N5          7.3068    0.7593   -0.0636 N.am      1 <0>        -0.5965
     17 C11         7.5108   -0.7008   -0.0739 C.3       1 <0>         0.0804
     18 C12         8.9130   -0.9008   -0.7012 C.3       1 <0>        -0.1323
     19 C13         9.6909    0.3080   -0.1172 C.3       1 <0>        -0.1223
     20 C14         8.6206    1.4190   -0.0785 C.3       1 <0>         0.2461
     21 H1          8.6753    2.1077   -0.9345 H         1 <0>         0.1332
     22 C15         8.7878    2.2293    1.1389 C.1       1 <0>         0.1754
     23 N6          8.9168    2.8546    2.0785 N.1       1 <0>        -0.3864
     24 H2         -2.4564    4.7805    0.0410 H         1 <0>         0.1473
     25 H3         -0.2986    3.5855    0.0328 H         1 <0>         0.1376
     26 H4         -4.4306    0.9642    0.0284 H         1 <0>         0.1735
     27 H5          0.0039   -0.1341    0.0059 H         1 <0>         0.4387
     28 H6          1.2886    2.3535   -0.8958 H         1 <0>         0.0879
     29 H7          1.3058    2.3438    0.9004 H         1 <0>         0.0871
     30 H8          2.3827    0.0992    0.8781 H         1 <0>         0.1406
     31 H9          2.3656    0.1089   -0.9181 H         1 <0>         0.1415
     32 H10         3.7269    2.1270   -0.9203 H         1 <0>         0.4627
     33 H11         4.8156   -0.0589    0.8540 H         1 <0>         0.1620
     34 H12         4.7984   -0.0494   -0.9421 H         1 <0>         0.1643
     35 H13         7.4667   -1.0844    0.9561 H         1 <0>         0.0879
     36 H14         6.7232   -1.1768   -0.6765 H         1 <0>         0.0905
     37 H15         9.3204   -1.8728   -0.3861 H         1 <0>         0.1043
     38 H16         8.8311   -0.8758   -1.7979 H         1 <0>         0.0921
     39 H17        10.0713    0.0509    0.8824 H         1 <0>         0.0963
     40 H18        10.5347    0.5551   -0.7783 H         1 <0>         0.1133
     41 H19         3.7440    2.1173    0.8759 H         1 <0>         0.4625
@<TRIPOS>BOND
     1    1    6 ar
     2    1    2 ar
     3    1   24 1
     4    2    3 ar
     5    2   25 1
     6    3    4 ar
     7    3    9 1
     8    4    5 ar
     9    5    6 ar
    10    5   26 1
    11    6    7 1
    12    7    8 3
    13    9   10 1
    14    9   27 1
    15   10   11 1
    16   10   28 1
    17   10   29 1
    18   11   12 1
    19   11   30 1
    20   11   31 1
    21   12   13 1
    22   12   32 1
    23   12   41 1
    24   13   14 1
    25   13   33 1
    26   13   34 1
    27   14   15 2
    28   14   16 am
    29   16   20 1
    30   16   17 1
    31   17   18 1
    32   17   35 1
    33   17   36 1
    34   18   19 1
    35   18   37 1
    36   18   38 1
    37   19   20 1
    38   19   39 1
    39   19   40 1
    40   20   21 1
    41   20   22 1
    42   22   23 3
@<TRIPOS>MOLECULE
ZINC03931585
   32    32     0     0     0
SMALL
USER_CHARGES
2-amino-3-methyl-1-thiazolidin-3-yl-pentan-1-one
@<TRIPOS>ATOM
      1 C1          4.5543    2.2439   -2.3610 C.3       1 <0>        -0.1608
      2 C2          3.4512    1.2091   -2.5920 C.3       1 <0>        -0.1309
      3 C3          2.0916    1.8325   -2.2698 C.3       1 <0>        -0.1039
      4 H1          1.9620    2.7437   -2.8538 H         1 <0>         0.1082
      5 C4          2.0253    2.1687   -0.7786 C.3       1 <0>        -0.1617
      6 C5          0.9802    0.8406   -2.6188 C.3       1 <0>         0.0152
      7 H2          1.0809   -0.0507   -1.9995 H         1 <0>         0.1585
      8 C6         -0.3610    1.4794   -2.3654 C.2       1 <0>         0.5122
      9 O1         -0.8455    2.2214   -3.1934 O.2       1 <0>        -0.5051
     10 N1         -1.0221    1.2261   -1.2185 N.am      1 <0>        -0.5948
     11 C7         -2.2685    1.9063   -0.8782 C.3       1 <0>         0.0918
     12 C8         -2.4030    2.0769    0.6637 C.3       1 <0>        -0.0727
     13 S1         -1.6927    0.4456    1.1819 S.3       1 <0>        -0.2367
     14 C9         -0.5293    0.2449   -0.2332 C.3       1 <0>         0.1174
     15 H3          5.5229    1.7998   -2.5906 H         1 <0>         0.0707
     16 H4          4.3865    3.1045   -3.0085 H         1 <0>         0.0629
     17 H5          4.5393    2.5645   -1.3193 H         1 <0>         0.0689
     18 H6          3.6189    0.3485   -1.9445 H         1 <0>         0.0843
     19 H7          3.4661    0.8885   -3.6337 H         1 <0>         0.0599
     20 H8          1.0864    2.6785   -0.5625 H         1 <0>         0.0664
     21 H9          2.0819    1.2493   -0.1960 H         1 <0>         0.0725
     22 H10         2.8602    2.8179   -0.5151 H         1 <0>         0.0927
     23 H11        -2.2816    2.8887   -1.3503 H         1 <0>         0.1107
     24 H12        -3.1097    1.3198   -1.2477 H         1 <0>         0.0965
     25 H13        -1.8009    2.9087    1.0294 H         1 <0>         0.1091
     26 H14        -3.4452    2.1774    0.9669 H         1 <0>         0.1391
     27 H15        -0.5841   -0.7664   -0.6363 H         1 <0>         0.1136
     28 H16         0.4904    0.4824    0.0700 H         1 <0>         0.1126
     29 H17         0.9943    1.2766   -4.6308 H         1 <0>         0.4463
     30 H18         1.9485   -0.0214   -4.2181 H         1 <0>         0.4450
     31 N2          1.0646    0.4515   -4.0376 N.4       1 <0>        -0.6321
     32 H19         0.2916   -0.1871   -4.2589 H         1 <0>         0.4442
@<TRIPOS>BOND
     1    1    2 1
     2    1   15 1
     3    1   16 1
     4    1   17 1
     5    2    3 1
     6    2   18 1
     7    2   19 1
     8    3    4 1
     9    3    5 1
    10    3    6 1
    11    5   20 1
    12    5   21 1
    13    5   22 1
    14    6    7 1
    15    6    8 1
    16    6   31 1
    17    8    9 2
    18    8   10 am
    19   10   14 1
    20   10   11 1
    21   11   12 1
    22   11   23 1
    23   11   24 1
    24   12   13 1
    25   12   25 1
    26   12   26 1
    27   13   14 1
    28   14   27 1
    29   14   28 1
    30   29   31 1
    31   30   31 1
    32   31   32 1
@<TRIPOS>MOLECULE
ZINC27557503
   32    32     0     0     0
SMALL
USER_CHARGES
(2R,3R)-2-amino-3-methyl-1-thiazolidin-3-yl-pentan-1-one
@<TRIPOS>ATOM
      1 C1          0.3084    0.2028    0.7537 C.3       1 <0>        -0.1629
      2 C2         -0.5354    1.0900    1.6712 C.3       1 <0>        -0.1296
      3 C3         -1.9901    0.6168    1.6415 C.3       1 <0>        -0.1046
      4 H1         -2.3477    0.5959    0.6015 H         1 <0>         0.1083
      5 C4         -2.0818   -0.7880    2.2406 C.3       1 <0>        -0.1654
      6 C5         -2.8557    1.5775    2.4592 C.3       1 <0>         0.0217
      7 H2         -2.5445    1.5870    3.5142 H         1 <0>         0.1529
      8 C6         -4.3006    1.1612    2.3587 C.2       1 <0>         0.5124
      9 O1         -4.9418    1.4311    1.3653 O.2       1 <0>        -0.5075
     10 N1         -4.8802    0.4889    3.3729 N.am      1 <0>        -0.5986
     11 C7         -6.3014    0.1541    3.3660 C.3       1 <0>         0.0835
     12 C8         -6.5547   -1.1874    4.1208 C.3       1 <0>        -0.0827
     13 S1         -5.3428   -0.9527    5.4977 S.3       1 <0>        -0.2147
     14 C9         -4.1174    0.0535    4.5583 C.3       1 <0>         0.1148
     15 N2         -2.7016    2.9415    1.9359 N.4       1 <0>        -0.6759
     16 H3          1.3542    0.5431    0.7751 H         1 <0>         0.0709
     17 H4         -0.0772    0.2671   -0.2745 H         1 <0>         0.0632
     18 H5          0.2547   -0.8396    1.1009 H         1 <0>         0.0694
     19 H6         -0.1498    1.0257    2.6994 H         1 <0>         0.0845
     20 H7         -0.4818    2.1324    1.3240 H         1 <0>         0.0597
     21 H8         -3.1277   -1.1282    2.2192 H         1 <0>         0.0659
     22 H9         -1.7242   -0.7671    3.2806 H         1 <0>         0.0740
     23 H10        -1.4595   -1.4787    1.6527 H         1 <0>         0.0919
     24 H11        -6.8691    0.9546    3.8629 H         1 <0>         0.0959
     25 H12        -6.6483    0.0490    2.3274 H         1 <0>         0.1120
     26 H13        -7.6069   -1.2369    4.4375 H         1 <0>         0.1395
     27 H14        -6.3331   -2.0320    3.4519 H         1 <0>         0.1083
     28 H15        -3.2455   -0.5354    4.2373 H         1 <0>         0.1134
     29 H16        -3.7771    0.9360    5.1199 H         1 <0>         0.1107
     30 H17        -3.3239    3.6322    2.5238 H         1 <0>         0.4608
     31 H18        -3.0185    2.9682    0.8829 H         1 <0>         0.4650
     32 H19        -1.6469    3.2454    2.0092 H         1 <0>         0.4630
@<TRIPOS>BOND
     1    1    2 1
     2    1   16 1
     3    1   17 1
     4    1   18 1
     5    2    3 1
     6    2   19 1
     7    2   20 1
     8    3    4 1
     9    3    5 1
    10    3    6 1
    11    5   21 1
    12    5   22 1
    13    5   23 1
    14    6    7 1
    15    6    8 1
    16    6   15 1
    17    8    9 2
    18    8   10 am
    19   10   14 1
    20   10   11 1
    21   11   12 1
    22   11   24 1
    23   11   25 1
    24   12   13 1
    25   12   26 1
    26   12   27 1
    27   13   14 1
    28   14   28 1
    29   14   29 1
    30   15   30 1
    31   15   31 1
    32   15   32 1
@<TRIPOS>MOLECULE
ZINC27557503
   31    31     0     0     0
SMALL
USER_CHARGES
(2R,3R)-2-amino-3-methyl-1-thiazolidin-3-yl-pentan-1-one
@<TRIPOS>ATOM
      1 C1          0.3084    0.2028    0.7537 C.3       1 <0>        -0.1552
      2 C2         -0.5354    1.0900    1.6712 C.3       1 <0>        -0.1204
      3 C3         -1.9901    0.6168    1.6415 C.3       1 <0>        -0.0781
      4 H1         -2.3477    0.5959    0.6015 H         1 <0>         0.0891
      5 C4         -2.0818   -0.7880    2.2406 C.3       1 <0>        -0.1605
      6 C5         -2.8557    1.5775    2.4592 C.3       1 <0>         0.0723
      7 H2         -2.5445    1.5870    3.5142 H         1 <0>         0.0536
      8 C6         -4.3006    1.1612    2.3587 C.2       1 <0>         0.5305
      9 O1         -4.9418    1.4311    1.3653 O.2       1 <0>        -0.5060
     10 N1         -4.8802    0.4889    3.3729 N.am      1 <0>        -0.6252
     11 C7         -6.3014    0.1541    3.3660 C.3       1 <0>         0.0889
     12 C8         -6.5547   -1.1874    4.1208 C.3       1 <0>        -0.0770
     13 S1         -5.3428   -0.9527    5.4977 S.3       1 <0>        -0.2524
     14 C9         -4.1174    0.0535    4.5583 C.3       1 <0>         0.1420
     15 N2         -2.7016    2.9415    1.9359 N.3       1 <0>        -0.8114
     16 H3          1.3542    0.5431    0.7751 H         1 <0>         0.0572
     17 H4         -0.0772    0.2671   -0.2745 H         1 <0>         0.0570
     18 H5          0.2547   -0.8396    1.1009 H         1 <0>         0.0574
     19 H6         -0.1498    1.0257    2.6994 H         1 <0>         0.0621
     20 H7         -0.4818    2.1324    1.3240 H         1 <0>         0.0722
     21 H8         -3.1277   -1.1282    2.2192 H         1 <0>         0.0545
     22 H9         -1.7242   -0.7671    3.2806 H         1 <0>         0.0599
     23 H10        -1.4595   -1.4787    1.6527 H         1 <0>         0.0715
     24 H11        -6.8691    0.9546    3.8629 H         1 <0>         0.0813
     25 H12        -6.6483    0.0490    2.3274 H         1 <0>         0.1028
     26 H13        -7.6069   -1.2369    4.4375 H         1 <0>         0.1292
     27 H14        -6.3331   -2.0320    3.4519 H         1 <0>         0.1020
     28 H15        -3.2455   -0.5354    4.2373 H         1 <0>         0.1073
     29 H16        -3.7771    0.9360    5.1199 H         1 <0>         0.1018
     30 H17        -3.3239    3.6322    2.5238 H         1 <0>         0.3432
     31 H18        -1.6469    3.2454    2.0092 H         1 <0>         0.3504
@<TRIPOS>BOND
     1    1    2 1
     2    1   16 1
     3    1   17 1
     4    1   18 1
     5    2    3 1
     6    2   19 1
     7    2   20 1
     8    3    4 1
     9    3    5 1
    10    3    6 1
    11    5   21 1
    12    5   22 1
    13    5   23 1
    14    6    7 1
    15    6    8 1
    16    6   15 1
    17    8    9 2
    18    8   10 am
    19   10   14 1
    20   10   11 1
    21   11   12 1
    22   11   24 1
    23   11   25 1
    24   12   13 1
    25   12   26 1
    26   12   27 1
    27   13   14 1
    28   14   28 1
    29   14   29 1
    30   15   30 1
    31   15   31 1
@<TRIPOS>MOLECULE
ZINC27557504
   32    32     0     0     0
SMALL
USER_CHARGES
(2R,3S)-2-amino-3-methyl-1-thiazolidin-3-yl-pentan-1-one
@<TRIPOS>ATOM
      1 C1          4.4630    3.2043    1.5546 C.3       1 <0>        -0.1630
      2 C2          3.5838    2.1184    2.1780 C.3       1 <0>        -0.1302
      3 C3          2.1143    2.5328    2.0790 C.3       1 <0>        -0.1119
      4 H1          1.8646    2.7507    1.0301 H         1 <0>         0.1202
      5 C4          1.8784    3.7825    2.9297 C.3       1 <0>        -0.1750
      6 C5          1.2280    1.3944    2.5882 C.3       1 <0>         0.0228
      7 H2          1.4575    0.4534    2.0669 H         1 <0>         0.1585
      8 C6         -0.2205    1.7527    2.3773 C.2       1 <0>         0.5137
      9 O1         -0.8809    2.1776    3.3015 O.2       1 <0>        -0.5144
     10 N1         -0.7821    1.6010    1.1615 N.am      1 <0>        -0.5936
     11 C7         -2.1756    1.9349    0.9142 C.3       1 <0>         0.0880
     12 C8         -2.6372    1.7162   -0.5477 C.3       1 <0>        -0.0800
     13 S1         -1.0008    1.7445   -1.4069 S.3       1 <0>        -0.2151
     14 C9         -0.0127    1.0858    0.0080 C.3       1 <0>         0.1208
     15 N2          1.4766    1.1834    4.0206 N.4       1 <0>        -0.6739
     16 H3          5.5195    2.9064    1.6258 H         1 <0>         0.0706
     17 H4          4.3122    4.1518    2.0926 H         1 <0>         0.0656
     18 H5          4.1894    3.3354    0.4973 H         1 <0>         0.0657
     19 H6          3.7346    1.1709    1.6400 H         1 <0>         0.0818
     20 H7          3.8574    1.9873    3.2353 H         1 <0>         0.0659
     21 H8          0.8219    4.0804    2.8585 H         1 <0>         0.0756
     22 H9          2.5157    4.6009    2.5635 H         1 <0>         0.0954
     23 H10         2.1281    3.5645    3.9786 H         1 <0>         0.0584
     24 H11        -2.8206    1.3111    1.5505 H         1 <0>         0.0951
     25 H12        -2.3455    2.9962    1.1484 H         1 <0>         0.0955
     26 H13        -3.1666    0.7551   -0.6251 H         1 <0>         0.1117
     27 H14        -3.3127    2.5319   -0.8449 H         1 <0>         0.1364
     28 H15         1.0133    1.4805    0.0459 H         1 <0>         0.1201
     29 H16         0.0155   -0.0131    0.0474 H         1 <0>         0.1092
     30 H17         0.8394    0.3649    4.3867 H         1 <0>         0.4623
     31 H18         1.2427    2.1054    4.5730 H         1 <0>         0.4614
     32 H19         2.5339    0.9219    4.1746 H         1 <0>         0.4625
@<TRIPOS>BOND
     1    1    2 1
     2    1   16 1
     3    1   17 1
     4    1   18 1
     5    2    3 1
     6    2   19 1
     7    2   20 1
     8    3    4 1
     9    3    5 1
    10    3    6 1
    11    5   21 1
    12    5   22 1
    13    5   23 1
    14    6    7 1
    15    6    8 1
    16    6   15 1
    17    8    9 2
    18    8   10 am
    19   10   14 1
    20   10   11 1
    21   11   12 1
    22   11   24 1
    23   11   25 1
    24   12   13 1
    25   12   26 1
    26   12   27 1
    27   13   14 1
    28   14   28 1
    29   14   29 1
    30   15   30 1
    31   15   31 1
    32   15   32 1
@<TRIPOS>MOLECULE
ZINC27557504
   31    31     0     0     0
SMALL
USER_CHARGES
(2R,3S)-2-amino-3-methyl-1-thiazolidin-3-yl-pentan-1-one
@<TRIPOS>ATOM
      1 C1          4.4630    3.2043    1.5546 C.3       1 <0>        -0.1559
      2 C2          3.5838    2.1184    2.1780 C.3       1 <0>        -0.1210
      3 C3          2.1143    2.5328    2.0790 C.3       1 <0>        -0.0805
      4 H1          1.8646    2.7507    1.0301 H         1 <0>         0.0746
      5 C4          1.8784    3.7825    2.9297 C.3       1 <0>        -0.1415
      6 C5          1.2280    1.3944    2.5882 C.3       1 <0>         0.0706
      7 H2          1.4575    0.4534    2.0669 H         1 <0>         0.0561
      8 C6         -0.2205    1.7527    2.3773 C.2       1 <0>         0.5277
      9 O1         -0.8809    2.1776    3.3015 O.2       1 <0>        -0.5041
     10 N1         -0.7821    1.6010    1.1615 N.am      1 <0>        -0.6220
     11 C7         -2.1756    1.9349    0.9142 C.3       1 <0>         0.0945
     12 C8         -2.6372    1.7162   -0.5477 C.3       1 <0>        -0.0741
     13 S1         -1.0008    1.7445   -1.4069 S.3       1 <0>        -0.2513
     14 C9         -0.0127    1.0858    0.0080 C.3       1 <0>         0.1464
     15 N2          1.4766    1.1834    4.0206 N.3       1 <0>        -0.8059
     16 H3          5.5195    2.9064    1.6258 H         1 <0>         0.0571
     17 H4          4.3122    4.1518    2.0926 H         1 <0>         0.0606
     18 H5          4.1894    3.3354    0.4973 H         1 <0>         0.0543
     19 H6          3.7346    1.1709    1.6400 H         1 <0>         0.0608
     20 H7          3.8574    1.9873    3.2353 H         1 <0>         0.0712
     21 H8          0.8219    4.0804    2.8585 H         1 <0>         0.0517
     22 H9          2.5157    4.6009    2.5635 H         1 <0>         0.0548
     23 H10         2.1281    3.5645    3.9786 H         1 <0>         0.0737
     24 H11        -2.8206    1.3111    1.5505 H         1 <0>         0.0818
     25 H12        -2.3455    2.9962    1.1484 H         1 <0>         0.0829
     26 H13        -3.1666    0.7551   -0.6251 H         1 <0>         0.1037
     27 H14        -3.3127    2.5319   -0.8449 H         1 <0>         0.1266
     28 H15         1.0133    1.4805    0.0459 H         1 <0>         0.1181
     29 H16         0.0155   -0.0131    0.0474 H         1 <0>         0.0965
     30 H17         0.8394    0.3649    4.3867 H         1 <0>         0.3451
     31 H18         2.5339    0.9219    4.1746 H         1 <0>         0.3476
@<TRIPOS>BOND
     1    1    2 1
     2    1   16 1
     3    1   17 1
     4    1   18 1
     5    2    3 1
     6    2   19 1
     7    2   20 1
     8    3    4 1
     9    3    5 1
    10    3    6 1
    11    5   21 1
    12    5   22 1
    13    5   23 1
    14    6    7 1
    15    6    8 1
    16    6   15 1
    17    8    9 2
    18    8   10 am
    19   10   14 1
    20   10   11 1
    21   11   12 1
    22   11   24 1
    23   11   25 1
    24   12   13 1
    25   12   26 1
    26   12   27 1
    27   13   14 1
    28   14   28 1
    29   14   29 1
    30   15   30 1
    31   15   31 1
@<TRIPOS>MOLECULE
ZINC14961096
   47    49     0     0     0
SMALL
USER_CHARGES
2-[[6-[(3R)-3-amino-1-piperidyl]-3-methyl-2,4-dioxo-pyrimidin-1-yl]methyl]benzonitrile
@<TRIPOS>ATOM
      1 C1          0.9963   -2.0788   -0.1325 C.3       1 <0>         0.0776
      2 N1          1.1043   -0.6183   -0.0931 N.am      1 <0>        -0.5535
      3 C2          2.3162   -0.0356   -0.1805 C.2       1 <0>         0.5512
      4 O1          3.3191   -0.7198   -0.2922 O.2       1 <0>        -0.5099
      5 C3          2.4169    1.3640   -0.1426 C.2       1 <0>        -0.3374
      6 C4          1.2771    2.1085   -0.0171 C.2       1 <0>         0.3911
      7 N2          0.0622    1.4729    0.0683 N.am      1 <0>        -0.5191
      8 C5         -0.0073    0.1296    0.0295 C.2       1 <0>         0.6904
      9 O2         -1.0910   -0.4164    0.1059 O.2       1 <0>        -0.5032
     10 C6         -1.1653    2.2623    0.1962 C.3       1 <0>         0.1463
     11 C7         -1.6044    2.7328   -1.1665 C.ar      1 <0>        -0.0796
     12 C8         -1.2163    3.9738   -1.6277 C.ar      1 <0>        -0.0921
     13 C9         -1.6188    4.4074   -2.8782 C.ar      1 <0>        -0.1056
     14 C10        -2.4122    3.6008   -3.6750 C.ar      1 <0>        -0.1020
     15 C11        -2.8071    2.3577   -3.2266 C.ar      1 <0>        -0.0754
     16 C12        -2.4000    1.9115   -1.9675 C.ar      1 <0>         0.0116
     17 C13        -2.8017    0.6197   -1.4976 C.1       1 <0>         0.2084
     18 N3         -3.1203   -0.4050   -1.1249 N.1       1 <0>        -0.3481
     19 N4          1.3459    3.4776    0.0222 N.pl3     1 <0>        -0.4929
     20 C14         1.3160    3.9665    1.4066 C.3       1 <0>         0.0404
     21 C15         1.2475    5.4953    1.4077 C.3       1 <0>        -0.1143
     22 C16         2.4690    6.0567    0.6748 C.3       1 <0>        -0.1446
     23 C17         2.5032    5.4941   -0.7489 C.3       1 <0>         0.0314
     24 H1          1.6143    5.8180   -1.2903 H         1 <0>         0.1537
     25 C18         2.5353    3.9653   -0.6875 C.3       1 <0>         0.0330
     26 H2          0.8796   -2.4068   -1.1654 H         1 <0>         0.0764
     27 H3          1.8985   -2.5214    0.2896 H         1 <0>         0.0971
     28 H4          0.1302   -2.3949    0.4491 H         1 <0>         0.0952
     29 H5          3.3809    1.8458   -0.2118 H         1 <0>         0.1676
     30 H6         -1.9489    1.6466    0.6379 H         1 <0>         0.1149
     31 H7         -0.9775    3.1251    0.8354 H         1 <0>         0.1114
     32 H8         -0.5971    4.6084   -1.0110 H         1 <0>         0.1357
     33 H9         -1.3122    5.3798   -3.2344 H         1 <0>         0.1299
     34 H10        -2.7232    3.9457   -4.6501 H         1 <0>         0.1373
     35 H11        -3.4266    1.7293   -3.8493 H         1 <0>         0.1379
     36 H12         0.4403    3.5633    1.9153 H         1 <0>         0.1024
     37 H13         2.2182    3.6430    1.9256 H         1 <0>         0.0709
     38 H14         1.2410    5.8586    2.4354 H         1 <0>         0.1042
     39 H15         0.3384    5.8192    0.9009 H         1 <0>         0.0912
     40 H16         3.3767    5.7654    1.2034 H         1 <0>         0.0911
     41 H17         2.4024    7.1439    0.6354 H         1 <0>         0.0997
     42 H18         3.4319    3.6419   -0.1587 H         1 <0>         0.0829
     43 H19         2.5452    3.5615   -1.6999 H         1 <0>         0.1141
     44 H20         3.7056    6.9901   -1.4938 H         1 <0>         0.4448
     45 H21         4.5420    5.6425   -0.9936 H         1 <0>         0.4373
     46 N5          3.7002    5.9719   -1.4633 N.4       1 <0>        -0.6434
     47 H22         3.6881    5.6080   -2.4233 H         1 <0>         0.4441
@<TRIPOS>BOND
     1    1    2 1
     2    1   26 1
     3    1   27 1
     4    1   28 1
     5    2    8 am
     6    2    3 am
     7    3    4 2
     8    3    5 1
     9    5    6 2
    10    5   29 1
    11    6    7 1
    12    6   19 1
    13    7    8 am
    14    7   10 1
    15    8    9 2
    16   10   11 1
    17   10   30 1
    18   10   31 1
    19   11   16 ar
    20   11   12 ar
    21   12   13 ar
    22   12   32 1
    23   13   14 ar
    24   13   33 1
    25   14   15 ar
    26   14   34 1
    27   15   16 ar
    28   15   35 1
    29   16   17 1
    30   17   18 3
    31   19   25 1
    32   19   20 1
    33   20   21 1
    34   20   36 1
    35   20   37 1
    36   21   22 1
    37   21   38 1
    38   21   39 1
    39   22   23 1
    40   22   40 1
    41   22   41 1
    42   23   24 1
    43   23   25 1
    44   23   46 1
    45   25   42 1
    46   25   43 1
    47   44   46 1
    48   45   46 1
    49   46   47 1
@<TRIPOS>MOLECULE
ZINC13687371
   41    42     0     0     0
SMALL
USER_CHARGES

@<TRIPOS>ATOM
      1 C1          2.3821    1.0466   -2.3091 C.3       1 <0>        -0.1293
      2 C2          2.5206   -0.4308   -2.7531 C.3       1 <0>        -0.1342
      3 C3          1.3732   -1.1286   -1.9813 C.3       1 <0>        -0.1396
      4 C4          1.3570   -0.4240   -0.6090 C.3       1 <0>         0.0559
      5 C5          1.9985    0.9591   -0.8175 C.3       1 <0>        -0.1307
      6 C6         -0.0835   -0.2650   -0.1185 C.3       1 <0>         0.0596
      7 O1         -0.0792    0.2718    1.2058 O.3       1 <0>        -0.5777
      8 N1          2.1379   -1.1994    0.3640 N.4       1 <0>        -0.4820
      9 C7          1.4823   -2.4929    0.5985 C.3       1 <0>        -0.0486
     10 C8          2.2180   -3.2399    1.6810 C.2       1 <0>         0.5253
     11 O2          3.1924   -2.7436    2.2056 O.2       1 <0>        -0.4964
     12 N2          1.7930   -4.4596    2.0663 N.am      1 <0>        -0.5930
     13 C9          0.6326   -5.1800    1.5115 C.3       1 <0>         0.2178
     14 H1         -0.2826   -4.8711    2.0166 H         1 <0>         0.1531
     15 C10         0.9240   -6.6756    1.7905 C.3       1 <0>        -0.1264
     16 C11         1.6041   -6.6059    3.1833 C.3       1 <0>        -0.1210
     17 C12         2.4138   -5.2946    3.1050 C.3       1 <0>         0.2425
     18 H2          2.3766   -4.7804    4.0654 H         1 <0>         0.1443
     19 C13         3.8107   -5.5866    2.7441 C.1       1 <0>         0.1748
     20 N3          4.8887   -5.8119    2.4656 N.1       1 <0>        -0.3771
     21 C14         0.5240   -4.9383    0.0635 C.1       1 <0>         0.1764
     22 N4          0.4402   -4.7518   -1.0539 N.1       1 <0>        -0.3765
     23 H3          3.3299    1.5714   -2.4291 H         1 <0>         0.0900
     24 H4          1.5954    1.5434   -2.8769 H         1 <0>         0.0864
     25 H5          2.3760   -0.5260   -3.8292 H         1 <0>         0.0964
     26 H6          3.4881   -0.8347   -2.4550 H         1 <0>         0.0764
     27 H7          0.4235   -0.9831   -2.4961 H         1 <0>         0.1172
     28 H8          1.5846   -2.1912   -1.8620 H         1 <0>         0.0864
     29 H9          2.8892    1.0549   -0.1966 H         1 <0>         0.0900
     30 H10         1.2836    1.7435   -0.5692 H         1 <0>         0.1104
     31 H11        -0.6211    0.4115   -0.7830 H         1 <0>         0.0999
     32 H12        -0.5755   -1.2376   -0.1147 H         1 <0>         0.0700
     33 H13        -0.9611    0.3996    1.5813 H         1 <0>         0.4112
     34 H14         3.0672   -1.3539    0.0029 H         1 <0>         0.4326
     35 H15         0.4507   -2.3265    0.9086 H         1 <0>         0.1679
     36 H16         1.4955   -3.0788   -0.3205 H         1 <0>         0.1576
     37 H17        -0.0001   -7.2519    1.8354 H         1 <0>         0.1228
     38 H18         1.6034   -7.0872    1.0441 H         1 <0>         0.0946
     39 H19         0.8569   -6.5554    3.9753 H         1 <0>         0.1188
     40 H20         2.2677   -7.4579    3.3315 H         1 <0>         0.1115
     41 H21         2.1951   -0.6890    1.2326 H         1 <0>         0.4425
@<TRIPOS>BOND
     1    1    5 1
     2    1    2 1
     3    1   23 1
     4    1   24 1
     5    2    3 1
     6    2   25 1
     7    2   26 1
     8    3    4 1
     9    3   27 1
    10    3   28 1
    11    4    5 1
    12    4    6 1
    13    4    8 1
    14    5   29 1
    15    5   30 1
    16    6    7 1
    17    6   31 1
    18    6   32 1
    19    7   33 1
    20    8    9 1
    21    8   34 1
    22    8   41 1
    23    9   10 1
    24    9   35 1
    25    9   36 1
    26   10   11 2
    27   10   12 am
    28   12   17 1
    29   12   13 1
    30   13   14 1
    31   13   15 1
    32   13   21 1
    33   15   16 1
    34   15   37 1
    35   15   38 1
    36   16   17 1
    37   16   39 1
    38   16   40 1
    39   17   18 1
    40   17   19 1
    41   19   20 3
    42   21   22 3
@<TRIPOS>MOLECULE
ZINC13648755
   48    52     0     0     0
SMALL
USER_CHARGES

@<TRIPOS>ATOM
      1 C1         -0.6757    1.6073   -0.2628 C.3       1 <0>        -0.1024
      2 C2          0.7714    2.1048   -0.0442 C.3       1 <0>        -0.1547
      3 H1          0.9686    2.7113    0.8397 H         1 <0>         0.1332
      4 C3          1.6833    2.2341   -1.2652 C.3       1 <0>        -0.1492
      5 C4          1.6656    0.9096   -0.4232 C.3       1 <0>         0.0554
      6 H2          2.5364    0.6429    0.1759 H         1 <0>         0.1391
      7 N1          0.7720   -0.1813   -0.8565 N.am      1 <0>        -0.5955
      8 C5         -0.5259    0.0669   -0.1874 C.3       1 <0>         0.2220
      9 H3         -0.4936   -0.2660    0.8500 H         1 <0>         0.1363
     10 C6         -1.6202   -0.5975   -0.9138 C.1       1 <0>         0.1989
     11 N2         -2.4648   -1.1103   -1.4743 N.1       1 <0>        -0.3831
     12 C7          1.0744   -1.1957   -1.6908 C.2       1 <0>         0.5493
     13 O1          2.1437   -1.2121   -2.2629 O.2       1 <0>        -0.5039
     14 C8          0.0840   -2.3097   -1.9126 C.3       1 <0>         0.0498
     15 H4         -0.9209   -1.8935   -1.9840 H         1 <0>         0.1242
     16 C9          0.1479   -3.2900   -0.7397 C.3       1 <0>        -0.0752
     17 C10         1.5327   -3.9387   -0.6921 C.3       1 <0>        -0.1088
     18 C11         1.5966   -4.9191    0.4808 C.3       1 <0>        -0.0813
     19 H5          2.5832   -5.3813    0.5148 H         1 <0>         0.0774
     20 C12         1.3403   -4.1672    1.7885 C.3       1 <0>        -0.1107
     21 C13        -0.0445   -3.5185    1.7408 C.3       1 <0>        -0.0804
     22 H6         -0.2270   -2.9829    2.6724 H         1 <0>         0.0787
     23 C14        -0.1084   -2.5381    0.5679 C.3       1 <0>        -0.1245
     24 C15        -1.1092   -4.6020    1.5585 C.3       1 <0>        -0.1385
     25 C16        -0.8530   -5.3539    0.2508 C.3       1 <0>         0.1392
     26 C17         0.5318   -6.0026    0.2985 C.3       1 <0>        -0.1383
     27 C18        -0.9169   -4.3735   -0.9221 C.3       1 <0>        -0.0916
     28 O2         -1.8475   -6.3658    0.0805 O.3       1 <0>        -0.5594
     29 N3          0.4115   -3.0151   -3.1588 N.3       1 <0>        -0.8244
     30 H7         -1.3322    1.9703    0.5280 H         1 <0>         0.1053
     31 H8         -1.0446    1.9116   -1.2423 H         1 <0>         0.0872
     32 H9          1.2112    2.2307   -2.2476 H         1 <0>         0.0991
     33 H10         2.5639    2.8693   -1.1697 H         1 <0>         0.1137
     34 H11         1.7153   -4.4744   -1.6237 H         1 <0>         0.0660
     35 H12         2.2913   -3.1668   -0.5622 H         1 <0>         0.0714
     36 H13         1.3859   -4.8657    2.6241 H         1 <0>         0.0664
     37 H14         2.0989   -3.3953    1.9184 H         1 <0>         0.0668
     38 H15         0.6502   -1.7662    0.6979 H         1 <0>         0.0805
     39 H16        -1.0949   -2.0760    0.5340 H         1 <0>         0.0648
     40 H17        -1.0637   -5.3004    2.3941 H         1 <0>         0.0679
     41 H18        -2.0958   -4.1398    1.5245 H         1 <0>         0.0702
     42 H19         0.7144   -6.5382   -0.6331 H         1 <0>         0.0704
     43 H20         0.5773   -6.7010    1.1341 H         1 <0>         0.0673
     44 H21        -1.9035   -3.9113   -0.9560 H         1 <0>         0.0730
     45 H22        -0.7343   -4.9091   -1.8537 H         1 <0>         0.0696
     46 H23        -1.8647   -7.0236    0.7891 H         1 <0>         0.3773
     47 H24         1.3390   -3.4103   -3.1176 H         1 <0>         0.3510
     48 H25        -0.2753   -3.7253   -3.3636 H         1 <0>         0.3504
@<TRIPOS>BOND
     1    1    8 1
     2    1    2 1
     3    1   30 1
     4    1   31 1
     5    2    3 1
     6    2    5 1
     7    2    4 1
     8    4    5 1
     9    4   32 1
    10    4   33 1
    11    5    6 1
    12    5    7 1
    13    7    8 1
    14    7   12 am
    15    8    9 1
    16    8   10 1
    17   10   11 3
    18   12   13 2
    19   12   14 1
    20   14   15 1
    21   14   16 1
    22   14   29 1
    23   16   23 1
    24   16   27 1
    25   16   17 1
    26   17   18 1
    27   17   34 1
    28   17   35 1
    29   18   19 1
    30   18   26 1
    31   18   20 1
    32   20   21 1
    33   20   36 1
    34   20   37 1
    35   21   22 1
    36   21   23 1
    37   21   24 1
    38   23   38 1
    39   23   39 1
    40   24   25 1
    41   24   40 1
    42   24   41 1
    43   25   26 1
    44   25   27 1
    45   25   28 1
    46   26   42 1
    47   26   43 1
    48   27   44 1
    49   27   45 1
    50   28   46 1
    51   29   47 1
    52   29   48 1
@<TRIPOS>MOLECULE
ZINC14950346
   54    56     0     0     0
SMALL
USER_CHARGES

@<TRIPOS>ATOM
      1 C1         -0.0186    1.5257    0.0163 C.3       1 <0>        -0.1515
      2 C2          0.0020   -0.0037   -0.0218 C.3       1 <0>         0.1170
      3 C3          0.7300   -0.4724   -1.2837 C.3       1 <0>        -0.1704
      4 C4          2.1560    0.0873   -1.2834 C.3       1 <0>         0.1091
      5 N1          2.8150   -0.2983   -0.0281 N.pl3     1 <0>        -0.6000
      6 C5          2.1550    0.0241    1.2443 C.3       1 <0>         0.1111
      7 C6          0.7290   -0.5349    1.2157 C.3       1 <0>        -0.1240
      8 C7          4.0397   -0.9562   -0.0440 C.ar      1 <0>         0.4293
      9 C8          4.7054   -1.2003    1.1533 C.ar      1 <0>        -0.1677
     10 C9          5.9339   -1.8624    1.1197 C.ar      1 <0>         0.0183
     11 C10         6.4422   -2.2526   -0.1264 C.ar      1 <0>        -0.1275
     12 C11         5.7173   -1.9713   -1.2660 C.ar      1 <0>         0.1080
     13 N2          4.5569   -1.3481   -1.1969 N.ar      1 <0>        -0.5070
     14 C12         6.6793   -2.1442    2.3661 C.2       1 <0>         0.5107
     15 O1          6.2208   -1.7960    3.4444 O.co2     1 <0>        -0.6465
     16 O2          7.7538   -2.7251    2.3176 O.co2     1 <0>        -0.6447
     17 N3         -1.3764   -0.5115   -0.0352 N.3       1 <0>        -0.6563
     18 C13        -2.1069   -0.0207   -1.2114 C.3       1 <0>         0.0348
     19 C14        -3.5135   -0.5612   -1.1908 C.2       1 <0>         0.5298
     20 O3         -3.8721   -1.2841   -0.2854 O.2       1 <0>        -0.4894
     21 N4         -4.3729   -0.2412   -2.1784 N.am      1 <0>        -0.6141
     22 C15        -5.7726   -0.6928   -2.2792 C.3       1 <0>         0.2536
     23 H1         -5.8225   -1.6690   -2.7615 H         1 <0>         0.1077
     24 C16        -6.4725    0.3771   -3.1540 C.3       1 <0>        -0.1270
     25 C17        -5.3579    0.7206   -4.1772 C.3       1 <0>        -0.1213
     26 C18        -4.0717    0.6212   -3.3304 C.3       1 <0>         0.2281
     27 H2         -3.2719    0.1797   -3.9250 H         1 <0>         0.1275
     28 C19        -3.6721    1.9588   -2.8635 C.1       1 <0>         0.1798
     29 N5         -3.3638    2.9911   -2.5032 N.1       1 <0>        -0.3951
     30 C20        -6.3899   -0.7499   -0.9441 C.1       1 <0>        -0.2090
     31 C21        -6.8822   -0.7955    0.1207 C.1       1 <0>        -0.1518
     32 H3          1.0040    1.9027    0.0268 H         1 <0>         0.0657
     33 H4         -0.5364    1.9042   -0.8650 H         1 <0>         0.0570
     34 H5         -0.5382    1.8597    0.9144 H         1 <0>         0.0746
     35 H6          0.7667   -1.5617   -1.2991 H         1 <0>         0.0761
     36 H7          0.1985   -0.1134   -2.1650 H         1 <0>         0.0871
     37 H8          2.7098   -0.3230   -2.1278 H         1 <0>         0.0729
     38 H9          2.1220    1.1741   -1.3594 H         1 <0>         0.0967
     39 H10         2.7081   -0.4278    2.0677 H         1 <0>         0.1089
     40 H11         2.1209    1.1058    1.3745 H         1 <0>         0.0938
     41 H12         0.1968   -0.2202    2.1133 H         1 <0>         0.1030
     42 H13         0.7657   -1.6236    1.1767 H         1 <0>         0.0759
     43 H14         4.2787   -0.8824    2.0931 H         1 <0>         0.1817
     44 H15         7.3895   -2.7667   -0.1938 H         1 <0>         0.1820
     45 H16         6.1043   -2.2693   -2.2293 H         1 <0>         0.1994
     46 H17        -1.3907   -1.5196    0.0046 H         1 <0>         0.3554
     47 H18        -2.1360    1.0688   -1.1924 H         1 <0>         0.1047
     48 H19        -1.6025   -0.3549   -2.1180 H         1 <0>         0.0648
     49 H20        -7.3474   -0.0384   -3.6541 H         1 <0>         0.1037
     50 H21        -6.7417    1.2513   -2.5613 H         1 <0>         0.0842
     51 H22        -5.3450   -0.0041   -4.9913 H         1 <0>         0.1069
     52 H23        -5.4862    1.7323   -4.5622 H         1 <0>         0.0979
     53 H24        -7.3225   -0.8363    1.0731 H         1 <0>         0.2179
     54 H25         4.0699   -1.1684   -2.0163 H         1 <0>         0.4281
@<TRIPOS>BOND
     1    1    2 1
     2    1   32 1
     3    1   33 1
     4    1   34 1
     5    2    7 1
     6    2    3 1
     7    2   17 1
     8    3    4 1
     9    3   35 1
    10    3   36 1
    11    4    5 1
    12    4   37 1
    13    4   38 1
    14    5    6 1
    15    5    8 1
    16    6    7 1
    17    6   39 1
    18    6   40 1
    19    7   41 1
    20    7   42 1
    21    8   13 ar
    22    8    9 ar
    23    9   10 ar
    24    9   43 1
    25   10   11 ar
    26   10   14 1
    27   11   12 ar
    28   11   44 1
    29   12   13 ar
    30   12   45 1
    31   13   54 1
    32   14   15 2
    33   14   16 1
    34   17   18 1
    35   17   46 1
    36   18   19 1
    37   18   47 1
    38   18   48 1
    39   19   20 2
    40   19   21 am
    41   21   26 1
    42   21   22 1
    43   22   23 1
    44   22   24 1
    45   22   30 1
    46   24   25 1
    47   24   49 1
    48   24   50 1
    49   25   26 1
    50   25   51 1
    51   25   52 1
    52   26   27 1
    53   26   28 1
    54   28   29 3
    55   30   31 3
    56   31   53 1
@<TRIPOS>MOLECULE
ZINC40845866
   31    32     0     0     0
SMALL
USER_CHARGES

@<TRIPOS>ATOM
      1 C1         -0.0167    1.3782    0.0096 C.ar      1 <0>        -0.0763
      2 C2          1.1707    2.0857    0.0021 C.ar      1 <0>        -0.0780
      3 C3          2.3778    1.4105   -0.0131 C.ar      1 <0>        -0.0683
      4 C4          2.3961    0.0274   -0.0207 C.ar      1 <0>        -0.0777
      5 C5          1.2082   -0.6793   -0.0132 C.ar      1 <0>        -0.1142
      6 C6          0.0021   -0.0041    0.0020 C.ar      1 <0>        -0.1354
      7 C7         -1.2928   -0.7750    0.0103 C.3       1 <0>         0.0893
      8 H1         -2.0956   -0.1331    0.3729 H         1 <0>         0.1537
      9 C8         -1.6164   -1.2435   -1.4098 C.3       1 <0>        -0.0945
     10 C9         -2.9693   -1.9072   -1.4237 C.ar      1 <0>        -0.1370
     11 C10        -3.0669   -3.2800   -1.2969 C.ar      1 <0>        -0.1468
     12 C11        -4.3097   -3.8896   -1.3092 C.ar      1 <0>         0.1076
     13 C12        -5.4550   -3.1240   -1.4486 C.ar      1 <0>        -0.1082
     14 C13        -5.3575   -1.7517   -1.5754 C.ar      1 <0>        -0.1088
     15 C14        -4.1146   -1.1414   -1.5578 C.ar      1 <0>         0.1051
     16 F1         -4.0195    0.2010   -1.6767 F         1 <0>        -0.1239
     17 F2         -4.4050   -5.2316   -1.1856 F         1 <0>        -0.1222
     18 N1         -1.1623   -1.9419    0.8931 N.4       1 <0>        -0.6374
     19 Br1         4.0026    2.3779   -0.0240 Br        1 <0>        -0.0143
     20 H2         -0.9592    1.9053    0.0260 H         1 <0>         0.1458
     21 H3          1.1559    3.1656    0.0077 H         1 <0>         0.1489
     22 H4          3.3384   -0.5003   -0.0329 H         1 <0>         0.1472
     23 H5          1.2224   -1.7592   -0.0191 H         1 <0>         0.1308
     24 H6         -1.6257   -0.3857   -2.0822 H         1 <0>         0.1307
     25 H7         -0.8592   -1.9551   -1.7391 H         1 <0>         0.1102
     26 H8         -2.1736   -3.8772   -1.1885 H         1 <0>         0.1488
     27 H9         -6.4246   -3.5997   -1.4585 H         1 <0>         0.1578
     28 H10        -6.2508   -1.1546   -1.6844 H         1 <0>         0.1581
     29 H11        -0.4191   -2.5362    0.5574 H         1 <0>         0.4317
     30 H12        -0.9488   -1.6329    1.8296 H         1 <0>         0.4416
     31 H13        -2.0292   -2.4581    0.8986 H         1 <0>         0.4360
@<TRIPOS>BOND
     1    1    6 ar
     2    1    2 ar
     3    1   20 1
     4    2    3 ar
     5    2   21 1
     6    3    4 ar
     7    3   19 1
     8    4    5 ar
     9    4   22 1
    10    5    6 ar
    11    5   23 1
    12    6    7 1
    13    7    8 1
    14    7    9 1
    15    7   18 1
    16    9   10 1
    17    9   24 1
    18    9   25 1
    19   10   15 ar
    20   10   11 ar
    21   11   12 ar
    22   11   26 1
    23   12   13 ar
    24   12   17 1
    25   13   14 ar
    26   13   27 1
    27   14   15 ar
    28   14   28 1
    29   15   16 1
    30   18   29 1
    31   18   30 1
    32   18   31 1
@<TRIPOS>MOLECULE
ZINC40834809
   39    40     0     0     0
SMALL
USER_CHARGES

@<TRIPOS>ATOM
      1 C1         -0.0187    1.5258    0.0104 C.3       1 <0>        -0.1286
      2 C2          1.4167    2.0553   -0.0004 C.3       1 <0>        -0.1206
      3 C3          2.1328    1.5619   -1.2592 C.3       1 <0>        -0.1269
      4 C4          2.1536    0.0321   -1.2676 C.3       1 <0>        -0.1074
      5 C5          0.7182   -0.4975   -1.2568 C.3       1 <0>        -0.1316
      6 C6          0.0021   -0.0041    0.0020 C.3       1 <0>        -0.1192
      7 C7          2.8697   -0.4613   -2.5264 C.3       1 <0>         0.0155
      8 H1          3.8923   -0.0840   -2.5342 H         1 <0>         0.1672
      9 C8          2.8902   -1.9682   -2.5347 C.2       1 <0>         0.5206
     10 O1          2.0875   -2.5818   -3.2055 O.2       1 <0>        -0.5101
     11 N1          3.8005   -2.6338   -1.7967 N.am      1 <0>        -0.5927
     12 C9          4.8251   -2.0167   -0.9349 C.3       1 <0>         0.0795
     13 C10         5.1645   -3.1021    0.1170 C.3       1 <0>        -0.1306
     14 C11         5.0872   -4.3965   -0.7349 C.3       1 <0>        -0.1256
     15 C12         3.9320   -4.0957   -1.7128 C.3       1 <0>         0.2401
     16 H2          3.0049   -4.5305   -1.3392 H         1 <0>         0.1321
     17 C13         4.2474   -4.6470   -3.0407 C.1       1 <0>         0.1798
     18 N2          4.4908   -5.0725   -4.0655 N.1       1 <0>        -0.3852
     19 N3          2.1592    0.0253   -3.7166 N.4       1 <0>        -0.6233
     20 H3         -0.5289    1.8773    0.9072 H         1 <0>         0.0755
     21 H4         -0.5459    1.8868   -0.8726 H         1 <0>         0.0647
     22 H5          1.4019    3.1452    0.0056 H         1 <0>         0.0778
     23 H6          1.9439    1.6943    0.8826 H         1 <0>         0.0740
     24 H7          1.6057    1.9230   -2.1423 H         1 <0>         0.0618
     25 H8          3.1554    1.9392   -1.2670 H         1 <0>         0.0845
     26 H9          2.6808   -0.3290   -0.3846 H         1 <0>         0.1261
     27 H10         0.1910   -0.1364   -2.1398 H         1 <0>         0.0622
     28 H11         0.7330   -1.5874   -1.2628 H         1 <0>         0.0817
     29 H12         0.5293   -0.3651    0.8851 H         1 <0>         0.0727
     30 H13        -1.0205   -0.3814    0.0098 H         1 <0>         0.0766
     31 H14         5.7102   -1.7645   -1.5189 H         1 <0>         0.0901
     32 H15         4.4253   -1.1277   -0.4472 H         1 <0>         0.0930
     33 H16         6.1678   -2.9575    0.5179 H         1 <0>         0.1050
     34 H17         4.4242   -3.1160    0.9169 H         1 <0>         0.0924
     35 H18         6.0207   -4.5600   -1.2735 H         1 <0>         0.0936
     36 H19         4.8461   -5.2560   -0.1094 H         1 <0>         0.1110
     37 H20         1.2126   -0.3239   -3.7094 H         1 <0>         0.4412
     38 H21         2.1456    1.0342   -3.7110 H         1 <0>         0.4422
     39 H22         2.6315   -0.3001   -4.5467 H         1 <0>         0.4411
@<TRIPOS>BOND
     1    1    6 1
     2    1    2 1
     3    1   20 1
     4    1   21 1
     5    2    3 1
     6    2   22 1
     7    2   23 1
     8    3    4 1
     9    3   24 1
    10    3   25 1
    11    4    5 1
    12    4    7 1
    13    4   26 1
    14    5    6 1
    15    5   27 1
    16    5   28 1
    17    6   29 1
    18    6   30 1
    19    7    8 1
    20    7    9 1
    21    7   19 1
    22    9   10 2
    23    9   11 am
    24   11   15 1
    25   11   12 1
    26   12   13 1
    27   12   31 1
    28   12   32 1
    29   13   14 1
    30   13   33 1
    31   13   34 1
    32   14   15 1
    33   14   35 1
    34   14   36 1
    35   15   16 1
    36   15   17 1
    37   17   18 3
    38   19   37 1
    39   19   38 1
    40   19   39 1
@<TRIPOS>MOLECULE
ZINC38358483
   56    59     0     0     0
SMALL
USER_CHARGES

@<TRIPOS>ATOM
      1 C1         -0.0173    1.4248    0.0099 C.3       1 <0>         0.0234
      2 O1          0.0021   -0.0041    0.0020 O.3       1 <0>        -0.3025
      3 C2          0.6062   -0.6075   -1.0564 C.ar      1 <0>         0.1177
      4 C3          1.1727    0.1560   -2.0617 C.ar      1 <0>        -0.1735
      5 C4          1.7894   -0.4542   -3.1437 C.ar      1 <0>        -0.0529
      6 C5          1.8384   -1.8306   -3.2223 C.ar      1 <0>        -0.0891
      7 C6          1.2740   -2.6000   -2.2153 C.ar      1 <0>        -0.1720
      8 C7          0.6628   -1.9960   -1.1310 C.ar      1 <0>         0.1026
      9 O2          0.1154   -2.7557   -0.1448 O.3       1 <0>        -0.3010
     10 C8          0.2118   -4.1741   -0.2894 C.3       1 <0>         0.0267
     11 C9          2.4879   -2.5347   -4.3830 C.3       1 <0>         0.1401
     12 H1          1.7150   -2.8929   -5.0630 H         1 <0>         0.0670
     13 C10         3.3042   -3.7261   -3.8770 C.3       1 <0>        -0.1291
     14 C11         3.9348   -4.4457   -5.0732 C.3       1 <0>         0.0053
     15 H2          3.1483   -4.8358   -5.7191 H         1 <0>         0.1546
     16 C12         4.7990   -3.4569   -5.8602 C.3       1 <0>         0.1483
     17 H3          5.6117   -3.1006   -5.2273 H         1 <0>         0.1272
     18 C13         3.9387   -2.2705   -6.3031 C.3       1 <0>         0.0411
     19 N1          3.3816   -1.6261   -5.1055 N.3       1 <0>        -0.5248
     20 C14         2.6786   -0.3864   -5.4631 C.3       1 <0>         0.0555
     21 C15         2.3968    0.4215   -4.2097 C.3       1 <0>        -0.0783
     22 N2          5.3549   -4.1250   -7.0396 N.am      1 <0>        -0.6426
     23 C16         6.7902   -4.2835   -7.3018 C.3       1 <0>         0.1049
     24 C17         6.8933   -5.3889   -8.3760 C.3       1 <0>        -0.1410
     25 H4          7.7016   -5.1782   -9.0762 H         1 <0>         0.1253
     26 C18         5.5165   -5.2817   -9.0718 C.3       1 <0>        -0.1540
     27 C19         4.6160   -4.6766   -8.0176 C.2       1 <0>         0.5153
     28 O3          3.4037   -4.6855   -8.0513 O.2       1 <0>        -0.5056
     29 C20         7.0760   -6.7641   -7.7308 C.3       1 <0>         0.0725
     30 F1          7.2795   -7.7238   -8.7281 F         1 <0>        -0.1995
     31 N3          4.7705   -5.5545   -4.5935 N.4       1 <0>        -0.6331
     32 H5          1.0053    1.8021    0.0021 H         1 <0>         0.0579
     33 H6         -0.5445    1.7859   -0.8732 H         1 <0>         0.0581
     34 H7         -0.5275    1.7763    0.9067 H         1 <0>         0.1066
     35 H8          1.1340    1.2338   -2.0037 H         1 <0>         0.1406
     36 H9          1.3151   -3.6775   -2.2764 H         1 <0>         0.1321
     37 H10        -0.2632   -4.6594    0.5632 H         1 <0>         0.1053
     38 H11        -0.2893   -4.4806   -1.2076 H         1 <0>         0.0542
     39 H12         1.2616   -4.4643   -0.3342 H         1 <0>         0.0507
     40 H13         4.0896   -3.3725   -3.2090 H         1 <0>         0.1061
     41 H14         2.6507   -4.4143   -3.3409 H         1 <0>         0.1010
     42 H15         4.5567   -1.5559   -6.8468 H         1 <0>         0.1033
     43 H16         3.1362   -2.6245   -6.9502 H         1 <0>         0.0683
     44 H17         3.2899    0.1948   -6.1535 H         1 <0>         0.0916
     45 H18         1.7240   -0.6287   -5.9302 H         1 <0>         0.0466
     46 H19         1.7177    1.2446   -4.4318 H         1 <0>         0.0894
     47 H20         3.3443    0.8235   -3.8509 H         1 <0>         0.0875
     48 H21         7.2100   -3.3509   -7.6788 H         1 <0>         0.0972
     49 H22         7.3080   -4.5910   -6.3933 H         1 <0>         0.0874
     50 H23         5.5796   -4.6313   -9.9442 H         1 <0>         0.1232
     51 H24         5.1552   -6.2698   -9.3568 H         1 <0>         0.1152
     52 H25         7.9398   -6.7418   -7.0663 H         1 <0>         0.0878
     53 H26         6.1838   -7.0183   -7.1585 H         1 <0>         0.0584
     54 H27         4.2006   -6.2043   -4.0728 H         1 <0>         0.4399
     55 H28         5.1857   -6.0282   -5.3818 H         1 <0>         0.4288
     56 H29         5.4991   -5.1928   -3.9966 H         1 <0>         0.4341
@<TRIPOS>BOND
     1    1    2 1
     2    1   32 1
     3    1   33 1
     4    1   34 1
     5    2    3 1
     6    3    8 ar
     7    3    4 ar
     8    4    5 ar
     9    4   35 1
    10    5   21 1
    11    5    6 ar
    12    6    7 ar
    13    6   11 1
    14    7    8 ar
    15    7   36 1
    16    8    9 1
    17    9   10 1
    18   10   37 1
    19   10   38 1
    20   10   39 1
    21   11   12 1
    22   11   19 1
    23   11   13 1
    24   13   14 1
    25   13   40 1
    26   13   41 1
    27   14   15 1
    28   14   16 1
    29   14   31 1
    30   16   17 1
    31   16   18 1
    32   16   22 1
    33   18   19 1
    34   18   42 1
    35   18   43 1
    36   19   20 1
    37   20   21 1
    38   20   44 1
    39   20   45 1
    40   21   46 1
    41   21   47 1
    42   22   27 am
    43   22   23 1
    44   23   24 1
    45   23   48 1
    46   23   49 1
    47   24   25 1
    48   24   26 1
    49   24   29 1
    50   26   27 1
    51   26   50 1
    52   26   51 1
    53   27   28 2
    54   29   30 1
    55   29   52 1
    56   29   53 1
    57   31   54 1
    58   31   55 1
    59   31   56 1
@<TRIPOS>MOLECULE
ZINC38358483
   56    59     0     0     0
SMALL
USER_CHARGES

@<TRIPOS>ATOM
      1 C1         -0.0173    1.4248    0.0099 C.3       1 <0>         0.0209
      2 O1          0.0021   -0.0041    0.0020 O.3       1 <0>        -0.2958
      3 C2         -1.2011   -0.6379    0.0101 C.ar      1 <0>         0.1329
      4 C3         -2.3739    0.0967    0.0195 C.ar      1 <0>        -0.1660
      5 C4         -3.6026   -0.5451    0.0293 C.ar      1 <0>        -0.0824
      6 C5         -3.6607   -1.9238    0.0311 C.ar      1 <0>        -0.1244
      7 C6         -2.4878   -2.6640    0.0189 C.ar      1 <0>        -0.1525
      8 C7         -1.2589   -2.0283    0.0032 C.ar      1 <0>         0.1185
      9 O2         -0.1123   -2.7592   -0.0138 O.3       1 <0>        -0.2955
     10 C8         -0.2496   -4.1816   -0.0200 C.3       1 <0>         0.0213
     11 C9         -4.9746   -2.6568    0.0508 C.3       1 <0>         0.0902
     12 H1         -5.1784   -2.9928    1.0675 H         1 <0>         0.1430
     13 C10        -4.9066   -3.8751   -0.8724 C.3       1 <0>        -0.1309
     14 C11        -6.2347   -4.6350   -0.7947 C.3       1 <0>         0.0625
     15 H2         -6.3806   -5.0104    0.2182 H         1 <0>         0.0725
     16 C12        -7.3805   -3.6870   -1.1586 C.3       1 <0>         0.1474
     17 H3         -7.2658   -3.3578   -2.1913 H         1 <0>         0.1218
     18 C13        -7.3499   -2.4713   -0.2288 C.3       1 <0>        -0.0231
     19 N1         -6.0630   -1.7816   -0.3894 N.4       1 <0>        -0.3733
     20 C14        -6.0563   -0.5571    0.4218 C.3       1 <0>        -0.0039
     21 C15        -4.8544    0.2949    0.0348 C.3       1 <0>        -0.1003
     22 N2         -8.6593   -4.3857   -1.0077 N.am      1 <0>        -0.6187
     23 C16        -9.6183   -4.6023   -2.0974 C.3       1 <0>         0.1084
     24 C17       -10.5621   -5.7194   -1.5998 C.3       1 <0>        -0.1365
     25 H4        -11.5838   -5.5461   -1.9378 H         1 <0>         0.1211
     26 C18       -10.4531   -5.5640   -0.0652 C.3       1 <0>        -0.1531
     27 C19        -9.1025   -4.9157    0.1453 C.2       1 <0>         0.5200
     28 O3         -8.5075   -4.8775    1.2015 O.2       1 <0>        -0.5181
     29 C20       -10.0660   -7.0955   -2.0483 C.3       1 <0>         0.0699
     30 F1        -10.9996   -8.0704   -1.6806 F         1 <0>        -0.2054
     31 N3         -6.2110   -5.7619   -1.7368 N.3       1 <0>        -0.8361
     32 H5          1.0053    1.8021    0.0021 H         1 <0>         0.1112
     33 H6         -0.5445    1.7859   -0.8732 H         1 <0>         0.0604
     34 H7         -0.5275    1.7763    0.9067 H         1 <0>         0.0607
     35 H8         -2.3317    1.1759    0.0196 H         1 <0>         0.1478
     36 H9         -2.5341   -3.7430    0.0179 H         1 <0>         0.1455
     37 H10         0.7383   -4.6419   -0.0337 H         1 <0>         0.1111
     38 H11        -0.7859   -4.4987    0.8744 H         1 <0>         0.0586
     39 H12        -0.8061   -4.4890   -0.9054 H         1 <0>         0.0587
     40 H13        -4.7337   -3.5469   -1.8973 H         1 <0>         0.1040
     41 H14        -4.0937   -4.5282   -0.5551 H         1 <0>         0.1152
     42 H15        -8.1616   -1.7926   -0.4907 H         1 <0>         0.1399
     43 H16        -7.4691   -2.7999    0.8036 H         1 <0>         0.1447
     44 H17        -6.9766    0.0010    0.2495 H         1 <0>         0.1398
     45 H18        -5.9754   -0.8177    1.4771 H         1 <0>         0.1329
     46 H19        -4.7363    1.1160    0.7419 H         1 <0>         0.1256
     47 H20        -5.0230    0.6999   -0.9631 H         1 <0>         0.1026
     48 H21       -10.1825   -3.6898   -2.2902 H         1 <0>         0.0898
     49 H22        -9.0976   -4.9225   -2.9999 H         1 <0>         0.0956
     50 H23       -11.2508   -4.9235    0.3110 H         1 <0>         0.1195
     51 H24       -10.4848   -6.5395    0.4202 H         1 <0>         0.1145
     52 H25        -9.9415   -7.1017   -3.1311 H         1 <0>         0.0880
     53 H26        -9.1097   -7.3101   -1.5713 H         1 <0>         0.0697
     54 H27        -5.4604   -6.3999   -1.5186 H         1 <0>         0.3570
     55 H28        -7.0994   -6.2401   -1.7509 H         1 <0>         0.3495
     56 H29        -5.9242   -1.5363   -1.3583 H         1 <0>         0.4238
@<TRIPOS>BOND
     1    1    2 1
     2    1   32 1
     3    1   33 1
     4    1   34 1
     5    2    3 1
     6    3    8 ar
     7    3    4 ar
     8    4    5 ar
     9    4   35 1
    10    5   21 1
    11    5    6 ar
    12    6    7 ar
    13    6   11 1
    14    7    8 ar
    15    7   36 1
    16    8    9 1
    17    9   10 1
    18   10   37 1
    19   10   38 1
    20   10   39 1
    21   11   12 1
    22   11   19 1
    23   11   13 1
    24   13   14 1
    25   13   40 1
    26   13   41 1
    27   14   15 1
    28   14   16 1
    29   14   31 1
    30   16   17 1
    31   16   18 1
    32   16   22 1
    33   18   19 1
    34   18   42 1
    35   18   43 1
    36   19   20 1
    37   19   56 1
    38   20   21 1
    39   20   44 1
    40   20   45 1
    41   21   46 1
    42   21   47 1
    43   22   27 am
    44   22   23 1
    45   23   24 1
    46   23   48 1
    47   23   49 1
    48   24   25 1
    49   24   26 1
    50   24   29 1
    51   26   27 1
    52   26   50 1
    53   26   51 1
    54   27   28 2
    55   29   30 1
    56   29   52 1
    57   29   53 1
    58   31   54 1
    59   31   55 1
@<TRIPOS>MOLECULE
ZINC38358483
   57    60     0     0     0
SMALL
USER_CHARGES

@<TRIPOS>ATOM
      1 C1         -0.0173    1.4248    0.0099 C.3       1 <0>         0.0181
      2 O1          0.0021   -0.0041    0.0020 O.3       1 <0>        -0.2910
      3 C2          0.6062   -0.6075   -1.0564 C.ar      1 <0>         0.1470
      4 C3          1.1727    0.1563   -2.0619 C.ar      1 <0>        -0.1668
      5 C4          1.7882   -0.4545   -3.1434 C.ar      1 <0>        -0.0712
      6 C5          1.8372   -1.8313   -3.2222 C.ar      1 <0>        -0.1458
      7 C6          1.2732   -2.6007   -2.2154 C.ar      1 <0>        -0.1590
      8 C7          0.6628   -1.9960   -1.1308 C.ar      1 <0>         0.1216
      9 O2          0.1158   -2.7554   -0.1441 O.3       1 <0>        -0.2907
     10 C8          0.2120   -4.1738   -0.2884 C.3       1 <0>         0.0222
     11 C9          2.4881   -2.5312   -4.3843 C.3       1 <0>         0.1026
     12 H1          1.7147   -2.8656   -5.0758 H         1 <0>         0.1542
     13 C10         3.2726   -3.7476   -3.8883 C.3       1 <0>        -0.1627
     14 C11         3.8808   -4.4742   -5.0922 C.3       1 <0>        -0.0060
     15 H2          3.0824   -4.8493   -5.7324 H         1 <0>         0.1731
     16 C12         4.7539   -3.4965   -5.8834 C.3       1 <0>         0.1246
     17 H3          5.5858   -3.1666   -5.2612 H         1 <0>         0.1404
     18 C13         3.9144   -2.2851   -6.2974 C.3       1 <0>        -0.0203
     19 N1          3.3996   -1.6274   -5.0891 N.4       1 <0>        -0.3796
     20 C14         2.6747   -0.4063   -5.4643 C.3       1 <0>        -0.0036
     21 C15         2.3959    0.4166   -4.2133 C.3       1 <0>        -0.1046
     22 N2          5.2731   -4.1633   -7.0800 N.am      1 <0>        -0.6421
     23 C16         6.6994   -4.3520   -7.3698 C.3       1 <0>         0.1029
     24 C17         6.7576   -5.4468   -8.4581 C.3       1 <0>        -0.1414
     25 H4          7.5581   -5.2467   -9.1703 H         1 <0>         0.1326
     26 C18         5.3716   -5.2996   -9.1278 C.3       1 <0>        -0.1538
     27 C19         4.5043   -4.6861   -8.0508 C.2       1 <0>         0.5204
     28 O3          3.2917   -4.6665   -8.0629 O.2       1 <0>        -0.4997
     29 C20         6.9194   -6.8333   -7.8319 C.3       1 <0>         0.0720
     30 F1          7.0828   -7.7857   -8.8435 F         1 <0>        -0.1937
     31 N3          4.7025   -5.5980   -4.6232 N.4       1 <0>        -0.6303
     32 H5          1.0053    1.8021    0.0021 H         1 <0>         0.0634
     33 H6         -0.5445    1.7859   -0.8732 H         1 <0>         0.0644
     34 H7         -0.5275    1.7763    0.9067 H         1 <0>         0.1167
     35 H8          1.1347    1.2340   -2.0038 H         1 <0>         0.1525
     36 H9          1.3139   -3.6782   -2.2765 H         1 <0>         0.1418
     37 H10        -0.2626   -4.6588    0.5646 H         1 <0>         0.1149
     38 H11        -0.2897   -4.4805   -1.2062 H         1 <0>         0.0591
     39 H12         1.2617   -4.4641   -0.3337 H         1 <0>         0.0545
     40 H13         4.0687   -3.4203   -3.2196 H         1 <0>         0.1226
     41 H14         2.6018   -4.4220   -3.3561 H         1 <0>         0.1439
     42 H15         4.5363   -1.5854   -6.8557 H         1 <0>         0.1593
     43 H16         3.0849   -2.6143   -6.9233 H         1 <0>         0.1565
     44 H17         3.2751    0.1753   -6.1639 H         1 <0>         0.1469
     45 H18         1.7244   -0.6726   -5.9272 H         1 <0>         0.1390
     46 H19         1.7117    1.2320   -4.4481 H         1 <0>         0.1327
     47 H20         3.3381    0.8292   -3.8522 H         1 <0>         0.1067
     48 H21         7.1342   -3.4250   -7.7437 H         1 <0>         0.1041
     49 H22         7.2258   -4.6821   -6.4742 H         1 <0>         0.0939
     50 H23         5.4344   -4.6406   -9.9938 H         1 <0>         0.1312
     51 H24         4.9823   -6.2756   -9.4174 H         1 <0>         0.1241
     52 H25         7.7951   -6.8389   -7.1828 H         1 <0>         0.0900
     53 H26         6.0318   -7.0735   -7.2466 H         1 <0>         0.0568
     54 H27         4.1268   -6.2398   -4.0991 H         1 <0>         0.4507
     55 H28         5.1027   -6.0761   -5.4165 H         1 <0>         0.4395
     56 H29         5.4423   -5.2500   -4.0319 H         1 <0>         0.4388
     57 H30         4.1655   -1.3823   -4.4796 H         1 <0>         0.4266
@<TRIPOS>BOND
     1    1    2 1
     2    1   32 1
     3    1   33 1
     4    1   34 1
     5    2    3 1
     6    3    8 ar
     7    3    4 ar
     8    4    5 ar
     9    4   35 1
    10    5   21 1
    11    5    6 ar
    12    6    7 ar
    13    6   11 1
    14    7    8 ar
    15    7   36 1
    16    8    9 1
    17    9   10 1
    18   10   37 1
    19   10   38 1
    20   10   39 1
    21   11   12 1
    22   11   19 1
    23   11   13 1
    24   13   14 1
    25   13   40 1
    26   13   41 1
    27   14   15 1
    28   14   16 1
    29   14   31 1
    30   16   17 1
    31   16   18 1
    32   16   22 1
    33   18   19 1
    34   18   42 1
    35   18   43 1
    36   19   20 1
    37   19   57 1
    38   20   21 1
    39   20   44 1
    40   20   45 1
    41   21   46 1
    42   21   47 1
    43   22   27 am
    44   22   23 1
    45   23   24 1
    46   23   48 1
    47   23   49 1
    48   24   25 1
    49   24   26 1
    50   24   29 1
    51   26   27 1
    52   26   50 1
    53   26   51 1
    54   27   28 2
    55   29   30 1
    56   29   52 1
    57   29   53 1
    58   31   54 1
    59   31   55 1
    60   31   56 1
@<TRIPOS>MOLECULE
ZINC26396245
   41    42     0     0     0
SMALL
USER_CHARGES
6-[2-[[2-[(2S)-2-cyanopyrrolidin-1-yl]-2-oxo-ethyl]amino]ethylamino]pyridine-3-carbonitrile
@<TRIPOS>ATOM
      1 C1         -1.2361    2.1230    0.0194 C.ar      1 <0>         0.0169
      2 C2         -1.2070    3.4919    0.0324 C.ar      1 <0>        -0.2402
      3 C3          0.0211    4.1497    0.0238 C.ar      1 <0>         0.4237
      4 N1          1.1589    3.4690    0.0092 N.ar      1 <0>        -0.5333
      5 C4          1.1761    2.1523    0.0024 C.ar      1 <0>         0.2112
      6 C5         -0.0173    1.4278    0.0099 C.ar      1 <0>        -0.1260
      7 C6          0.0021   -0.0041    0.0020 C.1       1 <0>         0.2487
      8 N2          0.0175   -1.1399   -0.0042 N.1       1 <0>        -0.3998
      9 N3          0.0540    5.5352    0.0300 N.pl3     1 <0>        -0.7336
     10 C7         -1.1970    6.2976    0.0461 C.3       1 <0>         0.1057
     11 C8         -0.8818    7.7948    0.0500 C.3       1 <0>        -0.0116
     12 N4         -2.1361    8.5592    0.0661 N.4       1 <0>        -0.5261
     13 C9         -1.8720   10.0042    0.0704 C.3       1 <0>        -0.0189
     14 C10        -3.1792   10.7538    0.0869 C.2       1 <0>         0.5141
     15 O1         -4.2277   10.1443    0.0945 O.2       1 <0>        -0.5185
     16 N5         -3.1832   12.1015    0.0934 N.am      1 <0>        -0.5963
     17 C11        -1.9878   12.9643    0.0920 C.3       1 <0>         0.0807
     18 C12        -2.4601   14.3013    0.7102 C.3       1 <0>        -0.1324
     19 C13        -3.8981   14.4204    0.1396 C.3       1 <0>        -0.1221
     20 C14        -4.3804   12.9548    0.1093 C.3       1 <0>         0.2459
     21 H1         -5.0114   12.6877    0.9698 H         1 <0>         0.1329
     22 C15        -5.1832   12.7136   -1.1007 C.1       1 <0>         0.1755
     23 N6         -5.8027   12.5275   -2.0345 N.1       1 <0>        -0.3864
     24 H2         -2.1757    1.5906    0.0209 H         1 <0>         0.1473
     25 H3         -2.1276    4.0565    0.0443 H         1 <0>         0.1376
     26 H4          2.1207    1.6289   -0.0095 H         1 <0>         0.1735
     27 H5          1.0194    6.0625    0.0228 H         1 <0>         0.4387
     28 H6         -1.7889    6.0498   -0.8474 H         1 <0>         0.0872
     29 H7         -1.7710    6.0414    0.9488 H         1 <0>         0.0878
     30 H8         -0.2899    8.0425    0.9435 H         1 <0>         0.1415
     31 H9         -0.3078    8.0510   -0.8527 H         1 <0>         0.1406
     32 H10        -2.7279    8.3115   -0.8274 H         1 <0>         0.4625
     33 H11        -1.2871   10.2674    0.9641 H         1 <0>         0.1643
     34 H12        -1.3049   10.2760   -0.8321 H         1 <0>         0.1620
     35 H13        -1.1962   12.4950    0.6946 H         1 <0>         0.0905
     36 H14        -1.6325   13.0970   -0.9406 H         1 <0>         0.0878
     37 H15        -2.4337   14.2275    1.8074 H         1 <0>         0.0920
     38 H16        -1.7944   15.1128    0.3812 H         1 <0>         0.1044
     39 H17        -4.5053   15.0521    0.8046 H         1 <0>         0.1132
     40 H18        -3.8588   14.8739   -0.8618 H         1 <0>         0.0963
     41 H19        -2.7102    8.3029    0.9687 H         1 <0>         0.4627
@<TRIPOS>BOND
     1    1    6 ar
     2    1    2 ar
     3    1   24 1
     4    2    3 ar
     5    2   25 1
     6    3    4 ar
     7    3    9 1
     8    4    5 ar
     9    5    6 ar
    10    5   26 1
    11    6    7 1
    12    7    8 3
    13    9   10 1
    14    9   27 1
    15   10   11 1
    16   10   28 1
    17   10   29 1
    18   11   12 1
    19   11   30 1
    20   11   31 1
    21   12   13 1
    22   12   32 1
    23   12   41 1
    24   13   14 1
    25   13   33 1
    26   13   34 1
    27   14   15 2
    28   14   16 am
    29   16   20 1
    30   16   17 1
    31   17   18 1
    32   17   35 1
    33   17   36 1
    34   18   19 1
    35   18   37 1
    36   18   38 1
    37   19   20 1
    38   19   39 1
    39   19   40 1
    40   20   21 1
    41   20   22 1
    42   22   23 3
@<TRIPOS>MOLECULE
ZINC13523014
   46    49     0     0     0
SMALL
USER_CHARGES
2-(1-adamantylamino)-1-pyrrolidin-1-yl-ethanone
@<TRIPOS>ATOM
      1 C1         -8.2100    2.1086    4.2884 C.3       1 <0>        -0.1345
      2 C2         -8.9779    0.8359    3.8433 C.3       1 <0>        -0.1366
      3 C3         -8.6563    0.7925    2.3286 C.3       1 <0>         0.1009
      4 N1         -7.2594    1.2522    2.2260 N.am      1 <0>        -0.5968
      5 C4         -6.9457    2.0737    3.4042 C.3       1 <0>         0.0848
      6 C5         -6.4089    0.9626    1.2214 C.2       1 <0>         0.5121
      7 O1         -6.7757    0.2674    0.2978 O.2       1 <0>        -0.5310
      8 C6         -5.0022    1.5027    1.2457 C.3       1 <0>        -0.0283
      9 C7         -2.9042    1.5565    0.0381 C.3       1 <0>         0.0642
     10 C8         -2.1881    1.0631   -1.2207 C.3       1 <0>        -0.1266
     11 C9         -0.7527    1.5927   -1.2315 C.3       1 <0>        -0.0789
     12 C10        -0.0127    1.0858    0.0080 C.3       1 <0>        -0.1203
     13 C11        -0.7288    1.5792    1.2668 C.3       1 <0>        -0.0792
     14 C12        -2.1642    1.0497    1.2777 C.3       1 <0>        -0.1275
     15 C13        -0.7496    3.1091    1.2752 C.3       1 <0>        -0.1195
     16 C14        -1.4896    3.6159    0.0357 C.3       1 <0>        -0.0792
     17 C15        -0.7734    3.1225   -1.2231 C.3       1 <0>        -0.1203
     18 C16        -2.9250    3.0863    0.0466 C.3       1 <0>        -0.1275
     19 H1         -8.7993    3.0038    4.0898 H         1 <0>         0.0861
     20 H2         -7.9419    2.0481    5.3432 H         1 <0>         0.0934
     21 H3        -10.0490    0.9468    4.0123 H         1 <0>         0.0971
     22 H4         -8.5936   -0.0494    4.3499 H         1 <0>         0.0822
     23 H5         -9.3178    1.4637    1.7809 H         1 <0>         0.0829
     24 H6         -8.7495   -0.2255    1.9501 H         1 <0>         0.0890
     25 H7         -6.1173    1.6294    3.9561 H         1 <0>         0.0795
     26 H8         -6.6859    3.0853    3.0923 H         1 <0>         0.0800
     27 H9         -4.4896    1.1413    2.1371 H         1 <0>         0.1591
     28 H10        -5.0316    2.5923    1.2600 H         1 <0>         0.1592
     29 H11        -2.7153    1.4241   -2.1037 H         1 <0>         0.0890
     30 H12        -2.1733   -0.0268   -1.2266 H         1 <0>         0.0890
     31 H13        -0.2425    1.2411   -2.1283 H         1 <0>         0.0941
     32 H14         0.0021   -0.0041    0.0020 H         1 <0>         0.0719
     33 H15         1.0099    1.4631    0.0003 H         1 <0>         0.0809
     34 H16        -0.2017    1.2182    2.1499 H         1 <0>         0.0933
     35 H17        -2.6744    1.4012    2.1745 H         1 <0>         0.0847
     36 H18        -2.1494   -0.0402    1.2717 H         1 <0>         0.0884
     37 H19        -1.2598    3.4606    2.1720 H         1 <0>         0.0705
     38 H20         0.2730    3.4864    1.2675 H         1 <0>         0.0812
     39 H21        -1.5044    4.7058    0.0417 H         1 <0>         0.0933
     40 H22         0.2491    3.4998   -1.2308 H         1 <0>         0.0809
     41 H23        -1.3006    3.4836   -2.1062 H         1 <0>         0.0719
     42 H24        -3.4522    3.4474   -0.8365 H         1 <0>         0.0884
     43 H25        -3.4352    3.4378    0.9434 H         1 <0>         0.0847
     44 N2         -4.2866    1.0418    0.0410 N.4       1 <0>        -0.5004
     45 H26        -4.7765    1.3821   -0.7948 H         1 <0>         0.4370
     46 H27        -4.2659    0.0153    0.0313 H         1 <0>         0.4370
@<TRIPOS>BOND
     1    1    5 1
     2    1    2 1
     3    1   19 1
     4    1   20 1
     5    2    3 1
     6    2   21 1
     7    2   22 1
     8    3    4 1
     9    3   23 1
    10    3   24 1
    11    4    5 1
    12    4    6 am
    13    5   25 1
    14    5   26 1
    15    6    7 2
    16    6    8 1
    17    8   27 1
    18    8   28 1
    19    8   44 1
    20    9   14 1
    21    9   18 1
    22    9   10 1
    23    9   44 1
    24   10   11 1
    25   10   29 1
    26   10   30 1
    27   11   17 1
    28   11   12 1
    29   11   31 1
    30   12   13 1
    31   12   32 1
    32   12   33 1
    33   13   14 1
    34   13   15 1
    35   13   34 1
    36   14   35 1
    37   14   36 1
    38   15   16 1
    39   15   37 1
    40   15   38 1
    41   16   17 1
    42   16   18 1
    43   16   39 1
    44   17   40 1
    45   17   41 1
    46   18   42 1
    47   18   43 1
    48   44   45 1
    49   44   46 1
@<TRIPOS>MOLECULE
ZINC13561228
   46    47     0     0     0
SMALL
USER_CHARGES

@<TRIPOS>ATOM
      1 C1         -0.0167    1.3782    0.0096 C.ar      1 <0>        -0.0779
      2 C2          1.1706    2.0858    0.0021 C.ar      1 <0>        -0.1078
      3 C3          2.3780    1.4104   -0.0130 C.ar      1 <0>        -0.0040
      4 C4          2.3961    0.0270   -0.0206 C.ar      1 <0>        -0.1076
      5 C5          1.2082   -0.6795   -0.0130 C.ar      1 <0>        -0.0777
      6 C6          0.0021   -0.0041    0.0020 C.ar      1 <0>        -0.1693
      7 C7         -1.2928   -0.7750    0.0107 C.3       1 <0>         0.0468
      8 N1         -1.7272   -1.0180   -1.3714 N.4       1 <0>        -0.5080
      9 C8         -2.9895   -1.7695   -1.3629 C.3       1 <0>        -0.0113
     10 C9         -3.4420   -2.0226   -2.8024 C.3       1 <0>        -0.1915
     11 C10        -4.7566   -2.8053   -2.7936 C.3       1 <0>         0.0853
     12 H1         -5.4935   -2.2710   -2.1940 H         1 <0>         0.1156
     13 C11        -5.2656   -2.9482   -4.2048 C.2       1 <0>         0.5177
     14 O1         -5.0887   -3.9835   -4.8113 O.2       1 <0>        -0.5143
     15 N2         -5.9173   -1.9256   -4.7930 N.am      1 <0>        -0.6085
     16 C12        -6.1340   -0.6632   -4.0733 C.3       1 <0>         0.1010
     17 C13        -5.6021    0.4902   -4.9298 C.3       1 <0>        -0.1350
     18 C14        -6.2540    0.4356   -6.3133 C.3       1 <0>        -0.1252
     19 C15        -5.8896   -0.8831   -6.9991 C.3       1 <0>        -0.1352
     20 C16        -6.4194   -2.0499   -6.1682 C.3       1 <0>         0.1077
     21 N3         -4.5295   -4.1374   -2.2176 N.3       1 <0>        -0.8248
     22 Cl1         3.8696    2.2984   -0.0231 Cl        1 <0>        -0.0351
     23 H2         -0.9592    1.9053    0.0259 H         1 <0>         0.1419
     24 H3          1.1558    3.1656    0.0076 H         1 <0>         0.1479
     25 H4          3.3383   -0.5007   -0.0327 H         1 <0>         0.1480
     26 H5          1.2222   -1.7594   -0.0193 H         1 <0>         0.1418
     27 H6         -1.1447   -1.7283    0.5180 H         1 <0>         0.1414
     28 H7         -2.0551   -0.1989    0.5352 H         1 <0>         0.1420
     29 H8         -1.8643   -0.1355   -1.8410 H         1 <0>         0.4290
     30 H9         -2.8414   -2.7228   -0.8557 H         1 <0>         0.1331
     31 H10        -3.7518   -1.1934   -0.8384 H         1 <0>         0.1399
     32 H11        -3.5900   -1.0693   -3.3097 H         1 <0>         0.1008
     33 H12        -2.6796   -2.5987   -3.3269 H         1 <0>         0.0982
     34 H13        -7.1999   -0.5234   -3.8934 H         1 <0>         0.0789
     35 H14        -5.6011   -0.6883   -3.1227 H         1 <0>         0.0775
     36 H15        -5.8428    1.4396   -4.4514 H         1 <0>         0.0799
     37 H16        -4.5210    0.3982   -5.0331 H         1 <0>         0.0625
     38 H17        -7.3367    0.5029   -6.2075 H         1 <0>         0.0701
     39 H18        -5.8958    1.2698   -6.9167 H         1 <0>         0.0712
     40 H19        -6.3349   -0.9112   -7.9936 H         1 <0>         0.0827
     41 H20        -4.8057   -0.9623   -7.0829 H         1 <0>         0.0649
     42 H21        -6.0748   -2.9898   -6.5994 H         1 <0>         0.0962
     43 H22        -7.5091   -2.0258   -6.1629 H         1 <0>         0.0739
     44 H23        -3.8496   -4.6531   -2.7561 H         1 <0>         0.3609
     45 H24        -4.2494   -4.0703   -1.2506 H         1 <0>         0.3473
     46 H25        -1.0216   -1.5513   -1.8569 H         1 <0>         0.4291
@<TRIPOS>BOND
     1    1    6 ar
     2    1    2 ar
     3    1   23 1
     4    2    3 ar
     5    2   24 1
     6    3    4 ar
     7    3   22 1
     8    4    5 ar
     9    4   25 1
    10    5    6 ar
    11    5   26 1
    12    6    7 1
    13    7    8 1
    14    7   27 1
    15    7   28 1
    16    8    9 1
    17    8   29 1
    18    8   46 1
    19    9   10 1
    20    9   30 1
    21    9   31 1
    22   10   11 1
    23   10   32 1
    24   10   33 1
    25   11   12 1
    26   11   13 1
    27   11   21 1
    28   13   14 2
    29   13   15 am
    30   15   20 1
    31   15   16 1
    32   16   17 1
    33   16   34 1
    34   16   35 1
    35   17   18 1
    36   17   36 1
    37   17   37 1
    38   18   19 1
    39   18   38 1
    40   18   39 1
    41   19   20 1
    42   19   40 1
    43   19   41 1
    44   20   42 1
    45   20   43 1
    46   21   44 1
    47   21   45 1
