@<TRIPOS>MOLECULE
ZINC52956332
   66    69     0     0     0
SMALL
USER_CHARGES

@<TRIPOS>ATOM
      1 C1         -0.2570   -0.0396   -0.2249 C.3       1 <0>        -0.1481
      2 C2         -0.4777   -1.5512   -0.1410 C.3       1 <0>         0.0719
      3 C3          0.2510   -2.1058    1.0847 C.3       1 <0>        -0.1743
      4 O1         -1.8760   -1.8229   -0.0272 O.3       1 <0>        -0.2968
      5 C4         -2.3308   -2.9699   -0.5993 C.ar      1 <0>         0.1238
      6 C5         -1.4369   -3.8709   -1.1538 C.ar      1 <0>        -0.2108
      7 C6         -1.9007   -5.0365   -1.7356 C.ar      1 <0>        -0.0833
      8 C7         -3.2562   -5.3067   -1.7656 C.ar      1 <0>        -0.1528
      9 C8         -4.1549   -4.4130   -1.2140 C.ar      1 <0>        -0.0865
     10 C9         -3.6965   -3.2442   -0.6239 C.ar      1 <0>         0.1375
     11 N1         -4.6040   -2.3403   -0.0596 N.pl3     1 <0>        -0.6674
     12 C10        -5.1972   -1.2631   -0.8665 C.3       1 <0>         0.1547
     13 C11        -5.0050    0.0635   -0.1240 C.3       1 <0>         0.0426
     14 N2         -5.5408   -0.0593    1.2382 N.3       1 <0>        -0.5278
     15 C12        -4.8056   -1.0693    2.0110 C.3       1 <0>         0.0391
     16 C13        -4.9943   -2.4462    1.3545 C.3       1 <0>         0.1554
     17 C14        -5.5326    1.2387    1.9262 C.3       1 <0>         0.0947
     18 C15        -6.3064    1.1292    3.2147 C.ar      1 <0>        -0.0813
     19 C16        -7.6662    1.3854    3.2273 C.ar      1 <0>        -0.0744
     20 C17        -8.3840    1.2867    4.4058 C.ar      1 <0>        -0.1211
     21 C18        -7.7471    0.9321    5.5774 C.ar      1 <0>        -0.0675
     22 C19        -6.3760    0.6723    5.5716 C.ar      1 <0>        -0.1273
     23 C20        -5.6587    0.7682    4.3778 C.ar      1 <0>        -0.0879
     24 C21        -5.6870    0.2923    6.8233 C.2       1 <0>         0.5617
     25 O2         -6.1780   -0.5424    7.5580 O.2       1 <0>        -0.5326
     26 N3         -4.5146    0.8713    7.1497 N.am      1 <0>        -0.6059
     27 C22        -3.8640    1.8148    6.2303 C.3       1 <0>         0.0916
     28 C23        -3.5771    3.1180    6.9827 C.3       1 <0>        -0.1360
     29 C24        -2.7654    2.8071    8.2423 C.3       1 <0>        -0.1214
     30 C25        -3.5758    1.8882    9.1594 C.3       1 <0>        -0.1356
     31 C26        -3.8657    0.5757    8.4343 C.3       1 <0>         0.1105
     32 H1          0.8096    0.1676   -0.3117 H         1 <0>         0.0754
     33 H2         -0.7761    0.3555   -1.0981 H         1 <0>         0.0627
     34 H3         -0.6472    0.4351    0.6754 H         1 <0>         0.0636
     35 H4         -0.0875   -2.0259   -1.0413 H         1 <0>         0.0742
     36 H5         -0.1393   -1.6311    1.9850 H         1 <0>         0.0650
     37 H6          0.0937   -3.1828    1.1445 H         1 <0>         0.0608
     38 H7          1.3176   -1.8986    0.9979 H         1 <0>         0.0710
     39 H8         -0.3773   -3.6629   -1.1321 H         1 <0>         0.1279
     40 H9         -1.2021   -5.7375   -2.1681 H         1 <0>         0.1235
     41 H10        -3.6139   -6.2182   -2.2214 H         1 <0>         0.1239
     42 H11        -5.2133   -4.6264   -1.2391 H         1 <0>         0.1282
     43 H12        -4.7006   -1.2157   -1.8356 H         1 <0>         0.0685
     44 H13        -6.2613   -1.4538   -1.0061 H         1 <0>         0.0563
     45 H14        -3.9427    0.3033   -0.0768 H         1 <0>         0.0406
     46 H15        -5.5341    0.8563   -0.6529 H         1 <0>         0.0772
     47 H16        -3.7461   -0.8138    2.0285 H         1 <0>         0.0394
     48 H17        -5.1901   -1.0982    3.0305 H         1 <0>         0.0783
     49 H18        -6.0393   -2.7483    1.4243 H         1 <0>         0.0563
     50 H19        -4.3636   -3.1812    1.8544 H         1 <0>         0.0674
     51 H20        -4.5044    1.5283    2.1433 H         1 <0>         0.0422
     52 H21        -5.9950    1.9913    1.2875 H         1 <0>         0.0858
     53 H22        -8.1693    1.6640    2.3132 H         1 <0>         0.1285
     54 H23        -9.4450    1.4880    4.4089 H         1 <0>         0.1309
     55 H24        -8.3085    0.8561    6.4969 H         1 <0>         0.1292
     56 H25        -4.5982    0.5642    4.3658 H         1 <0>         0.1264
     57 H26        -2.9283    1.3874    5.8698 H         1 <0>         0.0700
     58 H27        -4.5244    2.0175    5.3871 H         1 <0>         0.0990
     59 H28        -3.0089    3.7912    6.3407 H         1 <0>         0.0765
     60 H29        -4.5182    3.5906    7.2637 H         1 <0>         0.0681
     61 H30        -1.8355    2.3122    7.9621 H         1 <0>         0.0648
     62 H31        -2.5388    3.7354    8.7666 H         1 <0>         0.0672
     63 H32        -3.0066    1.6860   10.0668 H         1 <0>         0.0777
     64 H33        -4.5169    2.3723    9.4200 H         1 <0>         0.0669
     65 H34        -4.5272   -0.0389    9.0449 H         1 <0>         0.0936
     66 H35        -2.9302    0.0450    8.2576 H         1 <0>         0.0683
@<TRIPOS>BOND
     1    1    2 1
     2    1   32 1
     3    1   33 1
     4    1   34 1
     5    2    3 1
     6    2    4 1
     7    2   35 1
     8    3   36 1
     9    3   37 1
    10    3   38 1
    11    4    5 1
    12    5   10 ar
    13    5    6 ar
    14    6    7 ar
    15    6   39 1
    16    7    8 ar
    17    7   40 1
    18    8    9 ar
    19    8   41 1
    20    9   10 ar
    21    9   42 1
    22   10   11 1
    23   11   16 1
    24   11   12 1
    25   12   13 1
    26   12   43 1
    27   12   44 1
    28   13   14 1
    29   13   45 1
    30   13   46 1
    31   14   15 1
    32   14   17 1
    33   15   16 1
    34   15   47 1
    35   15   48 1
    36   16   49 1
    37   16   50 1
    38   17   18 1
    39   17   51 1
    40   17   52 1
    41   18   23 ar
    42   18   19 ar
    43   19   20 ar
    44   19   53 1
    45   20   21 ar
    46   20   54 1
    47   21   22 ar
    48   21   55 1
    49   22   23 ar
    50   22   24 1
    51   23   56 1
    52   24   25 2
    53   24   26 am
    54   26   31 1
    55   26   27 1
    56   27   28 1
    57   27   57 1
    58   27   58 1
    59   28   29 1
    60   28   59 1
    61   28   60 1
    62   29   30 1
    63   29   61 1
    64   29   62 1
    65   30   31 1
    66   30   63 1
    67   30   64 1
    68   31   65 1
    69   31   66 1
@<TRIPOS>MOLECULE
ZINC02516030
   52    54     0     0     0
SMALL
USER_CHARGES

@<TRIPOS>ATOM
      1 C1         -0.0167    1.3782    0.0096 C.ar      1 <0>        -0.0790
      2 C2          1.1703    2.0860    0.0021 C.ar      1 <0>        -0.1495
      3 C3          2.3786    1.4101   -0.0131 C.ar      1 <0>         0.1092
      4 C4          2.3962    0.0256   -0.0207 C.ar      1 <0>        -0.1488
      5 C5          1.2079   -0.6800   -0.0132 C.ar      1 <0>        -0.0820
      6 C6          0.0021   -0.0041    0.0020 C.ar      1 <0>        -0.1420
      7 C7         -1.2930   -0.7747    0.0103 C.3       1 <0>         0.1541
      8 H1         -2.0856   -0.1577   -0.4132 H         1 <0>         0.1128
      9 C8         -1.6532   -1.1512    1.4488 C.3       1 <0>        -0.1462
     10 C9         -3.0274   -1.8235    1.4711 C.3       1 <0>        -0.1467
     11 C10        -3.3877   -2.2001    2.9096 C.3       1 <0>        -0.0097
     12 N1         -4.7071   -2.8456    2.9311 N.4       1 <0>        -0.3828
     13 C11        -5.7288   -1.8814    2.5057 C.3       1 <0>        -0.0083
     14 C12        -7.0937   -2.5708    2.4483 C.3       1 <0>        -0.1330
     15 C13        -7.4457   -3.1104    3.8375 C.3       1 <0>         0.1747
     16 C14        -6.3361   -4.0578    4.3026 C.3       1 <0>        -0.1705
     17 C15        -4.9993   -3.3133    4.2913 C.3       1 <0>        -0.0020
     18 C16        -8.7522   -3.8585    3.7714 C.ar      1 <0>        -0.1263
     19 C17        -9.1187   -4.5073    2.6069 C.ar      1 <0>        -0.1006
     20 C18       -10.3168   -5.1936    2.5456 C.ar      1 <0>        -0.1039
     21 C19       -11.1494   -5.2313    3.6499 C.ar      1 <0>        -0.0247
     22 C20       -10.7821   -4.5818    4.8150 C.ar      1 <0>        -0.1015
     23 C21        -9.5811   -3.9006    4.8769 C.ar      1 <0>        -0.0934
     24 Cl1       -12.6547   -6.0927    3.5735 Cl        1 <0>        -0.0499
     25 O1         -7.5621   -2.0229    4.7572 O.3       1 <0>        -0.5476
     26 O2         -1.1454   -1.9625   -0.7703 O.3       1 <0>        -0.5520
     27 F1          3.5396    2.1009   -0.0209 F         1 <0>        -0.1327
     28 H2         -0.9592    1.9052    0.0260 H         1 <0>         0.1345
     29 H3          1.1554    3.1659    0.0077 H         1 <0>         0.1411
     30 H4          3.3381   -0.5027   -0.0329 H         1 <0>         0.1406
     31 H5          1.2213   -1.7599   -0.0195 H         1 <0>         0.1302
     32 H6         -0.9054   -1.8398    1.8423 H         1 <0>         0.0805
     33 H7         -1.6786   -0.2520    2.0642 H         1 <0>         0.0873
     34 H8         -3.7752   -1.1350    1.0776 H         1 <0>         0.0891
     35 H9         -3.0020   -2.7228    0.8556 H         1 <0>         0.0949
     36 H10        -2.6399   -2.8886    3.3031 H         1 <0>         0.1307
     37 H11        -3.4131   -1.3008    3.5251 H         1 <0>         0.1302
     38 H12        -5.7684   -1.0568    3.2175 H         1 <0>         0.1380
     39 H13        -5.4752   -1.4958    1.5182 H         1 <0>         0.1349
     40 H14        -7.8512   -1.8528    2.1340 H         1 <0>         0.1236
     41 H15        -7.0553   -3.3954    1.7365 H         1 <0>         0.1044
     42 H16        -6.5521   -4.4027    5.3138 H         1 <0>         0.1172
     43 H17        -6.2819   -4.9133    3.6294 H         1 <0>         0.1008
     44 H18        -4.2070   -3.9849    4.6221 H         1 <0>         0.1323
     45 H19        -5.0544   -2.4582    4.9651 H         1 <0>         0.1348
     46 H20        -8.4688   -4.4775    1.7449 H         1 <0>         0.1334
     47 H21       -10.6032   -5.7001    1.6358 H         1 <0>         0.1408
     48 H22       -11.4318   -4.6106    5.6773 H         1 <0>         0.1414
     49 H23        -9.2920   -3.3975    5.7879 H         1 <0>         0.1323
     50 H24        -7.7841   -2.2924    5.6589 H         1 <0>         0.3908
     51 H25        -0.4557   -2.5601   -0.4506 H         1 <0>         0.3775
     52 H26        -4.7059   -3.6321    2.2990 H         1 <0>         0.4210
@<TRIPOS>BOND
     1    1    6 ar
     2    1    2 ar
     3    1   28 1
     4    2    3 ar
     5    2   29 1
     6    3    4 ar
     7    3   27 1
     8    4    5 ar
     9    4   30 1
    10    5    6 ar
    11    5   31 1
    12    6    7 1
    13    7    8 1
    14    7    9 1
    15    7   26 1
    16    9   10 1
    17    9   32 1
    18    9   33 1
    19   10   11 1
    20   10   34 1
    21   10   35 1
    22   11   12 1
    23   11   36 1
    24   11   37 1
    25   12   17 1
    26   12   13 1
    27   12   52 1
    28   13   14 1
    29   13   38 1
    30   13   39 1
    31   14   15 1
    32   14   40 1
    33   14   41 1
    34   15   16 1
    35   15   18 1
    36   15   25 1
    37   16   17 1
    38   16   42 1
    39   16   43 1
    40   17   44 1
    41   17   45 1
    42   18   23 ar
    43   18   19 ar
    44   19   20 ar
    45   19   46 1
    46   20   21 ar
    47   20   47 1
    48   21   22 ar
    49   21   24 1
    50   22   23 ar
    51   22   48 1
    52   23   49 1
    53   25   50 1
    54   26   51 1
@<TRIPOS>MOLECULE
ZINC04257980
   52    54     0     0     0
SMALL
USER_CHARGES

@<TRIPOS>ATOM
      1 C1         -0.0167    1.3782    0.0096 C.ar      1 <0>        -0.0781
      2 C2          1.1703    2.0860    0.0021 C.ar      1 <0>        -0.1497
      3 C3          2.3786    1.4101   -0.0131 C.ar      1 <0>         0.1095
      4 C4          2.3962    0.0256   -0.0207 C.ar      1 <0>        -0.1491
      5 C5          1.2079   -0.6800   -0.0132 C.ar      1 <0>        -0.0822
      6 C6          0.0021   -0.0041    0.0020 C.ar      1 <0>        -0.1420
      7 C7         -1.2930   -0.7747    0.0103 C.3       1 <0>         0.1541
      8 H1         -2.0956   -0.1325    0.3729 H         1 <0>         0.1125
      9 C8         -1.6168   -1.2431   -1.4098 C.3       1 <0>        -0.1464
     10 C9         -2.9905   -1.9166   -1.4239 C.3       1 <0>        -0.1470
     11 C10        -3.3143   -2.3850   -2.8440 C.3       1 <0>        -0.0097
     12 N1         -4.6332   -3.0316   -2.8576 N.4       1 <0>        -0.3828
     13 C11        -4.5881   -4.2491   -2.0389 C.3       1 <0>        -0.0084
     14 C12        -5.9797   -4.8829   -1.9834 C.3       1 <0>        -0.1328
     15 C13        -6.4303   -5.2372   -3.4035 C.3       1 <0>         0.1746
     16 C14        -6.4022   -3.9732   -4.2677 C.3       1 <0>        -0.1705
     17 C15        -4.9949   -3.3731   -4.2385 C.3       1 <0>        -0.0021
     18 C16        -7.8317   -5.7900   -3.3644 C.ar      1 <0>        -0.1262
     19 C17        -8.7143   -5.3669   -2.3882 C.ar      1 <0>        -0.1006
     20 C18        -9.9997   -5.8735   -2.3518 C.ar      1 <0>        -0.1039
     21 C19       -10.4031   -6.8042   -3.2927 C.ar      1 <0>        -0.0247
     22 C20        -9.5193   -7.2272   -4.2695 C.ar      1 <0>        -0.1015
     23 C21        -8.2359   -6.7157   -4.3082 C.ar      1 <0>        -0.0934
     24 Cl1       -12.0173   -7.4413   -3.2473 Cl        1 <0>        -0.0499
     25 O1         -5.5451   -6.2135   -3.9560 O.3       1 <0>        -0.5475
     26 O2         -1.1663   -1.9098    0.8690 O.3       1 <0>        -0.5520
     27 F1          3.5396    2.1009   -0.0209 F         1 <0>        -0.1327
     28 H2         -0.9592    1.9052    0.0260 H         1 <0>         0.1347
     29 H3          1.1554    3.1659    0.0077 H         1 <0>         0.1411
     30 H4          3.3381   -0.5027   -0.0329 H         1 <0>         0.1406
     31 H5          1.2213   -1.7599   -0.0195 H         1 <0>         0.1298
     32 H6         -1.6258   -0.3852   -2.0822 H         1 <0>         0.0873
     33 H7         -0.8598   -1.9549   -1.7391 H         1 <0>         0.0804
     34 H8         -2.9815   -2.7744   -0.7516 H         1 <0>         0.0957
     35 H9         -3.7475   -1.2048   -1.0947 H         1 <0>         0.0886
     36 H10        -3.3233   -1.5271   -3.5164 H         1 <0>         0.1308
     37 H11        -2.5573   -3.0968   -3.1733 H         1 <0>         0.1301
     38 H12        -3.8846   -4.9561   -2.4785 H         1 <0>         0.1378
     39 H13        -4.2642   -3.9957   -1.0294 H         1 <0>         0.1360
     40 H14        -5.9437   -5.7876   -1.3766 H         1 <0>         0.1236
     41 H15        -6.6840   -4.1767   -1.5437 H         1 <0>         0.1041
     42 H16        -6.6682   -4.2278   -5.2936 H         1 <0>         0.1172
     43 H17        -7.1153   -3.2482   -3.8753 H         1 <0>         0.1007
     44 H18        -4.9714   -2.4731   -4.8530 H         1 <0>         0.1323
     45 H19        -4.2827   -4.0988   -4.6313 H         1 <0>         0.1348
     46 H20        -8.3992   -4.6406   -1.6536 H         1 <0>         0.1333
     47 H21       -10.6891   -5.5431   -1.5889 H         1 <0>         0.1408
     48 H22        -9.8335   -7.9539   -5.0040 H         1 <0>         0.1414
     49 H23        -7.5474   -7.0422   -5.0736 H         1 <0>         0.1323
     50 H24        -5.7714   -6.4850   -4.8561 H         1 <0>         0.3907
     51 H25        -0.4692   -2.5262    0.6060 H         1 <0>         0.3775
     52 H26        -5.3210   -2.3985   -2.4776 H         1 <0>         0.4206
@<TRIPOS>BOND
     1    1    6 ar
     2    1    2 ar
     3    1   28 1
     4    2    3 ar
     5    2   29 1
     6    3    4 ar
     7    3   27 1
     8    4    5 ar
     9    4   30 1
    10    5    6 ar
    11    5   31 1
    12    6    7 1
    13    7    8 1
    14    7    9 1
    15    7   26 1
    16    9   10 1
    17    9   32 1
    18    9   33 1
    19   10   11 1
    20   10   34 1
    21   10   35 1
    22   11   12 1
    23   11   36 1
    24   11   37 1
    25   12   17 1
    26   12   13 1
    27   12   52 1
    28   13   14 1
    29   13   38 1
    30   13   39 1
    31   14   15 1
    32   14   40 1
    33   14   41 1
    34   15   16 1
    35   15   18 1
    36   15   25 1
    37   16   17 1
    38   16   42 1
    39   16   43 1
    40   17   44 1
    41   17   45 1
    42   18   23 ar
    43   18   19 ar
    44   19   20 ar
    45   19   46 1
    46   20   21 ar
    47   20   47 1
    48   21   22 ar
    49   21   24 1
    50   22   23 ar
    51   22   48 1
    52   23   49 1
    53   25   50 1
    54   26   51 1
@<TRIPOS>MOLECULE
ZINC11900191
   48    50     0     0     0
SMALL
USER_CHARGES
N-[2-[4-(2-methoxyphenyl)piperazin-1-yl]ethyl]furan-2-carboxamide
@<TRIPOS>ATOM
      1 C1         -1.1455    3.4824    0.0264 C.3       1 <0>         0.0204
      2 O1         -1.2029    2.0546    0.0189 O.3       1 <0>        -0.2998
      3 C2         -0.0168    1.3889    0.0097 C.ar      1 <0>         0.1645
      4 C3          1.1751    2.0944    0.0021 C.ar      1 <0>        -0.2028
      5 C4          2.3802    1.4164   -0.0135 C.ar      1 <0>        -0.0620
      6 C5          2.3999    0.0340   -0.0207 C.ar      1 <0>        -0.1458
      7 C6          1.2148   -0.6775   -0.0132 C.ar      1 <0>        -0.1057
      8 C7          0.0021   -0.0041    0.0020 C.ar      1 <0>         0.0235
      9 N1         -1.1993   -0.7222    0.0092 N.pl3     1 <0>        -0.4816
     10 C8         -1.3293   -1.5189    1.2371 C.3       1 <0>         0.0307
     11 C9         -2.6874   -2.2247    1.2428 C.3       1 <0>        -0.0072
     12 C10        -2.6684   -2.2806   -1.1770 C.3       1 <0>         0.0057
     13 C11        -1.3103   -1.5748   -1.1826 C.3       1 <0>         0.0292
     14 C12        -4.0593   -3.8310    0.0585 C.3       1 <0>        -0.0151
     15 C13        -4.2778   -4.4456    1.4425 C.3       1 <0>         0.0936
     16 N2         -5.5353   -5.1972    1.4500 N.am      1 <0>        -0.7275
     17 C14        -5.9364   -5.8285    2.5712 C.2       1 <0>         0.6186
     18 O2         -5.2540   -5.7741    3.5773 O.2       1 <0>        -0.5062
     19 C15        -7.1952   -6.5810    2.5787 C.2       1 <0>        -0.1062
     20 C16        -7.7160   -7.2629    3.6408 C.2       1 <0>        -0.0970
     21 C17        -8.9239   -7.8289    3.2039 C.2       1 <0>        -0.2244
     22 C18        -9.0854   -7.4721    1.9106 C.2       1 <0>         0.0122
     23 O3         -8.0444   -6.7158    1.5390 O.3       1 <0>        -0.1690
     24 H1         -0.6132    3.8200    0.9157 H         1 <0>         0.0590
     25 H2         -0.6217    3.8296   -0.8642 H         1 <0>         0.0590
     26 H3         -2.1577    3.8867    0.0334 H         1 <0>         0.1054
     27 H4          1.1633    3.1743    0.0076 H         1 <0>         0.1382
     28 H5          3.3085    1.9682   -0.0198 H         1 <0>         0.1340
     29 H6          3.3435   -0.4913   -0.0325 H         1 <0>         0.1309
     30 H7          1.2330   -1.7573   -0.0195 H         1 <0>         0.1244
     31 H8         -0.5330   -2.2623    1.2743 H         1 <0>         0.0638
     32 H9         -1.2564   -0.8637    2.1052 H         1 <0>         0.1248
     33 H10        -3.4839   -1.4807    1.2331 H         1 <0>         0.1439
     34 H11        -2.7741   -2.8392    2.1389 H         1 <0>         0.1399
     35 H12        -3.4647   -1.5372   -1.2141 H         1 <0>         0.1422
     36 H13        -2.7414   -2.9355   -2.0452 H         1 <0>         0.1371
     37 H14        -1.2235   -0.9603   -2.0787 H         1 <0>         0.1249
     38 H15        -0.5138   -2.3188   -1.1729 H         1 <0>         0.0635
     39 H16        -4.8853   -3.1595   -0.1755 H         1 <0>         0.1410
     40 H17        -4.0130   -4.6239   -0.6880 H         1 <0>         0.1383
     41 H18        -3.4517   -5.1171    1.6765 H         1 <0>         0.0923
     42 H19        -4.3241   -3.6526    2.1890 H         1 <0>         0.0956
     43 H20        -6.0792   -5.2405    0.6480 H         1 <0>         0.4134
     44 H21        -7.2824   -7.3502    4.6261 H         1 <0>         0.1642
     45 H22        -9.5975   -8.4354    3.7910 H         1 <0>         0.1637
     46 H23        -9.9190   -7.7474    1.2816 H         1 <0>         0.2172
     47 N3         -2.7769   -3.0952    0.0514 N.4       1 <0>        -0.3929
     48 H24        -2.0043   -3.7711    0.0731 H         1 <0>         0.4278
@<TRIPOS>BOND
     1    1    2 1
     2    1   24 1
     3    1   25 1
     4    1   26 1
     5    2    3 1
     6    3    8 ar
     7    3    4 ar
     8    4    5 ar
     9    4   27 1
    10    5    6 ar
    11    5   28 1
    12    6    7 ar
    13    6   29 1
    14    7    8 ar
    15    7   30 1
    16    8    9 1
    17    9   13 1
    18    9   10 1
    19   10   11 1
    20   10   31 1
    21   10   32 1
    22   11   33 1
    23   11   34 1
    24   11   47 1
    25   12   13 1
    26   12   35 1
    27   12   36 1
    28   12   47 1
    29   13   37 1
    30   13   38 1
    31   14   15 1
    32   14   39 1
    33   14   40 1
    34   14   47 1
    35   15   16 1
    36   15   41 1
    37   15   42 1
    38   16   17 am
    39   16   43 1
    40   17   18 2
    41   17   19 1
    42   19   23 1
    43   19   20 2
    44   20   21 1
    45   20   44 1
    46   21   22 2
    47   21   45 1
    48   22   23 1
    49   22   46 1
    50   47   48 1
@<TRIPOS>MOLECULE
ZINC53172833
   46    48     0     0     0
SMALL
USER_CHARGES

@<TRIPOS>ATOM
      1 C1         -0.0167    1.3786    0.0115 C.ar      1 <0>        -0.1809
      2 C2          0.0020   -0.0039   -0.0114 C.ar      1 <0>        -0.0708
      3 C3          1.2063   -0.6796   -0.0274 C.ar      1 <0>        -0.2014
      4 C4          2.3998    0.0311   -0.0206 C.ar      1 <0>         0.2193
      5 C5          2.3775    1.4198    0.0024 C.ar      1 <0>        -0.2012
      6 C6          1.1696    2.0892    0.0184 C.ar      1 <0>        -0.0710
      7 N1          3.6196   -0.6492   -0.0363 N.pl3     1 <0>        -0.6325
      8 C7          4.8906    0.0825   -0.1489 C.3       1 <0>         0.1262
      9 C8          5.7107   -0.5385   -1.2847 C.3       1 <0>         0.0419
     10 N2          5.8440   -1.9833   -1.0549 N.3       1 <0>        -0.5320
     11 C9          4.5356   -2.6505   -1.0847 C.3       1 <0>         0.0340
     12 C10         3.6676   -2.1156    0.0654 C.3       1 <0>         0.1257
     13 C11         6.7655   -2.5880   -2.0261 C.3       1 <0>         0.0444
     14 C12         7.0731   -4.0276   -1.6092 C.3       1 <0>         0.1215
     15 N3          7.9921   -4.6307   -2.5777 N.am      1 <0>        -0.7272
     16 C13         8.4048   -5.9031   -2.4130 C.2       1 <0>         0.5626
     17 O1          8.0145   -6.5504   -1.4609 O.2       1 <0>        -0.5293
     18 C14         9.3315   -6.5112   -3.3896 C.ar      1 <0>        -0.1494
     19 C15         9.7859   -5.7681   -4.4812 C.ar      1 <0>        -0.0570
     20 C16        10.6505   -6.3404   -5.3894 C.ar      1 <0>        -0.1611
     21 C17        11.0686   -7.6516   -5.2210 C.ar      1 <0>         0.1276
     22 C18        10.6206   -8.3940   -4.1390 C.ar      1 <0>        -0.1602
     23 C19         9.7608   -7.8294   -3.2214 C.ar      1 <0>        -0.0284
     24 F1         11.9154   -8.2080   -6.1146 F         1 <0>        -0.1319
     25 H1         -0.9599    1.9046    0.0194 H         1 <0>         0.1176
     26 H2         -0.9263   -0.5559   -0.0163 H         1 <0>         0.1202
     27 H3          1.2202   -1.7594   -0.0449 H         1 <0>         0.1211
     28 H4          3.3036    1.9754    0.0081 H         1 <0>         0.1209
     29 H5          1.1515    3.1689    0.0362 H         1 <0>         0.1202
     30 H6          4.6912    1.1306   -0.3720 H         1 <0>         0.0876
     31 H7          5.4430    0.0031    0.7874 H         1 <0>         0.0710
     32 H8          5.2049   -0.3664   -2.2348 H         1 <0>         0.0405
     33 H9          6.7000   -0.0816   -1.3109 H         1 <0>         0.0878
     34 H10         4.0461   -2.4490   -2.0376 H         1 <0>         0.0414
     35 H11         4.6726   -3.7253   -0.9658 H         1 <0>         0.0899
     36 H12         4.1046   -2.4022    1.0219 H         1 <0>         0.0721
     37 H13         2.6592   -2.5215   -0.0158 H         1 <0>         0.0880
     38 H14         6.3047   -2.5863   -3.0139 H         1 <0>         0.0422
     39 H15         7.6908   -2.0128   -2.0558 H         1 <0>         0.0844
     40 H16         7.5338   -4.0293   -0.6213 H         1 <0>         0.0816
     41 H17         6.1477   -4.6029   -1.5795 H         1 <0>         0.0712
     42 H18         8.3035   -4.1142   -3.3374 H         1 <0>         0.3996
     43 H19         9.4603   -4.7469   -4.6136 H         1 <0>         0.1357
     44 H20        11.0025   -5.7666   -6.2339 H         1 <0>         0.1440
     45 H21        10.9491   -9.4150   -4.0127 H         1 <0>         0.1456
     46 H22         9.4161   -8.4070   -2.3764 H         1 <0>         0.1484
@<TRIPOS>BOND
     1    1    6 ar
     2    1    2 ar
     3    1   25 1
     4    2    3 ar
     5    2   26 1
     6    3    4 ar
     7    3   27 1
     8    4    5 ar
     9    4    7 1
    10    5    6 ar
    11    5   28 1
    12    6   29 1
    13    7   12 1
    14    7    8 1
    15    8    9 1
    16    8   30 1
    17    8   31 1
    18    9   10 1
    19    9   32 1
    20    9   33 1
    21   10   11 1
    22   10   13 1
    23   11   12 1
    24   11   34 1
    25   11   35 1
    26   12   36 1
    27   12   37 1
    28   13   14 1
    29   13   38 1
    30   13   39 1
    31   14   15 1
    32   14   40 1
    33   14   41 1
    34   15   16 am
    35   15   42 1
    36   16   17 2
    37   16   18 1
    38   18   23 ar
    39   18   19 ar
    40   19   20 ar
    41   19   43 1
    42   20   21 ar
    43   20   44 1
    44   21   22 ar
    45   21   24 1
    46   22   23 ar
    47   22   45 1
    48   23   46 1
@<TRIPOS>MOLECULE
ZINC53172846
   43    44     0     0     0
SMALL
USER_CHARGES

@<TRIPOS>ATOM
      1 C1         -0.0184    1.5028    0.0103 C.3       1 <0>        -0.1731
      2 C2          0.0021   -0.0041    0.0020 C.2       1 <0>         0.5101
      3 O1          0.0203   -0.6160    1.0489 O.2       1 <0>        -0.5440
      4 N1          0.0001   -0.6716   -1.1688 N.am      1 <0>        -0.7334
      5 C3          0.0199   -2.1365   -1.1769 C.3       1 <0>         0.1193
      6 C4          0.0131   -2.6387   -2.6221 C.3       1 <0>         0.0458
      7 N2          0.0330   -4.1075   -2.6302 N.3       1 <0>        -0.5307
      8 C5         -1.2042   -4.6539   -2.0569 C.3       1 <0>         0.0358
      9 C6         -1.0704   -6.1740   -1.9165 C.3       1 <0>         0.1532
     10 N3         -0.6909   -6.7323   -3.2232 N.pl3     1 <0>        -0.6685
     11 C7          0.4594   -6.1422   -3.9245 C.3       1 <0>         0.1532
     12 C8          0.2654   -4.6234   -3.9858 C.3       1 <0>         0.0429
     13 C9         -1.4053   -7.7971   -3.7843 C.ar      1 <0>         0.1383
     14 C10        -2.4893   -7.5473   -4.6132 C.ar      1 <0>        -0.0878
     15 C11        -3.1928   -8.6006   -5.1664 C.ar      1 <0>        -0.1523
     16 C12        -2.8191   -9.9039   -4.8960 C.ar      1 <0>        -0.0833
     17 C13        -1.7396  -10.1605   -4.0706 C.ar      1 <0>        -0.2064
     18 C14        -1.0261   -9.1107   -3.5165 C.ar      1 <0>         0.1198
     19 O2          0.0391   -9.3615   -2.7087 O.3       1 <0>        -0.3040
     20 C15         0.3701  -10.7325   -2.4786 C.3       1 <0>         0.0251
     21 H1          1.0042    1.8801    0.0026 H         1 <0>         0.0947
     22 H2         -0.5455    1.8639   -0.8728 H         1 <0>         0.0795
     23 H3         -0.5286    1.8543    0.9071 H         1 <0>         0.0942
     24 H4         -0.0145   -0.1822   -2.0061 H         1 <0>         0.4005
     25 H5          0.9196   -2.4904   -0.6735 H         1 <0>         0.0775
     26 H6         -0.8601   -2.5146   -0.6566 H         1 <0>         0.0680
     27 H7         -0.8866   -2.2847   -3.1255 H         1 <0>         0.0392
     28 H8          0.8931   -2.2605   -3.1423 H         1 <0>         0.0815
     29 H9         -1.3766   -4.2118   -1.0756 H         1 <0>         0.0836
     30 H10        -2.0428   -4.4217   -2.7133 H         1 <0>         0.0365
     31 H11        -0.3004   -6.4074   -1.1811 H         1 <0>         0.0595
     32 H12        -2.0234   -6.5978   -1.6000 H         1 <0>         0.0704
     33 H13         1.3764   -6.3725   -3.3821 H         1 <0>         0.0591
     34 H14         0.5178   -6.5450   -4.9357 H         1 <0>         0.0706
     35 H15        -0.5937   -4.3916   -4.6154 H         1 <0>         0.0362
     36 H16         1.1587   -4.1591   -4.4035 H         1 <0>         0.0810
     37 H17        -2.7836   -6.5302   -4.8258 H         1 <0>         0.1250
     38 H18        -4.0368   -8.4050   -5.8113 H         1 <0>         0.1239
     39 H19        -3.3719  -10.7238   -5.3301 H         1 <0>         0.1246
     40 H20        -1.4503  -11.1798   -3.8614 H         1 <0>         0.1278
     41 H21        -0.4762  -11.2373   -2.0127 H         1 <0>         0.0538
     42 H22         0.6027  -11.2144   -3.4282 H         1 <0>         0.0537
     43 H23         1.2362  -10.7915   -1.8195 H         1 <0>         0.0994
@<TRIPOS>BOND
     1    1    2 1
     2    1   21 1
     3    1   22 1
     4    1   23 1
     5    2    3 2
     6    2    4 am
     7    4    5 1
     8    4   24 1
     9    5    6 1
    10    5   25 1
    11    5   26 1
    12    6    7 1
    13    6   27 1
    14    6   28 1
    15    7   12 1
    16    7    8 1
    17    8    9 1
    18    8   29 1
    19    8   30 1
    20    9   10 1
    21    9   31 1
    22    9   32 1
    23   10   11 1
    24   10   13 1
    25   11   12 1
    26   11   33 1
    27   11   34 1
    28   12   35 1
    29   12   36 1
    30   13   18 ar
    31   13   14 ar
    32   14   15 ar
    33   14   37 1
    34   15   16 ar
    35   15   38 1
    36   16   17 ar
    37   16   39 1
    38   17   18 ar
    39   17   40 1
    40   18   19 1
    41   19   20 1
    42   20   41 1
    43   20   42 1
    44   20   43 1
@<TRIPOS>MOLECULE
ZINC13760892
   49    51     0     0     0
SMALL
USER_CHARGES

@<TRIPOS>ATOM
      1 C1         -0.0173    1.4248    0.0099 C.3       1 <0>         0.0251
      2 O1          0.0021   -0.0041    0.0020 O.3       1 <0>        -0.3040
      3 C2         -1.2013   -0.6380    0.0101 C.ar      1 <0>         0.1201
      4 C3         -2.3740    0.0989    0.0195 C.ar      1 <0>        -0.2063
      5 C4         -3.5967   -0.5469    0.0283 C.ar      1 <0>        -0.0831
      6 C5         -3.6532   -1.9283    0.0271 C.ar      1 <0>        -0.1523
      7 C6         -2.4875   -2.6710    0.0173 C.ar      1 <0>        -0.0880
      8 C7         -1.2572   -2.0300    0.0032 C.ar      1 <0>         0.1380
      9 N1         -0.0754   -2.7797   -0.0127 N.pl3     1 <0>        -0.6682
     10 C8          0.5713   -3.1961    1.2410 C.3       1 <0>         0.1531
     11 C9          0.8354   -4.7041    1.1750 C.3       1 <0>         0.0428
     12 N2          1.5913   -5.0126   -0.0462 N.3       1 <0>        -0.5299
     13 C10         0.8175   -4.6811   -1.2500 C.3       1 <0>         0.0353
     14 C11         0.5494   -3.1773   -1.2834 C.3       1 <0>         0.1530
     15 C12         2.0135   -6.4196   -0.0626 C.3       1 <0>         0.0448
     16 C13         2.9994   -6.6428   -1.2111 C.3       1 <0>         0.1209
     17 N3          3.4204   -8.0459   -1.2276 N.am      1 <0>        -0.7230
     18 C14         4.2932   -8.4767   -2.1598 C.2       1 <0>         0.5595
     19 O2          4.7310   -7.7013   -2.9867 O.2       1 <0>        -0.5229
     20 C15         4.7190   -9.8956   -2.1764 C.ar      1 <0>        -0.0885
     21 C16         4.2231  -10.8056   -1.2379 C.ar      1 <0>        -0.1441
     22 C17         4.6466  -12.1195   -1.2902 C.ar      1 <0>         0.0981
     23 N4          5.5054  -12.5178   -2.2074 N.ar      1 <0>        -0.4681
     24 C18         5.9971  -11.6930   -3.1103 C.ar      1 <0>         0.0997
     25 C19         5.6234  -10.3632   -3.1347 C.ar      1 <0>        -0.1150
     26 H1          1.0053    1.8021    0.0021 H         1 <0>         0.0995
     27 H2         -0.5445    1.7859   -0.8732 H         1 <0>         0.0539
     28 H3         -0.5275    1.7763    0.9067 H         1 <0>         0.0538
     29 H4         -2.3335    1.1781    0.0204 H         1 <0>         0.1279
     30 H5         -4.5101    0.0293    0.0363 H         1 <0>         0.1247
     31 H6         -4.6104   -2.4284    0.0343 H         1 <0>         0.1239
     32 H7         -2.5344   -3.7500    0.0168 H         1 <0>         0.1249
     33 H8          1.5150   -2.6639    1.3604 H         1 <0>         0.0594
     34 H9         -0.0855   -2.9758    2.0825 H         1 <0>         0.0708
     35 H10         1.4125   -5.0108    2.0473 H         1 <0>         0.0814
     36 H11        -0.1140   -5.2393    1.1600 H         1 <0>         0.0367
     37 H12         1.3817   -4.9710   -2.1364 H         1 <0>         0.0840
     38 H13        -0.1317   -5.2166   -1.2312 H         1 <0>         0.0367
     39 H14        -0.1219   -2.9447   -2.1101 H         1 <0>         0.0705
     40 H15         1.4910   -2.6433   -1.4113 H         1 <0>         0.0593
     41 H16         2.4960   -6.6652    0.8834 H         1 <0>         0.0828
     42 H17         1.1418   -7.0588   -0.2026 H         1 <0>         0.0405
     43 H18         2.5169   -6.3971   -2.1571 H         1 <0>         0.0721
     44 H19         3.8711   -6.0035   -1.0711 H         1 <0>         0.0821
     45 H20         3.0710   -8.6649   -0.5675 H         1 <0>         0.4005
     46 H21         3.5197  -10.4860   -0.4831 H         1 <0>         0.1382
     47 H22         4.2692  -12.8299   -0.5695 H         1 <0>         0.1637
     48 H23         6.6988  -12.0626   -3.8434 H         1 <0>         0.1659
     49 H24         6.0268   -9.6940   -3.8803 H         1 <0>         0.1499
@<TRIPOS>BOND
     1    1    2 1
     2    1   26 1
     3    1   27 1
     4    1   28 1
     5    2    3 1
     6    3    8 ar
     7    3    4 ar
     8    4    5 ar
     9    4   29 1
    10    5    6 ar
    11    5   30 1
    12    6    7 ar
    13    6   31 1
    14    7    8 ar
    15    7   32 1
    16    8    9 1
    17    9   14 1
    18    9   10 1
    19   10   11 1
    20   10   33 1
    21   10   34 1
    22   11   12 1
    23   11   35 1
    24   11   36 1
    25   12   13 1
    26   12   15 1
    27   13   14 1
    28   13   37 1
    29   13   38 1
    30   14   39 1
    31   14   40 1
    32   15   16 1
    33   15   41 1
    34   15   42 1
    35   16   17 1
    36   16   43 1
    37   16   44 1
    38   17   18 am
    39   17   45 1
    40   18   19 2
    41   18   20 1
    42   20   25 ar
    43   20   21 ar
    44   21   22 ar
    45   21   46 1
    46   22   23 ar
    47   22   47 1
    48   23   24 ar
    49   24   25 ar
    50   24   48 1
    51   25   49 1
@<TRIPOS>MOLECULE
ZINC26829428
   38    39     0     0     0
SMALL
USER_CHARGES
2-[(3S)-1-propyl-3-piperidyl]phenol
@<TRIPOS>ATOM
      1 C1          7.5683    0.5723    3.9096 C.3       1 <0>        -0.1583
      2 C2          6.7834    0.8073    2.6175 C.3       1 <0>        -0.1526
      3 C3          6.5292    2.3057    2.4406 C.3       1 <0>        -0.0077
      4 N1          5.7756    2.5313    1.2000 N.4       1 <0>        -0.3966
      5 C4          6.5781    2.1719    0.0239 C.3       1 <0>        -0.0081
      6 C5          5.8199    2.5547   -1.2491 C.3       1 <0>        -0.1455
      7 C6          4.4780    1.8180   -1.2792 C.3       1 <0>        -0.1303
      8 C7          3.6820    2.1720   -0.0200 C.3       1 <0>        -0.0507
      9 H1          3.4523    3.2477   -0.0095 H         1 <0>         0.1086
     10 C8          4.5021    1.8002    1.2174 C.3       1 <0>        -0.0016
     11 C9          2.3846    1.4052   -0.0127 C.ar      1 <0>        -0.1442
     12 C10         2.3980    0.0237   -0.0207 C.ar      1 <0>        -0.0754
     13 C11         1.2082   -0.6803   -0.0131 C.ar      1 <0>        -0.1568
     14 C12         0.0021   -0.0041    0.0020 C.ar      1 <0>        -0.0645
     15 C13        -0.0167    1.3770    0.0096 C.ar      1 <0>        -0.2085
     16 C14         1.1761    2.0859    0.0020 C.ar      1 <0>         0.1717
     17 O1          1.1603    3.4448    0.0090 O.3       1 <0>        -0.5158
     18 H2          7.7511   -0.5049    4.0368 H         1 <0>         0.0762
     19 H3          6.9881    0.9493    4.7647 H         1 <0>         0.0669
     20 H4          8.5300    1.1036    3.8562 H         1 <0>         0.0670
     21 H5          7.3636    0.4303    1.7624 H         1 <0>         0.0840
     22 H6          5.8217    0.2760    2.6709 H         1 <0>         0.0845
     23 H7          5.9490    2.6826    3.2958 H         1 <0>         0.1302
     24 H8          7.4909    2.8370    2.3872 H         1 <0>         0.1312
     25 H9          7.5365    2.7109    0.0554 H         1 <0>         0.1308
     26 H10         6.7667    1.0882    0.0259 H         1 <0>         0.1254
     27 H11         5.6443    3.6406   -1.2588 H         1 <0>         0.0891
     28 H12         6.4153    2.2717   -2.1297 H         1 <0>         0.1128
     29 H13         3.9122    2.1230   -2.1719 H         1 <0>         0.0940
     30 H14         4.6560    0.7330   -1.3109 H         1 <0>         0.0809
     31 H15         4.7004    0.7182    1.2138 H         1 <0>         0.1266
     32 H16         3.9387    2.0667    2.1238 H         1 <0>         0.1298
     33 H17         3.3387   -0.5068   -0.0325 H         1 <0>         0.1252
     34 H18         1.2208   -1.7602   -0.0194 H         1 <0>         0.1292
     35 H19        -0.9261   -0.5563    0.0076 H         1 <0>         0.1310
     36 H20        -0.9589    1.9047    0.0170 H         1 <0>         0.1329
     37 H21         0.2014    3.9836    0.0207 H         1 <0>         0.4461
     38 H22         5.5451    3.6048    1.1332 H         1 <0>         0.4426
@<TRIPOS>BOND
     1    1    2 1
     2    1   18 1
     3    1   19 1
     4    1   20 1
     5    2    3 1
     6    2   21 1
     7    2   22 1
     8    3    4 1
     9    3   23 1
    10    3   24 1
    11    4   10 1
    12    4    5 1
    13    4   38 1
    14    5    6 1
    15    5   25 1
    16    5   26 1
    17    6    7 1
    18    6   27 1
    19    6   28 1
    20    7    8 1
    21    7   29 1
    22    7   30 1
    23    8    9 1
    24    8   10 1
    25    8   11 1
    26   10   31 1
    27   10   32 1
    28   11   16 ar
    29   11   12 ar
    30   12   13 ar
    31   12   33 1
    32   13   14 ar
    33   13   34 1
    34   14   15 ar
    35   14   35 1
    36   15   16 ar
    37   15   36 1
    38   16   17 1
    39   17   37 1
@<TRIPOS>MOLECULE
ZINC26829431
   38    39     0     0     0
SMALL
USER_CHARGES
2-[(3R)-1-propyl-3-piperidyl]phenol
@<TRIPOS>ATOM
      1 C1         -5.5700   -2.8097    3.8661 C.3       1 <0>        -0.1584
      2 C2         -5.4030   -2.0187    2.5672 C.3       1 <0>        -0.1502
      3 C3         -3.9897   -1.4362    2.5029 C.3       1 <0>        -0.0082
      4 N1         -3.8294   -0.6767    1.2557 N.4       1 <0>        -0.3975
      5 C4         -3.9012   -1.5629    0.0870 C.3       1 <0>        -0.0092
      6 C5         -3.8768   -0.7243   -1.1930 C.3       1 <0>        -0.1455
      7 C6         -2.5871    0.1001   -1.2327 C.3       1 <0>        -0.1303
      8 C7         -2.5134    0.9786    0.0193 C.3       1 <0>        -0.0511
      9 H1         -3.3473    1.6960    0.0259 H         1 <0>         0.1087
     10 C8         -2.5774    0.0906    1.2641 C.3       1 <0>         0.0017
     11 C9         -1.2187    1.7497    0.0173 C.ar      1 <0>        -0.1444
     12 C10        -0.0126    1.0758    0.0080 C.ar      1 <0>        -0.0752
     13 C11         1.1755    1.7827    0.0004 C.ar      1 <0>        -0.1568
     14 C12         1.1601    3.1655    0.0075 C.ar      1 <0>        -0.0644
     15 C13        -0.0430    3.8438    0.0231 C.ar      1 <0>        -0.2085
     16 C14        -1.2368    3.1367    0.0312 C.ar      1 <0>         0.1716
     17 O1         -2.4218    3.8018    0.0469 O.3       1 <0>        -0.5159
     18 H2         -6.5861   -3.2285    3.9123 H         1 <0>         0.0775
     19 H3         -5.4092   -2.1419    4.7253 H         1 <0>         0.0674
     20 H4         -4.8348   -3.6274    3.8945 H         1 <0>         0.0666
     21 H5         -5.5638   -2.6865    1.7080 H         1 <0>         0.0855
     22 H6         -6.1382   -1.2010    2.5387 H         1 <0>         0.0864
     23 H7         -3.8289   -0.7684    3.3621 H         1 <0>         0.1301
     24 H8         -3.2544   -2.2539    2.5314 H         1 <0>         0.1261
     25 H9         -3.0403   -2.2477    0.0927 H         1 <0>         0.1251
     26 H10        -4.8334   -2.1456    0.1254 H         1 <0>         0.1318
     27 H11        -3.9158   -1.3897   -2.0681 H         1 <0>         0.1130
     28 H12        -4.7457   -0.0499   -1.2062 H         1 <0>         0.0888
     29 H13        -1.7202   -0.5764   -1.2609 H         1 <0>         0.0813
     30 H14        -2.5856    0.7356   -2.1306 H         1 <0>         0.0941
     31 H15        -2.5392    0.7201    2.1654 H         1 <0>         0.1299
     32 H16        -1.7228   -0.6020    1.2642 H         1 <0>         0.1251
     33 H17         0.0021   -0.0041    0.0020 H         1 <0>         0.1256
     34 H18         2.1172    1.2541   -0.0114 H         1 <0>         0.1293
     35 H19         2.0895    3.7154    0.0012 H         1 <0>         0.1310
     36 H20        -0.0545    4.9237    0.0287 H         1 <0>         0.1330
     37 H21        -2.4351    4.9017    0.0579 H         1 <0>         0.4461
     38 H22        -4.6612    0.0397    1.1848 H         1 <0>         0.4398
@<TRIPOS>BOND
     1    1    2 1
     2    1   18 1
     3    1   19 1
     4    1   20 1
     5    2    3 1
     6    2   21 1
     7    2   22 1
     8    3    4 1
     9    3   23 1
    10    3   24 1
    11    4   10 1
    12    4    5 1
    13    4   38 1
    14    5    6 1
    15    5   25 1
    16    5   26 1
    17    6    7 1
    18    6   27 1
    19    6   28 1
    20    7    8 1
    21    7   29 1
    22    7   30 1
    23    8    9 1
    24    8   10 1
    25    8   11 1
    26   10   31 1
    27   10   32 1
    28   11   16 ar
    29   11   12 ar
    30   12   13 ar
    31   12   33 1
    32   13   14 ar
    33   13   34 1
    34   14   15 ar
    35   14   35 1
    36   15   16 ar
    37   15   36 1
    38   16   17 1
    39   17   37 1
@<TRIPOS>MOLECULE
ZINC22937858
   54    57     0     0     0
SMALL
USER_CHARGES
2-[4-[(1S,3R)-3-(4-fluorophenyl)-6-(trifluoromethyl)indan-1-yl]piperazin-1-yl]ethanol
@<TRIPOS>ATOM
      1 C1          0.1870    2.1606   -4.1297 C.ar      1 <0>        -0.0795
      2 C2          0.2538    2.3564   -5.4961 C.ar      1 <0>        -0.1490
      3 C3         -0.2299    3.5289   -6.0514 C.ar      1 <0>         0.1149
      4 C4         -0.7856    4.5014   -5.2374 C.ar      1 <0>        -0.1491
      5 C5         -0.8568    4.3008   -3.8720 C.ar      1 <0>        -0.0775
      6 C6         -0.3732    3.1299   -3.3186 C.ar      1 <0>        -0.1131
      7 C7         -0.4510    2.9126   -1.8294 C.3       1 <0>        -0.0235
      8 H1         -0.9211    3.8142   -1.4098 H         1 <0>         0.1155
      9 C8         -1.2333    1.6192   -1.5171 C.3       1 <0>        -0.1298
     10 C9         -0.5057    1.0861   -0.2646 C.3       1 <0>         0.0942
     11 H2         -0.5210   -0.0102   -0.1759 H         1 <0>         0.1435
     12 C10         0.9011    1.6367   -0.3592 C.ar      1 <0>        -0.1598
     13 C11         0.9325    2.6864   -1.2586 C.ar      1 <0>        -0.0272
     14 C12         2.1241    3.3465   -1.5059 C.ar      1 <0>        -0.0931
     15 C13         3.2809    2.9595   -0.8574 C.ar      1 <0>        -0.0344
     16 C14         3.2495    1.9103    0.0417 C.ar      1 <0>        -0.1744
     17 C15         2.0615    1.2503    0.2898 C.ar      1 <0>        -0.0337
     18 C16         4.5101    1.4860    0.7500 C.3       1 <0>         0.5081
     19 F1          5.5728    2.2966    0.3365 F         1 <0>        -0.1688
     20 F2          4.3349    1.6159    2.1319 F         1 <0>        -0.1732
     21 F3          4.7931    0.1516    0.4392 F         1 <0>        -0.1699
     22 N1         -1.1630    1.5739    0.9553 N.4       1 <0>        -0.4004
     23 C17        -0.3115    1.3599    2.1338 C.3       1 <0>        -0.0057
     24 C18        -0.9958    1.9516    3.3684 C.3       1 <0>         0.0223
     25 N2         -2.3089    1.3170    3.5488 N.3       1 <0>        -0.5323
     26 C19        -3.1604    1.5310    2.3703 C.3       1 <0>         0.0202
     27 C20        -2.4762    0.9393    1.1357 C.3       1 <0>        -0.0030
     28 C21        -2.9662    1.8047    4.7686 C.3       1 <0>         0.0524
     29 C22        -2.8880    3.3321    4.8143 C.3       1 <0>         0.0399
     30 O1         -3.6742    3.8812    3.7549 O.3       1 <0>        -0.6058
     31 F4         -0.1593    3.7241   -7.3864 F         1 <0>        -0.1308
     32 H3          0.5688    1.2483   -3.6958 H         1 <0>         0.1305
     33 H4          0.6877    1.5973   -6.1301 H         1 <0>         0.1410
     34 H5         -1.1635    5.4163   -5.6695 H         1 <0>         0.1423
     35 H6         -1.2902    5.0592   -3.2368 H         1 <0>         0.1353
     36 H7         -2.2882    1.8658   -1.3265 H         1 <0>         0.1102
     37 H8         -1.1662    0.9339   -2.3749 H         1 <0>         0.1272
     38 H9          2.1494    4.1665   -2.2084 H         1 <0>         0.1465
     39 H10         4.2088    3.4765   -1.0525 H         1 <0>         0.1548
     40 H11         2.0377    0.4305    0.9924 H         1 <0>         0.1427
     41 H12        -0.1547    0.2812    2.2818 H         1 <0>         0.1355
     42 H13         0.6592    1.8537    1.9794 H         1 <0>         0.1332
     43 H14        -0.3733    1.7672    4.2564 H         1 <0>         0.1213
     44 H15        -1.1269    3.0351    3.2311 H         1 <0>         0.0655
     45 H16        -4.1311    1.0372    2.5248 H         1 <0>         0.1189
     46 H17        -3.3172    2.6096    2.2222 H         1 <0>         0.0900
     47 H18        -3.0977    1.1238    0.2471 H         1 <0>         0.1355
     48 H19        -2.3442   -0.1442    1.2723 H         1 <0>         0.1342
     49 H20        -4.0206    1.4914    4.7672 H         1 <0>         0.0958
     50 H21        -2.4602    1.3851    5.6506 H         1 <0>         0.1063
     51 H22        -3.2732    3.6902    5.7804 H         1 <0>         0.0589
     52 H23        -1.8413    3.6494    4.6966 H         1 <0>         0.0486
     53 H24        -3.7399    4.9718    3.6270 H         1 <0>         0.4159
     54 H25        -1.3215    2.6566    0.8427 H         1 <0>         0.4327
@<TRIPOS>BOND
     1    1    6 ar
     2    1    2 ar
     3    1   32 1
     4    2    3 ar
     5    2   33 1
     6    3    4 ar
     7    3   31 1
     8    4    5 ar
     9    4   34 1
    10    5    6 ar
    11    5   35 1
    12    6    7 1
    13    7    8 1
    14    7   13 1
    15    7    9 1
    16    9   10 1
    17    9   36 1
    18    9   37 1
    19   10   11 1
    20   10   12 1
    21   10   22 1
    22   12   17 ar
    23   12   13 ar
    24   13   14 ar
    25   14   15 ar
    26   14   38 1
    27   15   16 ar
    28   15   39 1
    29   16   17 ar
    30   16   18 1
    31   17   40 1
    32   18   19 1
    33   18   20 1
    34   18   21 1
    35   22   27 1
    36   22   23 1
    37   22   54 1
    38   23   24 1
    39   23   41 1
    40   23   42 1
    41   24   25 1
    42   24   43 1
    43   24   44 1
    44   25   26 1
    45   25   28 1
    46   26   27 1
    47   26   45 1
    48   26   46 1
    49   27   47 1
    50   27   48 1
    51   28   29 1
    52   28   49 1
    53   28   50 1
    54   29   30 1
    55   29   51 1
    56   29   52 1
    57   30   53 1
@<TRIPOS>MOLECULE
ZINC22937858
   53    56     0     0     0
SMALL
USER_CHARGES
2-[4-[(1S,3R)-3-(4-fluorophenyl)-6-(trifluoromethyl)indan-1-yl]piperazin-1-yl]ethanol
@<TRIPOS>ATOM
      1 C1          0.1870    2.1606   -4.1297 C.ar      1 <0>        -0.0805
      2 C2          0.2538    2.3564   -5.4961 C.ar      1 <0>        -0.1508
      3 C3         -0.2299    3.5289   -6.0514 C.ar      1 <0>         0.0980
      4 C4         -0.7856    4.5014   -5.2374 C.ar      1 <0>        -0.1513
      5 C5         -0.8568    4.3008   -3.8720 C.ar      1 <0>        -0.0832
      6 C6         -0.3732    3.1299   -3.3186 C.ar      1 <0>        -0.0937
      7 C7         -0.4510    2.9126   -1.8294 C.3       1 <0>        -0.0059
      8 H1         -0.9211    3.8142   -1.4098 H         1 <0>         0.1065
      9 C8         -1.2333    1.6192   -1.5171 C.3       1 <0>        -0.1003
     10 C9         -0.5057    1.0861   -0.2646 C.3       1 <0>         0.1287
     11 H2         -0.5210   -0.0102   -0.1759 H         1 <0>         0.0592
     12 C10         0.9011    1.6367   -0.3592 C.ar      1 <0>        -0.0889
     13 C11         0.9325    2.6864   -1.2586 C.ar      1 <0>        -0.0357
     14 C12         2.1241    3.3465   -1.5059 C.ar      1 <0>        -0.1024
     15 C13         3.2809    2.9595   -0.8574 C.ar      1 <0>        -0.0653
     16 C14         3.2495    1.9103    0.0417 C.ar      1 <0>        -0.1831
     17 C15         2.0615    1.2503    0.2898 C.ar      1 <0>        -0.0510
     18 C16         4.5101    1.4860    0.7500 C.3       1 <0>         0.5095
     19 F1          5.5728    2.2966    0.3365 F         1 <0>        -0.1761
     20 F2          4.3349    1.6159    2.1319 F         1 <0>        -0.1760
     21 F3          4.7931    0.1516    0.4392 F         1 <0>        -0.1760
     22 N1         -1.1630    1.5739    0.9553 N.3       1 <0>        -0.5316
     23 C17        -0.3115    1.3599    2.1338 C.3       1 <0>         0.0525
     24 C18        -0.9958    1.9516    3.3684 C.3       1 <0>         0.0535
     25 N2         -2.3089    1.3170    3.5488 N.3       1 <0>        -0.5346
     26 C19        -3.1604    1.5310    2.3703 C.3       1 <0>         0.0518
     27 C20        -2.4762    0.9393    1.1357 C.3       1 <0>         0.0551
     28 C21        -2.9662    1.8047    4.7686 C.3       1 <0>         0.0533
     29 C22        -2.8880    3.3321    4.8143 C.3       1 <0>         0.0447
     30 O1         -3.6742    3.8812    3.7549 O.3       1 <0>        -0.5935
     31 F4         -0.1593    3.7241   -7.3864 F         1 <0>        -0.1392
     32 H3          0.5688    1.2483   -3.6958 H         1 <0>         0.1307
     33 H4          0.6877    1.5973   -6.1301 H         1 <0>         0.1356
     34 H5         -1.1635    5.4163   -5.6695 H         1 <0>         0.1364
     35 H6         -1.2902    5.0592   -3.2368 H         1 <0>         0.1339
     36 H7         -2.2882    1.8658   -1.3265 H         1 <0>         0.0916
     37 H8         -1.1662    0.9339   -2.3749 H         1 <0>         0.0847
     38 H9          2.1494    4.1665   -2.2084 H         1 <0>         0.1333
     39 H10         4.2088    3.4765   -1.0525 H         1 <0>         0.1413
     40 H11         2.0377    0.4305    0.9924 H         1 <0>         0.1308
     41 H12        -0.1547    0.2812    2.2818 H         1 <0>         0.0413
     42 H13         0.6592    1.8537    1.9794 H         1 <0>         0.0830
     43 H14        -0.3733    1.7672    4.2564 H         1 <0>         0.0762
     44 H15        -1.1269    3.0351    3.2311 H         1 <0>         0.0499
     45 H16        -4.1311    1.0372    2.5248 H         1 <0>         0.0733
     46 H17        -3.3172    2.6096    2.2222 H         1 <0>         0.0758
     47 H18        -3.0977    1.1238    0.2471 H         1 <0>         0.0817
     48 H19        -2.3442   -0.1442    1.2723 H         1 <0>         0.0402
     49 H20        -4.0206    1.4914    4.7672 H         1 <0>         0.0815
     50 H21        -2.4602    1.3851    5.6506 H         1 <0>         0.0909
     51 H22        -3.2732    3.6902    5.7804 H         1 <0>         0.0433
     52 H23        -1.8413    3.6494    4.6966 H         1 <0>         0.0477
     53 H24        -3.7399    4.9718    3.6270 H         1 <0>         0.4030
@<TRIPOS>BOND
     1    1    6 ar
     2    1    2 ar
     3    1   32 1
     4    2    3 ar
     5    2   33 1
     6    3    4 ar
     7    3   31 1
     8    4    5 ar
     9    4   34 1
    10    5    6 ar
    11    5   35 1
    12    6    7 1
    13    7    8 1
    14    7   13 1
    15    7    9 1
    16    9   10 1
    17    9   36 1
    18    9   37 1
    19   10   11 1
    20   10   12 1
    21   10   22 1
    22   12   17 ar
    23   12   13 ar
    24   13   14 ar
    25   14   15 ar
    26   14   38 1
    27   15   16 ar
    28   15   39 1
    29   16   17 ar
    30   16   18 1
    31   17   40 1
    32   18   19 1
    33   18   20 1
    34   18   21 1
    35   22   27 1
    36   22   23 1
    37   23   24 1
    38   23   41 1
    39   23   42 1
    40   24   25 1
    41   24   43 1
    42   24   44 1
    43   25   26 1
    44   25   28 1
    45   26   27 1
    46   26   45 1
    47   26   46 1
    48   27   47 1
    49   27   48 1
    50   28   29 1
    51   28   49 1
    52   28   50 1
    53   29   30 1
    54   29   51 1
    55   29   52 1
    56   30   53 1
@<TRIPOS>MOLECULE
ZINC03363307
   51    53     0     0     0
SMALL
USER_CHARGES

@<TRIPOS>ATOM
      1 C1         -0.0173    1.4248    0.0099 C.3       1 <0>         0.0228
      2 O1          0.0021   -0.0041    0.0020 O.3       1 <0>        -0.3112
      3 C2          0.6063   -0.6076   -1.0566 C.ar      1 <0>         0.1292
      4 C3          1.1727    0.1584   -2.0619 C.ar      1 <0>        -0.2022
      5 C4          1.7862   -0.4565   -3.1379 C.ar      1 <0>        -0.0667
      6 C5          1.8369   -1.8361   -3.2138 C.ar      1 <0>        -0.1490
      7 C6          1.2745   -2.6077   -2.2144 C.ar      1 <0>        -0.0821
      8 C7          0.6620   -1.9977   -1.1294 C.ar      1 <0>         0.1084
      9 N1          0.0968   -2.7768   -0.1132 N.pl3     1 <0>        -0.6636
     10 C8         -1.3057   -3.2146   -0.1871 C.3       1 <0>         0.1217
     11 C9         -1.3569   -4.7253    0.0636 C.3       1 <0>        -0.0220
     12 N2         -0.6925   -5.0320    1.3366 N.4       1 <0>        -0.3789
     13 C10         0.7338   -4.6939    1.2505 C.3       1 <0>        -0.0286
     14 C11         0.8902   -3.1864    1.0559 C.3       1 <0>         0.1221
     15 C12        -0.8376   -6.4641    1.6301 C.3       1 <0>        -0.0057
     16 C13        -0.2558   -6.7628    3.0132 C.3       1 <0>        -0.1505
     17 C14        -0.4069   -8.2543    3.3189 C.3       1 <0>         0.0618
     18 O2          0.1365   -8.5333    4.6107 O.3       1 <0>        -0.3103
     19 C15         0.0815   -9.8226    5.0382 C.ar      1 <0>         0.1104
     20 C16        -0.4789  -10.7992    4.2280 C.ar      1 <0>        -0.1787
     21 C17        -0.5342  -12.1090    4.6637 C.ar      1 <0>        -0.1136
     22 C18        -0.0311  -12.4471    5.9085 C.ar      1 <0>         0.0728
     23 C19         0.5281  -11.4732    6.7183 C.ar      1 <0>        -0.1109
     24 C20         0.5907  -10.1638    6.2825 C.ar      1 <0>        -0.1158
     25 F1         -0.0863  -13.7283    6.3334 F         1 <0>        -0.1339
     26 H1          1.0053    1.8021    0.0021 H         1 <0>         0.0590
     27 H2         -0.5445    1.7859   -0.8732 H         1 <0>         0.0589
     28 H3         -0.5275    1.7763    0.9067 H         1 <0>         0.1037
     29 H4          1.1348    1.2363   -2.0057 H         1 <0>         0.1342
     30 H5          2.2267    0.1425   -3.9212 H         1 <0>         0.1321
     31 H6          2.3168   -2.3119   -4.0562 H         1 <0>         0.1306
     32 H7          1.3151   -3.6852   -2.2764 H         1 <0>         0.1265
     33 H8         -1.8914   -2.6971    0.5728 H         1 <0>         0.0783
     34 H9         -1.7068   -2.9936   -1.1762 H         1 <0>         0.1146
     35 H10        -2.3961   -5.0513    0.1082 H         1 <0>         0.1368
     36 H11        -0.8470   -5.2457   -0.7471 H         1 <0>         0.1305
     37 H12         1.2353   -4.9969    2.1697 H         1 <0>         0.1381
     38 H13         1.1804   -5.2153    0.4039 H         1 <0>         0.1309
     39 H14         1.9402   -2.9468    0.8881 H         1 <0>         0.1144
     40 H15         0.5300   -2.6661    1.9434 H         1 <0>         0.0778
     41 H16        -1.8938   -6.7330    1.6144 H         1 <0>         0.1352
     42 H17        -0.3036   -7.0450    0.8781 H         1 <0>         0.1327
     43 H18         0.8004   -6.4939    3.0289 H         1 <0>         0.0996
     44 H19        -0.7898   -6.1819    3.7652 H         1 <0>         0.1001
     45 H20        -1.4631   -8.5232    3.3032 H         1 <0>         0.0738
     46 H21         0.1271   -8.8352    2.5669 H         1 <0>         0.0733
     47 H22        -0.8720  -10.5356    3.2573 H         1 <0>         0.1354
     48 H23        -0.9704  -12.8696    4.0331 H         1 <0>         0.1422
     49 H24         0.9198  -11.7382    7.6893 H         1 <0>         0.1482
     50 H25         1.0313   -9.4052    6.9124 H         1 <0>         0.1438
     51 H26        -1.1202   -4.4947    2.0759 H         1 <0>         0.4238
@<TRIPOS>BOND
     1    1    2 1
     2    1   26 1
     3    1   27 1
     4    1   28 1
     5    2    3 1
     6    3    8 ar
     7    3    4 ar
     8    4    5 ar
     9    4   29 1
    10    5    6 ar
    11    5   30 1
    12    6    7 ar
    13    6   31 1
    14    7    8 ar
    15    7   32 1
    16    8    9 1
    17    9   14 1
    18    9   10 1
    19   10   11 1
    20   10   33 1
    21   10   34 1
    22   11   12 1
    23   11   35 1
    24   11   36 1
    25   12   13 1
    26   12   15 1
    27   12   51 1
    28   13   14 1
    29   13   37 1
    30   13   38 1
    31   14   39 1
    32   14   40 1
    33   15   16 1
    34   15   41 1
    35   15   42 1
    36   16   17 1
    37   16   43 1
    38   16   44 1
    39   17   18 1
    40   17   45 1
    41   17   46 1
    42   18   19 1
    43   19   24 ar
    44   19   20 ar
    45   20   21 ar
    46   20   47 1
    47   21   22 ar
    48   21   48 1
    49   22   23 ar
    50   22   25 1
    51   23   24 ar
    52   23   49 1
    53   24   50 1
@<TRIPOS>MOLECULE
ZINC03363307
   50    52     0     0     0
SMALL
USER_CHARGES

@<TRIPOS>ATOM
      1 C1         -0.0173    1.4248    0.0099 C.3       1 <0>         0.0251
      2 O1          0.0021   -0.0041    0.0020 O.3       1 <0>        -0.3040
      3 C2          0.6263   -0.6189    1.0423 C.ar      1 <0>         0.1198
      4 C3          1.2020    0.1362    2.0507 C.ar      1 <0>        -0.2065
      5 C4          1.8368   -0.4902    3.1075 C.ar      1 <0>        -0.0834
      6 C5          1.8987   -1.8703    3.1618 C.ar      1 <0>        -0.1522
      7 C6          1.3263   -2.6311    2.1598 C.ar      1 <0>        -0.0881
      8 C7          0.6832   -2.0097    1.0992 C.ar      1 <0>         0.1385
      9 N1          0.0978   -2.7779    0.0862 N.pl3     1 <0>        -0.6684
     10 C8          0.8705   -3.1791   -1.0992 C.3       1 <0>         0.1532
     11 C9          0.7192   -4.6921   -1.2897 C.3       1 <0>         0.0416
     12 N2         -0.7081   -5.0367   -1.3328 N.3       1 <0>        -0.5329
     13 C10        -1.3720   -4.7173   -0.0619 C.3       1 <0>         0.0366
     14 C11        -1.3047   -3.2105    0.1818 C.3       1 <0>         0.1531
     15 C12        -0.8980   -6.4501   -1.6852 C.3       1 <0>         0.0597
     16 C13        -2.3795   -6.7116   -1.9641 C.3       1 <0>        -0.1163
     17 C14        -2.5773   -8.1837   -2.3312 C.3       1 <0>         0.0598
     18 O2         -3.9610   -8.4279   -2.5916 O.3       1 <0>        -0.3100
     19 C15        -4.3100   -9.6963   -2.9343 C.ar      1 <0>         0.1229
     20 C16        -3.3411  -10.6858   -3.0123 C.ar      1 <0>        -0.1819
     21 C17        -3.6972  -11.9744   -3.3607 C.ar      1 <0>        -0.1123
     22 C18        -5.0204  -12.2782   -3.6324 C.ar      1 <0>         0.0587
     23 C19        -5.9885  -11.2913   -3.5553 C.ar      1 <0>        -0.1121
     24 C20        -5.6361  -10.0034   -3.2007 C.ar      1 <0>        -0.1235
     25 F1         -5.3672  -13.5386   -3.9734 F         1 <0>        -0.1402
     26 H1          1.0053    1.8021    0.0021 H         1 <0>         0.0538
     27 H2         -0.5445    1.7859   -0.8732 H         1 <0>         0.0994
     28 H3         -0.5275    1.7763    0.9067 H         1 <0>         0.0538
     29 H4          1.1555    1.2145    2.0114 H         1 <0>         0.1278
     30 H5          2.2858    0.1003    3.8925 H         1 <0>         0.1246
     31 H6          2.3959   -2.3551    3.9890 H         1 <0>         0.1239
     32 H7          1.3765   -3.7090    2.2044 H         1 <0>         0.1250
     33 H8          0.4889   -2.6595   -1.9781 H         1 <0>         0.0587
     34 H9          1.9218   -2.9319   -0.9519 H         1 <0>         0.0699
     35 H10         1.1938   -4.9902   -2.2246 H         1 <0>         0.0805
     36 H11         1.1942   -5.2127   -0.4581 H         1 <0>         0.0354
     37 H12        -2.4141   -5.0337   -0.1064 H         1 <0>         0.0837
     38 H13        -0.8680   -5.2375    0.7526 H         1 <0>         0.0348
     39 H14        -1.6908   -2.9840    1.1756 H         1 <0>         0.0694
     40 H15        -1.8994   -2.6939   -0.5716 H         1 <0>         0.0582
     41 H16        -0.3139   -6.6843   -2.5752 H         1 <0>         0.0784
     42 H17        -0.5676   -7.0784   -0.8581 H         1 <0>         0.0357
     43 H18        -2.9636   -6.4774   -1.0741 H         1 <0>         0.0756
     44 H19        -2.7099   -6.0833   -2.7912 H         1 <0>         0.0853
     45 H20        -1.9932   -8.4178   -3.2212 H         1 <0>         0.0652
     46 H21        -2.2469   -8.8120   -1.5040 H         1 <0>         0.0625
     47 H22        -2.3088  -10.4490   -2.8012 H         1 <0>         0.1373
     48 H23        -2.9430  -12.7450   -3.4216 H         1 <0>         0.1385
     49 H24        -7.0202  -11.5296   -3.7678 H         1 <0>         0.1434
     50 H25        -6.3922   -9.2349   -3.1359 H         1 <0>         0.1422
@<TRIPOS>BOND
     1    1    2 1
     2    1   26 1
     3    1   27 1
     4    1   28 1
     5    2    3 1
     6    3    8 ar
     7    3    4 ar
     8    4    5 ar
     9    4   29 1
    10    5    6 ar
    11    5   30 1
    12    6    7 ar
    13    6   31 1
    14    7    8 ar
    15    7   32 1
    16    8    9 1
    17    9   14 1
    18    9   10 1
    19   10   11 1
    20   10   33 1
    21   10   34 1
    22   11   12 1
    23   11   35 1
    24   11   36 1
    25   12   13 1
    26   12   15 1
    27   13   14 1
    28   13   37 1
    29   13   38 1
    30   14   39 1
    31   14   40 1
    32   15   16 1
    33   15   41 1
    34   15   42 1
    35   16   17 1
    36   16   43 1
    37   16   44 1
    38   17   18 1
    39   17   45 1
    40   17   46 1
    41   18   19 1
    42   19   24 ar
    43   19   20 ar
    44   20   21 ar
    45   20   47 1
    46   21   22 ar
    47   21   48 1
    48   22   23 ar
    49   22   25 1
    50   23   24 ar
    51   23   49 1
    52   24   50 1
@<TRIPOS>MOLECULE
ZINC26845072
   30    31     0     0     0
SMALL
USER_CHARGES
4-(1-ethyl-5,6-dihydro-2H-pyridin-3-yl)thiazol-2-amine
@<TRIPOS>ATOM
      1 C1          7.2492    4.5715    0.9051 C.3       1 <0>        -0.1896
      2 C2          5.8708    4.4192    0.2588 C.3       1 <0>        -0.0076
      3 N1          5.4284    3.0229    0.3720 N.4       1 <0>        -0.4017
      4 C3          6.2747    2.1339   -0.4407 C.3       1 <0>        -0.0097
      5 C4          5.9816    0.6852   -0.0425 C.3       1 <0>        -0.1156
      6 C5          4.4965    0.4515   -0.0322 C.2       1 <0>        -0.1345
      7 C6          3.6228    1.4354   -0.0243 C.2       1 <0>        -0.0721
      8 C7          4.0204    2.8836   -0.0204 C.3       1 <0>         0.0540
      9 C8          2.1845    1.0999   -0.0129 C.2       1 <0>         0.1217
     10 C9          1.7783   -0.2066   -0.0160 C.2       1 <0>        -0.2338
     11 S1          0.0021   -0.0041    0.0020 S.3       1 <0>         0.0099
     12 C10        -0.0222    1.7828    0.0118 C.2       1 <0>         0.4043
     13 N2          1.2669    2.0661    0.0011 N.2       1 <0>        -0.6005
     14 N3         -1.1075    2.6436    0.0220 N.pl3     1 <0>        -0.8140
     15 H1          7.5804    5.6170    0.8203 H         1 <0>         0.1072
     16 H2          7.9689    3.9162    0.3926 H         1 <0>         0.0801
     17 H3          7.1893    4.2908    1.9670 H         1 <0>         0.0815
     18 H4          5.1511    5.0745    0.7713 H         1 <0>         0.1316
     19 H5          5.9307    4.6999   -0.8031 H         1 <0>         0.1267
     20 H6          6.0464    2.2836   -1.5063 H         1 <0>         0.1288
     21 H7          7.3339    2.3666   -0.2565 H         1 <0>         0.1371
     22 H8          6.4524    0.0036   -0.7662 H         1 <0>         0.1264
     23 H9          6.3876    0.4915    0.9613 H         1 <0>         0.1083
     24 H10         4.1494   -0.5923   -0.0314 H         1 <0>         0.1450
     25 H11         3.3852    3.4290    0.6931 H         1 <0>         0.1452
     26 H12         3.8781    3.2983   -1.0293 H         1 <0>         0.1355
     27 H13         2.3682   -1.1112   -0.0260 H         1 <0>         0.1963
     28 H14        -0.9464    3.7317    0.0271 H         1 <0>         0.4440
     29 H15        -2.1304    2.2390    0.0250 H         1 <0>         0.4527
     30 H16         5.5239    2.7283    1.4275 H         1 <0>         0.4430
@<TRIPOS>BOND
     1    1    2 1
     2    1   15 1
     3    1   16 1
     4    1   17 1
     5    2    3 1
     6    2   18 1
     7    2   19 1
     8    3    8 1
     9    3    4 1
    10    3   30 1
    11    4    5 1
    12    4   20 1
    13    4   21 1
    14    5    6 1
    15    5   22 1
    16    5   23 1
    17    6    7 2
    18    6   24 1
    19    7    8 1
    20    7    9 1
    21    8   25 1
    22    8   26 1
    23    9   13 1
    24    9   10 2
    25   10   11 1
    26   10   27 1
    27   11   12 1
    28   12   13 2
    29   12   14 1
    30   14   28 1
    31   14   29 1
@<TRIPOS>MOLECULE
ZINC13208878
   30    31     0     0     0
SMALL
USER_CHARGES

@<TRIPOS>ATOM
      1 C1         -0.0157    1.3058    0.0092 C.2       1 <0>        -0.1916
      2 C2          0.0021   -0.0041    0.0020 C.2       1 <0>        -0.1432
      3 C3         -1.2926   -0.7753    0.0102 C.3       1 <0>         0.0792
      4 N1         -1.3177   -1.7022   -1.1291 N.3       1 <0>        -0.5319
      5 C4         -1.3775   -0.9692   -2.4044 C.3       1 <0>         0.0474
      6 C5         -1.0808   -1.9486   -3.5428 C.3       1 <0>        -0.0832
      7 C6         -1.9281   -3.1804   -3.3853 C.2       1 <0>        -0.1268
      8 C7         -2.5344   -3.4861   -2.2581 C.2       1 <0>        -0.0587
      9 C8         -2.4476   -2.6341   -1.0245 C.3       1 <0>         0.1056
     10 C9         -3.3379   -4.7241   -2.2039 C.2       1 <0>         0.1388
     11 C10        -3.4400   -5.5320   -3.3034 C.2       1 <0>        -0.2393
     12 S1         -4.4952   -6.8281   -2.6687 S.3       1 <0>        -0.0190
     13 C11        -4.6933   -6.1713   -1.0185 C.2       1 <0>         0.3856
     14 N2         -3.9676   -5.0706   -1.0818 N.2       1 <0>        -0.5714
     15 N3         -5.4143   -6.6844    0.0472 N.pl3     1 <0>        -0.7966
     16 H1          0.9122    1.8585    0.0033 H         1 <0>         0.1004
     17 H2         -0.9582    1.8330    0.0166 H         1 <0>         0.0941
     18 H3          0.9446   -0.5313   -0.0098 H         1 <0>         0.1150
     19 H4         -1.3737   -1.3393    0.9394 H         1 <0>         0.0846
     20 H5         -2.1295   -0.0812   -0.0676 H         1 <0>         0.0392
     21 H6         -2.3728   -0.5449   -2.5365 H         1 <0>         0.0372
     22 H7         -0.6338   -0.1723   -2.4039 H         1 <0>         0.0818
     23 H8         -1.3057   -1.4735   -4.4977 H         1 <0>         0.0799
     24 H9         -0.0274   -2.2272   -3.5163 H         1 <0>         0.0863
     25 H10        -2.0435   -3.8416   -4.2315 H         1 <0>         0.1136
     26 H11        -2.3084   -3.2740   -0.1532 H         1 <0>         0.0926
     27 H12        -3.3724   -2.0687   -0.9102 H         1 <0>         0.0450
     28 H13        -3.0033   -5.4181   -4.2846 H         1 <0>         0.1958
     29 H14        -5.9028   -7.5163   -0.0534 H         1 <0>         0.4217
     30 H15        -5.4306   -6.2118    0.8941 H         1 <0>         0.4178
@<TRIPOS>BOND
     1    1    2 2
     2    1   16 1
     3    1   17 1
     4    2    3 1
     5    2   18 1
     6    3    4 1
     7    3   19 1
     8    3   20 1
     9    4    9 1
    10    4    5 1
    11    5    6 1
    12    5   21 1
    13    5   22 1
    14    6    7 1
    15    6   23 1
    16    6   24 1
    17    7    8 2
    18    7   25 1
    19    8    9 1
    20    8   10 1
    21    9   26 1
    22    9   27 1
    23   10   14 1
    24   10   11 2
    25   11   12 1
    26   11   28 1
    27   12   13 1
    28   13   14 2
    29   13   15 1
    30   15   29 1
    31   15   30 1
@<TRIPOS>MOLECULE
ZINC13208878
   31    32     0     0     0
SMALL
USER_CHARGES

@<TRIPOS>ATOM
      1 C1         -0.0157    1.3058    0.0092 C.2       1 <0>        -0.1770
      2 C2          0.0021   -0.0041    0.0020 C.2       1 <0>        -0.1578
      3 C3         -1.2926   -0.7753    0.0102 C.3       1 <0>         0.0810
      4 N1         -1.3177   -1.7022   -1.1291 N.3       1 <0>        -0.5300
      5 C4         -1.3775   -0.9692   -2.4044 C.3       1 <0>         0.0432
      6 C5         -1.0808   -1.9486   -3.5428 C.3       1 <0>        -0.0966
      7 C6         -1.9281   -3.1804   -3.3853 C.2       1 <0>        -0.0638
      8 C7         -2.5344   -3.4861   -2.2581 C.2       1 <0>        -0.1232
      9 C8         -2.4476   -2.6341   -1.0245 C.3       1 <0>         0.0987
     10 C9         -3.3379   -4.7241   -2.2039 C.2       1 <0>         0.1111
     11 C10        -4.6929   -4.6628   -2.0243 C.2       1 <0>        -0.1555
     12 S1         -5.1111   -6.4009   -2.0416 S.3       1 <0>         0.2619
     13 C11        -3.4559   -7.0298   -2.2839 C.cat     1 <0>         0.3784
     14 N2         -2.7526   -5.9141   -2.3348 N.pl3     1 <0>        -0.5352
     15 N3         -3.0254   -8.3418   -2.3941 N.pl3     1 <0>        -0.7439
     16 H1          0.9122    1.8585    0.0033 H         1 <0>         0.1046
     17 H2         -0.9582    1.8330    0.0166 H         1 <0>         0.0967
     18 H3          0.9446   -0.5313   -0.0098 H         1 <0>         0.1162
     19 H4         -1.3737   -1.3393    0.9394 H         1 <0>         0.0869
     20 H5         -2.1295   -0.0812   -0.0676 H         1 <0>         0.0457
     21 H6         -2.3728   -0.5449   -2.5365 H         1 <0>         0.0456
     22 H7         -0.6338   -0.1723   -2.4039 H         1 <0>         0.0928
     23 H8         -1.3057   -1.4735   -4.4977 H         1 <0>         0.0943
     24 H9         -0.0274   -2.2272   -3.5163 H         1 <0>         0.1003
     25 H10        -2.0435   -3.8416   -4.2315 H         1 <0>         0.1153
     26 H11        -2.3084   -3.2740   -0.1532 H         1 <0>         0.0896
     27 H12        -3.3724   -2.0687   -0.9102 H         1 <0>         0.0584
     28 H13        -5.3335   -3.8015   -1.9049 H         1 <0>         0.2373
     29 H14        -3.6656   -9.0685   -2.3405 H         1 <0>         0.4521
     30 H15        -2.0836   -8.5338   -2.5248 H         1 <0>         0.4355
     31 H16        -1.7927   -5.9613   -2.4663 H         1 <0>         0.4373
@<TRIPOS>BOND
     1    1    2 2
     2    1   16 1
     3    1   17 1
     4    2    3 1
     5    2   18 1
     6    3    4 1
     7    3   19 1
     8    3   20 1
     9    4    9 1
    10    4    5 1
    11    5    6 1
    12    5   21 1
    13    5   22 1
    14    6    7 1
    15    6   23 1
    16    6   24 1
    17    7    8 2
    18    7   25 1
    19    8    9 1
    20    8   10 1
    21    9   26 1
    22    9   27 1
    23   10   14 1
    24   10   11 2
    25   11   12 1
    26   11   28 1
    27   12   13 1
    28   13   14 2
    29   13   15 1
    30   14   31 1
    31   15   29 1
    32   15   30 1
@<TRIPOS>MOLECULE
ZINC03785159
   38    39     0     0     0
SMALL
USER_CHARGES

@<TRIPOS>ATOM
      1 C1         -0.0187    1.5258    0.0104 C.3       1 <0>        -0.1566
      2 C2          0.0021   -0.0041    0.0020 C.3       1 <0>        -0.1507
      3 C3          0.7421   -0.5109    1.2415 C.3       1 <0>        -0.0110
      4 N1          0.7620   -1.9797    1.2335 N.4       1 <0>        -0.3831
      5 C4          1.5443   -2.4507    0.0842 C.3       1 <0>        -0.0135
      6 C5          1.5009   -3.9791    0.0247 C.3       1 <0>        -0.1453
      7 C6          2.0923   -4.5518    1.3160 C.3       1 <0>        -0.1318
      8 C7          1.3153   -3.9953    2.5125 C.3       1 <0>        -0.0601
      9 H1          0.2782   -4.3266    2.4589 H         1 <0>         0.1042
     10 C8          1.3656   -2.4663    2.4799 C.3       1 <0>        -0.0041
     11 C9          1.9371   -4.4929    3.7918 C.ar      1 <0>        -0.0999
     12 C10         3.2550   -4.1875    4.0833 C.ar      1 <0>        -0.0864
     13 C11         3.8337   -4.6403    5.2554 C.ar      1 <0>        -0.1095
     14 C12         3.0992   -5.3998    6.1426 C.ar      1 <0>        -0.0579
     15 C13         1.7690   -5.7113    5.8551 C.ar      1 <0>        -0.0108
     16 C14         1.1897   -5.2470    4.6723 C.ar      1 <0>        -0.0597
     17 C15         1.0006   -6.4993    6.7713 C.1       1 <0>         0.2349
     18 N2          0.3911   -7.1243    7.4981 N.1       1 <0>        -0.3886
     19 H2          1.0039    1.9031    0.0027 H         1 <0>         0.0669
     20 H3         -0.5459    1.8868   -0.8726 H         1 <0>         0.0774
     21 H4         -0.5289    1.8773    0.9072 H         1 <0>         0.0673
     22 H5         -1.0205   -0.3814    0.0098 H         1 <0>         0.0859
     23 H6          0.5123   -0.3556   -0.8948 H         1 <0>         0.0861
     24 H7          1.7647   -0.1336    1.2338 H         1 <0>         0.1296
     25 H8          0.2319   -0.1594    2.1383 H         1 <0>         0.1311
     26 H9          1.1241   -2.0397   -0.8337 H         1 <0>         0.1326
     27 H10         2.5779   -2.1208    0.1892 H         1 <0>         0.1291
     28 H11         0.4677   -4.3100   -0.0805 H         1 <0>         0.0890
     29 H12         2.0838   -4.3268   -0.8282 H         1 <0>         0.1149
     30 H13         2.0121   -5.6388    1.3029 H         1 <0>         0.0982
     31 H14         3.1404   -4.2635    1.3960 H         1 <0>         0.0856
     32 H15         2.4030   -2.1361    2.5337 H         1 <0>         0.1312
     33 H16         0.8134   -2.0668    3.3305 H         1 <0>         0.1336
     34 H17         3.8345   -3.5933    3.3923 H         1 <0>         0.1298
     35 H18         4.8629   -4.3989    5.4763 H         1 <0>         0.1417
     36 H19         3.5523   -5.7530    7.0571 H         1 <0>         0.1409
     37 H20         0.1600   -5.4811    4.4456 H         1 <0>         0.1364
     38 H21        -0.1823   -2.3275    1.1601 H         1 <0>         0.4227
@<TRIPOS>BOND
     1    1    2 1
     2    1   19 1
     3    1   20 1
     4    1   21 1
     5    2    3 1
     6    2   22 1
     7    2   23 1
     8    3    4 1
     9    3   24 1
    10    3   25 1
    11    4   10 1
    12    4    5 1
    13    4   38 1
    14    5    6 1
    15    5   26 1
    16    5   27 1
    17    6    7 1
    18    6   28 1
    19    6   29 1
    20    7    8 1
    21    7   30 1
    22    7   31 1
    23    8    9 1
    24    8   10 1
    25    8   11 1
    26   10   32 1
    27   10   33 1
    28   11   16 ar
    29   11   12 ar
    30   12   13 ar
    31   12   34 1
    32   13   14 ar
    33   13   35 1
    34   14   15 ar
    35   14   36 1
    36   15   16 ar
    37   15   17 1
    38   16   37 1
    39   17   18 3
@<TRIPOS>MOLECULE
ZINC53151260
   56    58     0     0     0
SMALL
USER_CHARGES

@<TRIPOS>ATOM
      1 C1         -0.0173    1.4248    0.0099 C.3       1 <0>         0.0253
      2 O1          0.0021   -0.0041    0.0020 O.3       1 <0>        -0.3058
      3 C2          0.6063   -0.6076   -1.0566 C.ar      1 <0>         0.1176
      4 C3          1.1727    0.1584   -2.0619 C.ar      1 <0>        -0.2068
      5 C4          1.7862   -0.4565   -3.1379 C.ar      1 <0>        -0.0839
      6 C5          1.8369   -1.8361   -3.2138 C.ar      1 <0>        -0.1510
      7 C6          1.2745   -2.6077   -2.2144 C.ar      1 <0>        -0.0867
      8 C7          0.6620   -1.9977   -1.1294 C.ar      1 <0>         0.1387
      9 N1          0.0968   -2.7768   -0.1132 N.pl3     1 <0>        -0.6690
     10 C8         -1.3056   -3.2137   -0.1884 C.3       1 <0>         0.1538
     11 C9         -2.0009   -2.8467    1.1270 C.3       1 <0>         0.0435
     12 N2         -1.2370   -3.4016    2.2523 N.3       1 <0>        -0.5302
     13 C10         0.1078   -2.8148    2.3243 C.3       1 <0>         0.0369
     14 C11         0.8913   -3.1855    1.0551 C.3       1 <0>         0.1539
     15 C12        -1.9589   -3.2205    3.5188 C.3       1 <0>         0.0464
     16 C13        -1.2629   -4.0209    4.6215 C.3       1 <0>         0.1212
     17 N3         -1.9828   -3.8404    5.8846 N.am      1 <0>        -0.7324
     18 C14        -1.5480   -4.4558    7.0020 C.2       1 <0>         0.5174
     19 O2         -0.5608   -5.1591    6.9619 O.2       1 <0>        -0.5353
     20 C15        -2.2886   -4.2701    8.3013 C.3       1 <0>        -0.1055
     21 C16        -2.2972   -2.7866    8.6758 C.3       1 <0>        -0.1099
     22 C17        -3.0491   -2.5981    9.9949 C.3       1 <0>        -0.1184
     23 C18        -2.3531   -3.3985   11.0976 C.3       1 <0>        -0.1233
     24 C19        -2.3445   -4.8819   10.7230 C.3       1 <0>        -0.1206
     25 C20        -1.5926   -5.0705    9.4039 C.3       1 <0>        -0.0998
     26 H1          1.0053    1.8021    0.0021 H         1 <0>         0.0540
     27 H2         -0.5445    1.7859   -0.8732 H         1 <0>         0.0540
     28 H3         -0.5275    1.7763    0.9067 H         1 <0>         0.0967
     29 H4          1.1348    1.2363   -2.0057 H         1 <0>         0.1267
     30 H5          2.2267    0.1425   -3.9212 H         1 <0>         0.1244
     31 H6          2.3168   -2.3119   -4.0562 H         1 <0>         0.1248
     32 H7          1.3151   -3.6852   -2.2764 H         1 <0>         0.1292
     33 H8         -1.8021   -2.7100   -1.0179 H         1 <0>         0.0697
     34 H9         -1.3456   -4.2930   -0.3350 H         1 <0>         0.0578
     35 H10        -2.0515   -1.7620    1.2213 H         1 <0>         0.0407
     36 H11        -3.0095   -3.2602    1.1329 H         1 <0>         0.0779
     37 H12         0.0278   -1.7305    2.4020 H         1 <0>         0.0413
     38 H13         0.6286   -3.2051    3.1987 H         1 <0>         0.0802
     39 H14         1.0584   -4.2622    1.0257 H         1 <0>         0.0586
     40 H15         1.8480   -2.6633    1.0481 H         1 <0>         0.0695
     41 H16        -1.9650   -2.1637    3.7857 H         1 <0>         0.0385
     42 H17        -2.9842   -3.5728    3.4062 H         1 <0>         0.0803
     43 H18        -1.2568   -5.0777    4.3546 H         1 <0>         0.0771
     44 H19        -0.2376   -3.6687    4.7342 H         1 <0>         0.0675
     45 H20        -2.7724   -3.2779    5.9166 H         1 <0>         0.3991
     46 H21        -3.3140   -4.6223    8.1886 H         1 <0>         0.0972
     47 H22        -1.2719   -2.4344    8.7885 H         1 <0>         0.0682
     48 H23        -2.7931   -2.2164    7.8903 H         1 <0>         0.0649
     49 H24        -3.0552   -1.5413   10.2618 H         1 <0>         0.0660
     50 H25        -4.0744   -2.9503    9.8823 H         1 <0>         0.0647
     51 H26        -1.3278   -3.0462   11.2102 H         1 <0>         0.0630
     52 H27        -2.8888   -3.2641   12.0373 H         1 <0>         0.0635
     53 H28        -1.8487   -5.4521   11.5086 H         1 <0>         0.0665
     54 H29        -3.3699   -5.2341   10.6104 H         1 <0>         0.0627
     55 H30        -1.5865   -6.1273    9.1371 H         1 <0>         0.0697
     56 H31        -0.5673   -4.7182    9.5166 H         1 <0>         0.0698
@<TRIPOS>BOND
     1    1    2 1
     2    1   26 1
     3    1   27 1
     4    1   28 1
     5    2    3 1
     6    3    8 ar
     7    3    4 ar
     8    4    5 ar
     9    4   29 1
    10    5    6 ar
    11    5   30 1
    12    6    7 ar
    13    6   31 1
    14    7    8 ar
    15    7   32 1
    16    8    9 1
    17    9   14 1
    18    9   10 1
    19   10   11 1
    20   10   33 1
    21   10   34 1
    22   11   12 1
    23   11   35 1
    24   11   36 1
    25   12   13 1
    26   12   15 1
    27   13   14 1
    28   13   37 1
    29   13   38 1
    30   14   39 1
    31   14   40 1
    32   15   16 1
    33   15   41 1
    34   15   42 1
    35   16   17 1
    36   16   43 1
    37   16   44 1
    38   17   18 am
    39   17   45 1
    40   18   19 2
    41   18   20 1
    42   20   25 1
    43   20   21 1
    44   20   46 1
    45   21   22 1
    46   21   47 1
    47   21   48 1
    48   22   23 1
    49   22   49 1
    50   22   50 1
    51   23   24 1
    52   23   51 1
    53   23   52 1
    54   24   25 1
    55   24   53 1
    56   24   54 1
    57   25   55 1
    58   25   56 1
@<TRIPOS>MOLECULE
ZINC00020245
   46    48     0     0     0
SMALL
USER_CHARGES

@<TRIPOS>ATOM
      1 C1         -5.6836    1.3838    0.0162 C.3       1 <0>        -0.0473
      2 N1         -5.6620   -0.0833   -0.0564 N.4       1 <0>        -0.3868
      3 C2         -6.3713   -0.5242   -1.2649 C.3       1 <0>        -0.0522
      4 C3         -4.2702   -0.5505   -0.1076 C.3       1 <0>        -0.0086
      5 C4         -4.2434   -2.0795   -0.0575 C.3       1 <0>        -0.1781
      6 C5         -2.7938   -2.5661   -0.1108 C.3       1 <0>         0.1490
      7 N2         -2.7704   -4.0309   -0.1190 N.pl3     1 <0>        -0.6108
      8 C6         -2.7295   -4.7451   -1.3212 C.ar      1 <0>         0.1758
      9 C7         -1.6865   -4.4783   -2.2022 C.ar      1 <0>        -0.1411
     10 C8         -1.5734   -5.1772   -3.3856 C.ar      1 <0>        -0.1022
     11 C9         -2.5089   -6.1508   -3.6854 C.ar      1 <0>        -0.1266
     12 C10        -3.5489   -6.4041   -2.8209 C.ar      1 <0>        -0.1101
     13 C11        -3.6933   -5.6947   -1.6266 C.ar      1 <0>        -0.0998
     14 C12        -4.9357   -6.0340   -0.8354 C.3       1 <0>        -0.0687
     15 C13        -5.1005   -5.1892    0.4158 C.3       1 <0>        -0.0773
     16 C14        -3.9592   -5.4030    1.3779 C.ar      1 <0>        -0.0996
     17 C15        -2.7824   -4.7590    1.0748 C.ar      1 <0>         0.1523
     18 C16        -1.6837   -4.8488    1.9126 C.ar      1 <0>        -0.1184
     19 C17        -1.7825   -5.6251    3.0560 C.ar      1 <0>        -0.1094
     20 C18        -2.9565   -6.2950    3.3488 C.ar      1 <0>        -0.1165
     21 C19        -4.0679   -6.1865    2.5030 C.ar      1 <0>        -0.1028
     22 H1         -6.7163    1.7305    0.0542 H         1 <0>         0.1245
     23 H2         -5.1573    1.7109    0.9129 H         1 <0>         0.1235
     24 H3         -5.1933    1.7984   -0.8646 H         1 <0>         0.1221
     25 H4         -6.3552   -1.6128   -1.3188 H         1 <0>         0.1231
     26 H5         -7.4040   -0.1775   -1.2269 H         1 <0>         0.1246
     27 H6         -5.8810   -0.1096   -2.1457 H         1 <0>         0.1227
     28 H7         -3.8061   -0.2091   -1.0329 H         1 <0>         0.1308
     29 H8         -3.7207   -0.1494    0.7440 H         1 <0>         0.1320
     30 H9         -4.7075   -2.4209    0.8678 H         1 <0>         0.0908
     31 H10        -4.7929   -2.4806   -0.9091 H         1 <0>         0.0915
     32 H11        -2.3174   -2.1901   -1.0161 H         1 <0>         0.0824
     33 H12        -2.2550   -2.1990    0.7627 H         1 <0>         0.0801
     34 H13        -0.9599   -3.7176   -1.9576 H         1 <0>         0.1215
     35 H14        -0.7646   -4.9667   -4.0697 H         1 <0>         0.1276
     36 H15        -2.4229   -6.7145   -4.6025 H         1 <0>         0.1250
     37 H16        -4.2693   -7.1687   -3.0712 H         1 <0>         0.1222
     38 H17        -5.8074   -5.8880   -1.4734 H         1 <0>         0.0793
     39 H18        -4.8898   -7.0837   -0.5452 H         1 <0>         0.0765
     40 H19        -5.1365   -4.1371    0.1334 H         1 <0>         0.0724
     41 H20        -6.0358   -5.4578    0.9068 H         1 <0>         0.0709
     42 H21        -0.7686   -4.3248    1.6795 H         1 <0>         0.1257
     43 H22        -0.9372   -5.7074    3.7231 H         1 <0>         0.1275
     44 H23        -3.0178   -6.9071    4.2365 H         1 <0>         0.1269
     45 H24        -4.9880   -6.7067    2.7249 H         1 <0>         0.1290
     46 H25        -6.1159   -0.4671    0.7589 H         1 <0>         0.4268
@<TRIPOS>BOND
     1    1    2 1
     2    1   22 1
     3    1   23 1
     4    1   24 1
     5    2    3 1
     6    2    4 1
     7    2   46 1
     8    3   25 1
     9    3   26 1
    10    3   27 1
    11    4    5 1
    12    4   28 1
    13    4   29 1
    14    5    6 1
    15    5   30 1
    16    5   31 1
    17    6    7 1
    18    6   32 1
    19    6   33 1
    20    7   17 1
    21    7    8 1
    22    8   13 ar
    23    8    9 ar
    24    9   10 ar
    25    9   34 1
    26   10   11 ar
    27   10   35 1
    28   11   12 ar
    29   11   36 1
    30   12   13 ar
    31   12   37 1
    32   13   14 1
    33   14   15 1
    34   14   38 1
    35   14   39 1
    36   15   16 1
    37   15   40 1
    38   15   41 1
    39   16   21 ar
    40   16   17 ar
    41   17   18 ar
    42   18   19 ar
    43   18   42 1
    44   19   20 ar
    45   19   43 1
    46   20   21 ar
    47   20   44 1
    48   21   45 1
@<TRIPOS>MOLECULE
ZINC01851149
   58    61     0     0     0
SMALL
USER_CHARGES

@<TRIPOS>ATOM
      1 C1         -0.0167    1.3781    0.0096 C.ar      1 <0>        -0.0896
      2 C2          1.1690    2.0873    0.0021 C.ar      1 <0>        -0.1006
      3 C3          2.3816    1.4109   -0.0131 C.ar      1 <0>         0.1668
      4 C4          2.3986    0.0211   -0.0208 C.ar      1 <0>        -0.0379
      5 C5          1.2084   -0.6828   -0.0132 C.ar      1 <0>        -0.0271
      6 C6          0.0021   -0.0041    0.0020 C.ar      1 <0>        -0.0892
      7 Cl1         1.2271   -2.4187   -0.0233 Cl        1 <0>        -0.0322
      8 Cl2         3.9117   -0.8297   -0.0404 Cl        1 <0>        -0.0503
      9 N1          3.5822    2.1260   -0.0212 N.pl3     1 <0>        -0.6733
     10 C7          4.2166    2.5248   -1.2872 C.3       1 <0>         0.1212
     11 C8          5.6874    2.0967   -1.2494 C.3       1 <0>        -0.0255
     12 N2          6.3270    2.6517   -0.0498 N.4       1 <0>        -0.3792
     13 C9          5.7166    2.0749    1.1547 C.3       1 <0>        -0.0318
     14 C10         4.2444    2.5067    1.2361 C.3       1 <0>         0.1223
     15 C11         7.7610    2.3338   -0.0701 C.3       1 <0>        -0.0093
     16 C12         8.4515    3.0158    1.1127 C.3       1 <0>        -0.1453
     17 C13         9.9450    2.6847    1.0915 C.3       1 <0>        -0.1184
     18 C14        10.6355    3.3667    2.2743 C.3       1 <0>         0.0595
     19 O1         12.0305    3.0574    2.2545 O.3       1 <0>        -0.3124
     20 C15        12.7944    3.5890    3.2448 C.ar      1 <0>         0.1559
     21 C16        12.2111    4.3876    4.2189 C.ar      1 <0>        -0.2294
     22 C17        12.9865    4.9295    5.2261 C.ar      1 <0>        -0.0411
     23 C18        14.3441    4.6777    5.2669 C.ar      1 <0>        -0.1551
     24 C19        14.9331    3.8788    4.2952 C.ar      1 <0>         0.2059
     25 C20        14.1552    3.3295    3.2858 C.ar      1 <0>        -0.1852
     26 N3         16.3074    3.6248    4.3397 N.am      1 <0>        -0.6651
     27 C21        17.0003    3.8176    5.4770 C.2       1 <0>         0.5216
     28 O2         18.1945    3.6066    5.4945 O.2       1 <0>        -0.5157
     29 C22        16.3105    4.2925    6.7275 C.3       1 <0>        -0.1402
     30 C23        15.1900    5.2680    6.3653 C.3       1 <0>        -0.0752
     31 H1         -0.9596    1.9044    0.0260 H         1 <0>         0.1477
     32 H2          1.1527    3.1672    0.0077 H         1 <0>         0.1420
     33 H3         -0.9265   -0.5556    0.0083 H         1 <0>         0.1502
     34 H4          3.7134    2.0333   -2.1198 H         1 <0>         0.1171
     35 H5          4.1529    3.6066   -1.4040 H         1 <0>         0.0851
     36 H6          5.7487    1.0088   -1.2236 H         1 <0>         0.1293
     37 H7          6.1971    2.4687   -2.1381 H         1 <0>         0.1401
     38 H8          5.7771    0.9876    1.1077 H         1 <0>         0.1300
     39 H9          6.2479    2.4307    2.0374 H         1 <0>         0.1398
     40 H10         4.1834    3.5868    1.3697 H         1 <0>         0.0853
     41 H11         3.7595    2.0032    2.0724 H         1 <0>         0.1165
     42 H12         7.8950    1.2546    0.0040 H         1 <0>         0.1305
     43 H13         8.1993    2.6912   -1.0020 H         1 <0>         0.1352
     44 H14         8.3175    4.0950    1.0386 H         1 <0>         0.0923
     45 H15         8.0132    2.6584    2.0445 H         1 <0>         0.0907
     46 H16        10.0790    1.6055    1.1656 H         1 <0>         0.0866
     47 H17        10.3833    3.0420    0.1597 H         1 <0>         0.0875
     48 H18        10.5015    4.4459    2.2002 H         1 <0>         0.0675
     49 H19        10.1972    3.0093    3.2062 H         1 <0>         0.0669
     50 H20        11.1499    4.5859    4.1893 H         1 <0>         0.1286
     51 H21        12.5305    5.5511    5.9824 H         1 <0>         0.1354
     52 H22        14.6099    2.7045    2.5314 H         1 <0>         0.1380
     53 H23        16.7645    3.3072    3.5453 H         1 <0>         0.4136
     54 H24        15.8894    3.4371    7.2558 H         1 <0>         0.1060
     55 H25        17.0331    4.7940    7.3713 H         1 <0>         0.1134
     56 H26        15.6229    6.2086    6.0246 H         1 <0>         0.0845
     57 H27        14.5699    5.4506    7.2429 H         1 <0>         0.0936
     58 H28         6.2073    3.6535   -0.0392 H         1 <0>         0.4226
@<TRIPOS>BOND
     1    1    6 ar
     2    1    2 ar
     3    1   31 1
     4    2    3 ar
     5    2   32 1
     6    3    4 ar
     7    3    9 1
     8    4    5 ar
     9    4    8 1
    10    5    6 ar
    11    5    7 1
    12    6   33 1
    13    9   14 1
    14    9   10 1
    15   10   11 1
    16   10   34 1
    17   10   35 1
    18   11   12 1
    19   11   36 1
    20   11   37 1
    21   12   13 1
    22   12   15 1
    23   12   58 1
    24   13   14 1
    25   13   38 1
    26   13   39 1
    27   14   40 1
    28   14   41 1
    29   15   16 1
    30   15   42 1
    31   15   43 1
    32   16   17 1
    33   16   44 1
    34   16   45 1
    35   17   18 1
    36   17   46 1
    37   17   47 1
    38   18   19 1
    39   18   48 1
    40   18   49 1
    41   19   20 1
    42   20   25 ar
    43   20   21 ar
    44   21   22 ar
    45   21   50 1
    46   22   23 ar
    47   22   51 1
    48   23   30 1
    49   23   24 ar
    50   24   25 ar
    51   24   26 1
    52   25   52 1
    53   26   27 am
    54   26   53 1
    55   27   28 2
    56   27   29 1
    57   29   30 1
    58   29   54 1
    59   29   55 1
    60   30   56 1
    61   30   57 1
@<TRIPOS>MOLECULE
ZINC01851149
   57    60     0     0     0
SMALL
USER_CHARGES

@<TRIPOS>ATOM
      1 C1         -0.0167    1.3781    0.0096 C.ar      1 <0>        -0.0962
      2 C2          1.1690    2.0873    0.0021 C.ar      1 <0>        -0.1094
      3 C3          2.3816    1.4109   -0.0131 C.ar      1 <0>         0.1932
      4 C4          2.3986    0.0211   -0.0208 C.ar      1 <0>        -0.0428
      5 C5          1.2084   -0.6828   -0.0132 C.ar      1 <0>        -0.0286
      6 C6          0.0021   -0.0041    0.0020 C.ar      1 <0>        -0.1045
      7 Cl1         1.2271   -2.4187   -0.0233 Cl        1 <0>        -0.0488
      8 Cl2         3.9117   -0.8297   -0.0404 Cl        1 <0>        -0.0433
      9 N1          3.5822    2.1260   -0.0212 N.pl3     1 <0>        -0.6753
     10 C7          4.2154    2.5239   -1.2877 C.3       1 <0>         0.1522
     11 C8          5.6814    2.0786   -1.2601 C.3       1 <0>         0.0390
     12 N2          6.3271    2.6054   -0.0504 N.3       1 <0>        -0.5335
     13 C9          5.7110    2.0562    1.1648 C.3       1 <0>         0.0352
     14 C10         4.2431    2.5059    1.2366 C.3       1 <0>         0.1520
     15 C11         7.7731    2.3471   -0.0705 C.3       1 <0>         0.0570
     16 C12         8.4448    3.1181    1.0676 C.3       1 <0>        -0.1122
     17 C13         9.9508    2.8491    1.0467 C.3       1 <0>        -0.1185
     18 C14        10.6225    3.6201    2.1847 C.3       1 <0>         0.0609
     19 O1         12.0291    3.3688    2.1652 O.3       1 <0>        -0.3131
     20 C15        12.7788    3.9828    3.1179 C.ar      1 <0>         0.1632
     21 C16        12.1712    4.8060    4.0560 C.ar      1 <0>        -0.2281
     22 C17        12.9321    5.4316    5.0250 C.ar      1 <0>        -0.0412
     23 C18        14.2995    5.2392    5.0634 C.ar      1 <0>        -0.1625
     24 C19        14.9129    4.4161    4.1277 C.ar      1 <0>         0.2001
     25 C20        14.1497    3.7829    3.1569 C.ar      1 <0>        -0.1880
     26 N3         16.2971    4.2225    4.1697 N.am      1 <0>        -0.6633
     27 C21        16.9915    4.5031    5.2876 C.2       1 <0>         0.5225
     28 O2         18.1937    4.3433    5.3024 O.2       1 <0>        -0.5237
     29 C22        16.2937    5.0132    6.5196 C.3       1 <0>        -0.1395
     30 C23        15.1296    5.9209    6.1201 C.3       1 <0>        -0.0723
     31 H1         -0.9596    1.9044    0.0260 H         1 <0>         0.1404
     32 H2          1.1527    3.1672    0.0077 H         1 <0>         0.1387
     33 H3         -0.9265   -0.5556    0.0083 H         1 <0>         0.1426
     34 H4          3.7022    2.0431   -2.1205 H         1 <0>         0.0715
     35 H5          4.1638    3.6071   -1.3984 H         1 <0>         0.0629
     36 H6          5.7306    0.9897   -1.2538 H         1 <0>         0.0403
     37 H7          6.1944    2.4613   -2.1423 H         1 <0>         0.0804
     38 H8          5.7599    0.9676    1.1373 H         1 <0>         0.0406
     39 H9          6.2457    2.4226    2.0412 H         1 <0>         0.0819
     40 H10         4.1941    3.5874    1.3639 H         1 <0>         0.0629
     41 H11         3.7483    2.0131    2.0736 H         1 <0>         0.0709
     42 H12         7.9533    1.2798    0.0578 H         1 <0>         0.0339
     43 H13         8.1873    2.6734   -1.0245 H         1 <0>         0.0769
     44 H14         8.2646    4.1855    0.9393 H         1 <0>         0.0762
     45 H15         8.0306    2.7918    2.0216 H         1 <0>         0.0660
     46 H16        10.1310    1.7817    1.1750 H         1 <0>         0.0732
     47 H17        10.3650    3.1754    0.0927 H         1 <0>         0.0761
     48 H18        10.4423    4.6874    2.0565 H         1 <0>         0.0659
     49 H19        10.2083    3.2938    3.1387 H         1 <0>         0.0641
     50 H20        11.1023    4.9580    4.0282 H         1 <0>         0.1320
     51 H21        12.4571    6.0722    5.7533 H         1 <0>         0.1337
     52 H22        14.6236    3.1389    2.4308 H         1 <0>         0.1367
     53 H23        16.7599    3.8832    3.3877 H         1 <0>         0.4126
     54 H24        15.9140    4.1697    7.0961 H         1 <0>         0.1050
     55 H25        17.0002    5.5774    7.1284 H         1 <0>         0.1106
     56 H26        15.5192    6.8597    5.7264 H         1 <0>         0.0818
     57 H27        14.5104    6.1229    6.9941 H         1 <0>         0.0917
@<TRIPOS>BOND
     1    1    6 ar
     2    1    2 ar
     3    1   31 1
     4    2    3 ar
     5    2   32 1
     6    3    4 ar
     7    3    9 1
     8    4    5 ar
     9    4    8 1
    10    5    6 ar
    11    5    7 1
    12    6   33 1
    13    9   14 1
    14    9   10 1
    15   10   11 1
    16   10   34 1
    17   10   35 1
    18   11   12 1
    19   11   36 1
    20   11   37 1
    21   12   13 1
    22   12   15 1
    23   13   14 1
    24   13   38 1
    25   13   39 1
    26   14   40 1
    27   14   41 1
    28   15   16 1
    29   15   42 1
    30   15   43 1
    31   16   17 1
    32   16   44 1
    33   16   45 1
    34   17   18 1
    35   17   46 1
    36   17   47 1
    37   18   19 1
    38   18   48 1
    39   18   49 1
    40   19   20 1
    41   20   25 ar
    42   20   21 ar
    43   21   22 ar
    44   21   50 1
    45   22   23 ar
    46   22   51 1
    47   23   30 1
    48   23   24 ar
    49   24   25 ar
    50   24   26 1
    51   25   52 1
    52   26   27 am
    53   26   53 1
    54   27   28 2
    55   27   29 1
    56   29   30 1
    57   29   54 1
    58   29   55 1
    59   30   56 1
    60   30   57 1
@<TRIPOS>MOLECULE
ZINC05833744
   39    40     0     0     0
SMALL
USER_CHARGES
4-(1-propyl-3-piperidyl)benzene-1,2-diol
@<TRIPOS>ATOM
      1 C1         -3.3055   -0.7691    1.6957 C.3       1 <0>        -0.1566
      2 C2         -1.8936   -0.2007    1.5399 C.3       1 <0>        -0.1512
      3 C3         -1.3536   -0.5498    0.1516 C.3       1 <0>        -0.0067
      4 C4         -0.0178    1.4642    0.0101 C.3       1 <0>        -0.0074
      5 C5          1.4174    1.9953   -0.0008 C.3       1 <0>        -0.1462
      6 C6          2.1366    1.4828   -1.2517 C.3       1 <0>        -0.1309
      7 C7          2.1009   -0.0479   -1.2603 C.3       1 <0>        -0.0591
      8 H1          2.6356   -0.4293   -0.3904 H         1 <0>         0.1020
      9 C8          0.6459   -0.5197   -1.2129 C.3       1 <0>         0.0013
     10 C9          2.7553   -0.5602   -2.5175 C.ar      1 <0>        -0.0938
     11 C10         2.2479   -0.2043   -3.7533 C.ar      1 <0>        -0.1056
     12 C11         2.8451   -0.6708   -4.9095 C.ar      1 <0>        -0.1248
     13 C12         3.9545   -1.4974   -4.8313 C.ar      1 <0>         0.0975
     14 C13         4.4649   -1.8560   -3.5874 C.ar      1 <0>         0.0897
     15 C14         3.8649   -1.3802   -2.4325 C.ar      1 <0>        -0.1175
     16 O1          5.5535   -2.6669   -3.5055 O.3       1 <0>        -0.4852
     17 O2          4.5429   -1.9576   -5.9677 O.3       1 <0>        -0.4857
     18 H2         -3.2760   -1.8524    1.5791 H         1 <0>         0.0673
     19 H3         -3.6902   -0.5204    2.6847 H         1 <0>         0.0773
     20 H4         -3.9562   -0.3393    0.9341 H         1 <0>         0.0669
     21 H5         -1.2429   -0.6305    2.3015 H         1 <0>         0.0854
     22 H6         -1.9231    0.8826    1.6564 H         1 <0>         0.0855
     23 H7         -2.0043   -0.1200   -0.6100 H         1 <0>         0.1308
     24 H8         -1.3241   -1.6331    0.0350 H         1 <0>         0.1292
     25 H9         -0.5453    1.8252   -0.8729 H         1 <0>         0.1302
     26 H10        -0.5283    1.8156    0.9068 H         1 <0>         0.1303
     27 H11         1.4021    3.0851   -0.0105 H         1 <0>         0.1144
     28 H12         1.9414    1.6460    0.8890 H         1 <0>         0.0886
     29 H13         3.1721    1.8230   -1.2416 H         1 <0>         0.0963
     30 H14         1.6367    1.8639   -2.1422 H         1 <0>         0.0848
     31 H15         0.6175   -1.6093   -1.2045 H         1 <0>         0.1311
     32 H16         0.1153   -0.1495   -2.0901 H         1 <0>         0.1321
     33 H17         1.3833    0.4399   -3.8156 H         1 <0>         0.1291
     34 H18         2.4468   -0.3914   -5.8737 H         1 <0>         0.1404
     35 H19         4.2618   -1.6534   -1.4659 H         1 <0>         0.1365
     36 H20         6.3966   -2.1936   -3.4945 H         1 <0>         0.3952
     37 H21         5.2414   -1.3828   -6.3095 H         1 <0>         0.3966
     38 N1          0.0174   -0.0136    0.0260 N.4       1 <0>        -0.3941
     39 H22         0.5722   -0.3247    0.8320 H         1 <0>         0.4263
@<TRIPOS>BOND
     1    1    2 1
     2    1   18 1
     3    1   19 1
     4    1   20 1
     5    2    3 1
     6    2   21 1
     7    2   22 1
     8    3   23 1
     9    3   24 1
    10    3   38 1
    11    4    5 1
    12    4   25 1
    13    4   26 1
    14    4   38 1
    15    5    6 1
    16    5   27 1
    17    5   28 1
    18    6    7 1
    19    6   29 1
    20    6   30 1
    21    7    8 1
    22    7    9 1
    23    7   10 1
    24    9   31 1
    25    9   32 1
    26    9   38 1
    27   10   15 ar
    28   10   11 ar
    29   11   12 ar
    30   11   33 1
    31   12   13 ar
    32   12   34 1
    33   13   14 ar
    34   13   17 1
    35   14   15 ar
    36   14   16 1
    37   15   35 1
    38   16   36 1
    39   17   37 1
    40   38   39 1
@<TRIPOS>MOLECULE
ZINC05833832
   39    40     0     0     0
SMALL
USER_CHARGES
4-(1-propyl-3-piperidyl)benzene-1,2-diol
@<TRIPOS>ATOM
      1 C1          7.7358    8.5348    2.1171 C.3       1 <0>        -0.1570
      2 C2          7.7777    7.1264    1.5209 C.3       1 <0>        -0.1530
      3 C3          6.3498    6.6262    1.2933 C.3       1 <0>        -0.0061
      4 C4          7.3500    4.4265    1.4398 C.3       1 <0>        -0.0115
      5 C5          7.4726    3.0765    0.7296 C.3       1 <0>        -0.1462
      6 C6          6.0992    2.4007    0.6862 C.3       1 <0>        -0.1314
      7 C7          5.1065    3.3251   -0.0241 C.3       1 <0>        -0.0591
      8 H1          5.4294    3.4842   -1.0529 H         1 <0>         0.1021
      9 C8          5.0525    4.6679    0.7080 C.3       1 <0>         0.0023
     10 C9          3.7382    2.6935   -0.0182 C.ar      1 <0>        -0.0942
     11 C10         3.1208    2.3963    1.1825 C.ar      1 <0>        -0.1058
     12 C11         1.8631    1.8226    1.1932 C.ar      1 <0>        -0.1255
     13 C12         1.2237    1.5328   -0.0014 C.ar      1 <0>         0.0985
     14 C13         1.8453    1.8315   -1.2100 C.ar      1 <0>         0.0905
     15 C14         3.1033    2.4122   -1.2136 C.ar      1 <0>        -0.1181
     16 O1          1.2192    1.5546   -2.3851 O.3       1 <0>        -0.4894
     17 O2         -0.0110    0.9628    0.0073 O.3       1 <0>        -0.4909
     18 H2          7.2213    9.2055    1.4289 H         1 <0>         0.0669
     19 H3          7.2032    8.5113    3.0678 H         1 <0>         0.0667
     20 H4          8.7531    8.8912    2.2792 H         1 <0>         0.0773
     21 H5          8.2922    6.4557    2.2091 H         1 <0>         0.0885
     22 H6          8.3103    7.1499    0.5702 H         1 <0>         0.0855
     23 H7          5.8353    7.2969    0.6051 H         1 <0>         0.1285
     24 H8          5.8172    6.6027    2.2440 H         1 <0>         0.1301
     25 H9          8.3235    4.9164    1.4592 H         1 <0>         0.1339
     26 H10         7.0023    4.2695    2.4609 H         1 <0>         0.1302
     27 H11         7.8334    3.2317   -0.2872 H         1 <0>         0.0885
     28 H12         8.1739    2.4424    1.2719 H         1 <0>         0.1143
     29 H13         5.7557    2.2095    1.7028 H         1 <0>         0.0845
     30 H14         6.1731    1.4589    0.1425 H         1 <0>         0.0968
     31 H15         4.3573    5.3331    0.1958 H         1 <0>         0.1307
     32 H16         4.7156    4.5097    1.7325 H         1 <0>         0.1318
     33 H17         3.6202    2.6173    2.1143 H         1 <0>         0.1288
     34 H18         1.3808    1.5962    2.1327 H         1 <0>         0.1404
     35 H19         3.5878    2.6454   -2.1503 H         1 <0>         0.1365
     36 H20         0.6682    2.2767   -2.7169 H         1 <0>         0.3997
     37 H21         0.0021   -0.0041    0.0020 H         1 <0>         0.4021
     38 N1          6.3993    5.2773    0.6926 N.4       1 <0>        -0.3937
     39 H22         6.7175    5.3571   -0.2804 H         1 <0>         0.4268
@<TRIPOS>BOND
     1    1    2 1
     2    1   18 1
     3    1   19 1
     4    1   20 1
     5    2    3 1
     6    2   21 1
     7    2   22 1
     8    3   23 1
     9    3   24 1
    10    3   38 1
    11    4    5 1
    12    4   25 1
    13    4   26 1
    14    4   38 1
    15    5    6 1
    16    5   27 1
    17    5   28 1
    18    6    7 1
    19    6   29 1
    20    6   30 1
    21    7    8 1
    22    7    9 1
    23    7   10 1
    24    9   31 1
    25    9   32 1
    26    9   38 1
    27   10   15 ar
    28   10   11 ar
    29   11   12 ar
    30   11   33 1
    31   12   13 ar
    32   12   34 1
    33   13   14 ar
    34   13   17 1
    35   14   15 ar
    36   14   16 1
    37   15   35 1
    38   16   36 1
    39   17   37 1
    40   38   39 1
@<TRIPOS>MOLECULE
ZINC00537822
   50    52     0     0     0
SMALL
USER_CHARGES

@<TRIPOS>ATOM
      1 C1         -0.0169    1.3952    0.0097 C.ar      1 <0>        -0.0260
      2 C2          1.1683    2.0970    0.0022 C.ar      1 <0>        -0.1650
      3 C3          2.3789    1.4198   -0.0130 C.ar      1 <0>         0.1439
      4 C4          2.4047    0.0329   -0.0212 C.ar      1 <0>        -0.1670
      5 C5          1.2267   -0.6810   -0.0142 C.ar      1 <0>        -0.0432
      6 C6          0.0021   -0.0041    0.0020 C.ar      1 <0>        -0.1967
      7 C7         -1.2591   -0.7596    0.0105 C.2       1 <0>         0.4038
      8 O1         -2.3189   -0.1702    0.0242 O.2       1 <0>        -0.4483
      9 C8         -1.2348   -2.2664    0.0022 C.3       1 <0>        -0.1653
     10 C9         -2.6689   -2.7996    0.0135 C.3       1 <0>        -0.1429
     11 C10        -2.6443   -4.3293    0.0051 C.3       1 <0>        -0.0092
     12 N1         -4.0211   -4.8413    0.0160 N.4       1 <0>        -0.3830
     13 C11        -4.6726   -4.4620    1.2755 C.3       1 <0>        -0.0093
     14 C12        -6.1318   -4.9225    1.2582 C.3       1 <0>        -0.1330
     15 C13        -6.1791   -6.4445    1.0954 C.3       1 <0>         0.1746
     16 C14        -5.4322   -6.8346   -0.1834 C.3       1 <0>        -0.1706
     17 C15        -3.9990   -6.3033   -0.1127 C.3       1 <0>        -0.0017
     18 C16        -7.6135   -6.8966    0.9991 C.ar      1 <0>        -0.1262
     19 C17        -8.5661   -6.0599    0.4482 C.ar      1 <0>        -0.1006
     20 C18        -9.8818   -6.4740    0.3596 C.ar      1 <0>        -0.1039
     21 C19       -10.2453   -7.7262    0.8224 C.ar      1 <0>        -0.0247
     22 C20        -9.2914   -8.5631    1.3735 C.ar      1 <0>        -0.1016
     23 C21        -7.9750   -8.1501    1.4564 C.ar      1 <0>        -0.0934
     24 Cl1       -11.8977   -8.2468    0.7119 Cl        1 <0>        -0.0500
     25 O2         -5.5554   -7.0652    2.2213 O.3       1 <0>        -0.5474
     26 F1          3.5378    2.1141   -0.0204 F         1 <0>        -0.1258
     27 H1         -0.9587    1.9236    0.0260 H         1 <0>         0.1459
     28 H2          1.1551    3.1769    0.0077 H         1 <0>         0.1477
     29 H3          3.3506   -0.4883   -0.0334 H         1 <0>         0.1469
     30 H4          1.2482   -1.7608   -0.0213 H         1 <0>         0.1412
     31 H5         -0.7241   -2.6166   -0.8948 H         1 <0>         0.1127
     32 H6         -0.7064   -2.6261    0.8850 H         1 <0>         0.1127
     33 H7         -3.1796   -2.4493    0.9105 H         1 <0>         0.0952
     34 H8         -3.1973   -2.4398   -0.8693 H         1 <0>         0.0947
     35 H9         -2.1335   -4.6796   -0.8919 H         1 <0>         0.1333
     36 H10        -2.1158   -4.6891    0.8880 H         1 <0>         0.1327
     37 H11        -4.1530   -4.9339    2.1093 H         1 <0>         0.1388
     38 H12        -4.6353   -3.3788    1.3915 H         1 <0>         0.1356
     39 H13        -6.6132   -4.6415    2.1949 H         1 <0>         0.1238
     40 H14        -6.6524   -4.4509    0.4248 H         1 <0>         0.1045
     41 H15        -5.4137   -7.9204   -0.2771 H         1 <0>         0.1175
     42 H16        -5.9384   -6.4027   -1.0467 H         1 <0>         0.1009
     43 H17        -3.4644   -6.5795   -1.0215 H         1 <0>         0.1329
     44 H18        -3.4937   -6.7360    0.7507 H         1 <0>         0.1354
     45 H19        -8.2824   -5.0823    0.0874 H         1 <0>         0.1334
     46 H20       -10.6260   -5.8201   -0.0704 H         1 <0>         0.1408
     47 H21        -9.5746   -9.5405    1.7352 H         1 <0>         0.1414
     48 H22        -7.2294   -8.8051    1.8823 H         1 <0>         0.1323
     49 H23        -5.5495   -8.0314    2.1846 H         1 <0>         0.3907
     50 H24        -4.5327   -4.4442   -0.7578 H         1 <0>         0.4215
@<TRIPOS>BOND
     1    1    6 ar
     2    1    2 ar
     3    1   27 1
     4    2    3 ar
     5    2   28 1
     6    3    4 ar
     7    3   26 1
     8    4    5 ar
     9    4   29 1
    10    5    6 ar
    11    5   30 1
    12    6    7 1
    13    7    8 2
    14    7    9 1
    15    9   10 1
    16    9   31 1
    17    9   32 1
    18   10   11 1
    19   10   33 1
    20   10   34 1
    21   11   12 1
    22   11   35 1
    23   11   36 1
    24   12   17 1
    25   12   13 1
    26   12   50 1
    27   13   14 1
    28   13   37 1
    29   13   38 1
    30   14   15 1
    31   14   39 1
    32   14   40 1
    33   15   16 1
    34   15   18 1
    35   15   25 1
    36   16   17 1
    37   16   41 1
    38   16   42 1
    39   17   43 1
    40   17   44 1
    41   18   23 ar
    42   18   19 ar
    43   19   20 ar
    44   19   45 1
    45   20   21 ar
    46   20   46 1
    47   21   22 ar
    48   21   24 1
    49   22   23 ar
    50   22   47 1
    51   23   48 1
    52   25   49 1
@<TRIPOS>MOLECULE
ZINC03783980
   37    39     0     0     0
SMALL
USER_CHARGES

@<TRIPOS>ATOM
      1 C1         -0.0174    1.3767    0.0136 C.ar      1 <0>        -0.1012
      2 C2          0.1526    0.2844   -0.8163 C.ar      1 <0>        -0.1081
      3 C3          1.3592   -0.3899   -0.8330 C.ar      1 <0>        -0.1177
      4 C4          2.3960    0.0285   -0.0201 C.ar      1 <0>        -0.1160
      5 C5          2.2264    1.1215    0.8091 C.ar      1 <0>        -0.1149
      6 C6          1.0193    1.7948    0.8268 C.ar      1 <0>        -0.1076
      7 C7          3.7036   -0.7029   -0.0375 C.3       1 <0>        -0.0193
      8 H1          4.4826    0.1015   -0.1363 H         1 <0>         0.1314
      9 C8          4.0133   -1.4150    1.2578 C.3       1 <0>        -0.0003
     10 N1          2.9533   -2.2867    1.7589 N.4       1 <0>        -0.5013
     11 C9          2.2323   -2.9643    0.6691 C.3       1 <0>        -0.0182
     12 C10         3.2963   -3.7442   -0.1278 C.3       1 <0>        -0.1086
     13 C11         3.7124   -2.9112   -1.3184 C.ar      1 <0>        -0.0822
     14 C12         3.8718   -1.5473   -1.2686 C.ar      1 <0>        -0.0654
     15 C13         4.2291   -0.8619   -2.4308 C.ar      1 <0>        -0.1150
     16 C14         4.4388   -1.5334   -3.6188 C.ar      1 <0>         0.1126
     17 C15         4.2953   -2.9160   -3.6595 C.ar      1 <0>         0.1098
     18 C16         3.9333   -3.5957   -2.5105 C.ar      1 <0>        -0.0507
     19 Cl1         3.7549   -5.3223   -2.5580 Cl        1 <0>        -0.0292
     20 O1          4.5096   -3.5937   -4.8188 O.3       1 <0>        -0.4704
     21 O2          4.7849   -0.8492   -4.7424 O.3       1 <0>        -0.4769
     22 H2         -0.9586    1.9062    0.0233 H         1 <0>         0.1319
     23 H3         -0.6575   -0.0425   -1.4514 H         1 <0>         0.1312
     24 H4          1.4917   -1.2437   -1.4809 H         1 <0>         0.1270
     25 H5          3.0363    1.4481    1.4445 H         1 <0>         0.1285
     26 H6          0.8866    2.6485    1.4750 H         1 <0>         0.1324
     27 H7          4.9274   -2.0197    1.1363 H         1 <0>         0.1363
     28 H8          4.2410   -0.6707    2.0397 H         1 <0>         0.1409
     29 H9          3.3634   -2.9917    2.3592 H         1 <0>         0.4335
     30 H10         1.5479   -3.6975    1.1177 H         1 <0>         0.1375
     31 H11         1.6793   -2.3098    0.0317 H         1 <0>         0.1480
     32 H12         4.1531   -3.9294    0.5095 H         1 <0>         0.1044
     33 H13         2.8603   -4.6785   -0.4650 H         1 <0>         0.1240
     34 H14         4.3443    0.2118   -2.3936 H         1 <0>         0.1453
     35 H15         5.4237   -3.8844   -4.9413 H         1 <0>         0.3999
     36 H16         5.7390   -0.7470   -4.8625 H         1 <0>         0.4003
     37 H17         2.2972   -1.7463    2.3026 H         1 <0>         0.4284
@<TRIPOS>BOND
     1    1    6 ar
     2    1    2 ar
     3    1   22 1
     4    2    3 ar
     5    2   23 1
     6    3    4 ar
     7    3   24 1
     8    4    5 ar
     9    4    7 1
    10    5    6 ar
    11    5   25 1
    12    6   26 1
    13    7    8 1
    14    7   14 1
    15    7    9 1
    16    9   10 1
    17    9   27 1
    18    9   28 1
    19   10   11 1
    20   10   29 1
    21   10   37 1
    22   11   12 1
    23   11   30 1
    24   11   31 1
    25   12   13 1
    26   12   32 1
    27   12   33 1
    28   13   18 ar
    29   13   14 ar
    30   14   15 ar
    31   15   16 ar
    32   15   34 1
    33   16   17 ar
    34   16   21 1
    35   17   18 ar
    36   17   20 1
    37   18   19 1
    38   20   35 1
    39   21   36 1
@<TRIPOS>MOLECULE
ZINC03872369
   27    28     0     0     0
SMALL
USER_CHARGES

@<TRIPOS>ATOM
      1 C1         -0.0167    1.3781    0.0096 C.ar      1 <0>        -0.1278
      2 C2          1.1699    2.1013    0.0022 C.ar      1 <0>        -0.0760
      3 C3          2.3760    1.4373   -0.0096 C.ar      1 <0>        -0.0871
      4 C4          2.3994    0.0479   -0.0213 C.ar      1 <0>        -0.1240
      5 C5          1.2214   -0.6754   -0.0154 C.ar      1 <0>         0.0920
      6 C6          0.0021   -0.0041    0.0020 C.ar      1 <0>         0.1009
      7 O1         -1.1639   -0.7039    0.0111 O.3       1 <0>        -0.4894
      8 O2          1.2536   -2.0349   -0.0267 O.3       1 <0>        -0.4893
      9 C7          3.6985    2.1589   -0.0019 C.3       1 <0>        -0.0938
     10 C8          3.5179    3.6167   -0.4196 C.3       1 <0>         0.0260
     11 H1          3.2457    3.6655   -1.4739 H         1 <0>         0.1479
     12 C9          2.3990    4.2287    0.4314 C.3       1 <0>        -0.1401
     13 C10         1.0724    3.6047    0.0035 C.3       1 <0>        -0.0778
     14 N1          4.7691    4.3537   -0.1972 N.4       1 <0>        -0.6353
     15 H2         -0.9618    1.9005    0.0260 H         1 <0>         0.1401
     16 H3          3.3462   -0.4714   -0.0354 H         1 <0>         0.1375
     17 H4         -1.5109   -0.9016   -0.8696 H         1 <0>         0.4018
     18 H5          1.2716   -2.4352    0.8534 H         1 <0>         0.4007
     19 H6          4.1219    2.1225    1.0018 H         1 <0>         0.0992
     20 H7          4.3799    1.6678   -0.6967 H         1 <0>         0.1015
     21 H8          2.5814    4.0169    1.4850 H         1 <0>         0.0947
     22 H9          2.3655    5.3067    0.2736 H         1 <0>         0.0960
     23 H10         0.8201    3.9494   -0.9994 H         1 <0>         0.0921
     24 H11         0.2898    3.9135    0.6965 H         1 <0>         0.0998
     25 H12         5.5067    3.9374   -0.7456 H         1 <0>         0.4376
     26 H13         4.6463    5.3161   -0.4741 H         1 <0>         0.4386
     27 H14         5.0137    4.3137    0.7809 H         1 <0>         0.4342
@<TRIPOS>BOND
     1    1    6 ar
     2    1    2 ar
     3    1   15 1
     4    2   13 1
     5    2    3 ar
     6    3    4 ar
     7    3    9 1
     8    4    5 ar
     9    4   16 1
    10    5    6 ar
    11    5    8 1
    12    6    7 1
    13    7   17 1
    14    8   18 1
    15    9   10 1
    16    9   19 1
    17    9   20 1
    18   10   11 1
    19   10   12 1
    20   10   14 1
    21   12   13 1
    22   12   21 1
    23   12   22 1
    24   13   23 1
    25   13   24 1
    26   14   25 1
    27   14   26 1
    28   14   27 1
@<TRIPOS>MOLECULE
ZINC00023994
   50    53     0     0     0
SMALL
USER_CHARGES
5-[3-(4-benzyl-1-piperidyl)prop-1-ynyl]-1,3-dihydrobenzoimidazol-2-one
@<TRIPOS>ATOM
      1 C1          6.9097    0.8133    2.5380 C.ar      1 <0>        -0.1161
      2 C2          5.9435    1.6441    3.0739 C.ar      1 <0>        -0.1163
      3 C3          4.6204    1.2443    3.0912 C.ar      1 <0>        -0.1214
      4 C4          4.2632    0.0141    2.5718 C.ar      1 <0>        -0.0951
      5 C5          5.2300   -0.8188    2.0402 C.ar      1 <0>        -0.1157
      6 C6          6.5526   -0.4172    2.0190 C.ar      1 <0>        -0.1138
      7 C7          2.8207   -0.4217    2.5906 C.3       1 <0>        -0.0745
      8 C8          2.1331    0.0352    1.3025 C.3       1 <0>        -0.0944
      9 C9          0.7039   -0.5130    1.2631 C.3       1 <0>        -0.1440
     10 C10         0.0021   -0.0041    0.0020 C.3       1 <0>        -0.0008
     11 C11         1.3439    2.0138    0.0000 C.3       1 <0>        -0.0018
     12 C12         2.0858    1.5651    1.2611 C.3       1 <0>        -0.1461
     13 C13        -0.8045    1.9863   -1.1153 C.3       1 <0>         0.1420
     14 C14        -1.0044    3.4346   -0.9443 C.1       1 <0>        -0.2744
     15 C15        -1.1639    4.5897   -0.8078 C.1       1 <0>         0.0092
     16 C16        -1.3583    5.9986   -0.6414 C.ar      1 <0>        -0.0254
     17 C17        -2.0825    6.7214   -1.5931 C.ar      1 <0>        -0.0668
     18 C18        -2.2713    8.0772   -1.4358 C.ar      1 <0>        -0.1022
     19 C19        -1.7423    8.7288   -0.3298 C.ar      1 <0>         0.1237
     20 C20        -1.0175    8.0114    0.6259 C.ar      1 <0>         0.0904
     21 C21        -0.8301    6.6487    0.4733 C.ar      1 <0>        -0.0680
     22 N1         -0.6223    8.9255    1.6006 N.am      1 <0>        -0.6409
     23 H1         -0.1031    8.7207    2.3939 H         1 <0>         0.4401
     24 C22        -1.0851   10.1412    1.2538 C.2       1 <0>         0.6857
     25 O1         -0.9156   11.1634    1.8917 O.2       1 <0>        -0.5344
     26 N2         -1.7642   10.0546    0.0947 N.am      1 <0>        -0.6388
     27 H2         -2.1953   10.7910   -0.3666 H         1 <0>         0.4427
     28 H3          7.9434    1.1256    2.5245 H         1 <0>         0.1252
     29 H4          6.2225    2.6055    3.4794 H         1 <0>         0.1242
     30 H5          3.8656    1.8933    3.5102 H         1 <0>         0.1191
     31 H6          4.9516   -1.7818    1.6384 H         1 <0>         0.1218
     32 H7          7.3073   -1.0662    1.6001 H         1 <0>         0.1254
     33 H8          2.3177    0.0239    3.4488 H         1 <0>         0.0781
     34 H9          2.7703   -1.5081    2.6637 H         1 <0>         0.0833
     35 H10         2.6892   -0.3354    0.4414 H         1 <0>         0.0915
     36 H11         0.1597   -0.1738    2.1445 H         1 <0>         0.0896
     37 H12         0.7324   -1.6025    1.2493 H         1 <0>         0.1149
     38 H13        -1.0204   -0.3810   -0.0218 H         1 <0>         0.1321
     39 H14         0.5392   -0.3552   -0.8791 H         1 <0>         0.1333
     40 H15         1.8745    1.6533   -0.8812 H         1 <0>         0.1315
     41 H16         1.2960    3.1025   -0.0252 H         1 <0>         0.1266
     42 H17         1.5633    1.9370    2.1425 H         1 <0>         0.0874
     43 H18         3.1015    1.9603    1.2458 H         1 <0>         0.1152
     44 H19        -0.2719    1.8007   -2.0480 H         1 <0>         0.1492
     45 H20        -1.7729    1.4868   -1.1444 H         1 <0>         0.1481
     46 H21        -2.4948    6.2164   -2.4542 H         1 <0>         0.1435
     47 H22        -2.8308    8.6334   -2.1733 H         1 <0>         0.1470
     48 H23        -0.2735    6.0917    1.2125 H         1 <0>         0.1376
     49 N3         -0.0317    1.4737    0.0349 N.4       1 <0>        -0.3958
     50 H24        -0.4866    1.7771    0.9040 H         1 <0>         0.4287
@<TRIPOS>BOND
     1    1    6 ar
     2    1    2 ar
     3    1   28 1
     4    2    3 ar
     5    2   29 1
     6    3    4 ar
     7    3   30 1
     8    4    5 ar
     9    4    7 1
    10    5    6 ar
    11    5   31 1
    12    6   32 1
    13    7    8 1
    14    7   33 1
    15    7   34 1
    16    8   12 1
    17    8    9 1
    18    8   35 1
    19    9   10 1
    20    9   36 1
    21    9   37 1
    22   10   38 1
    23   10   39 1
    24   10   49 1
    25   11   12 1
    26   11   40 1
    27   11   41 1
    28   11   49 1
    29   12   42 1
    30   12   43 1
    31   13   14 1
    32   13   44 1
    33   13   45 1
    34   13   49 1
    35   14   15 3
    36   15   16 1
    37   16   21 ar
    38   16   17 ar
    39   17   18 ar
    40   17   46 1
    41   18   19 ar
    42   18   47 1
    43   19   26 1
    44   19   20 ar
    45   20   21 ar
    46   20   22 1
    47   21   48 1
    48   22   23 1
    49   22   24 am
    50   24   25 2
    51   24   26 am
    52   26   27 1
    53   49   50 1
@<TRIPOS>MOLECULE
ZINC03650259
   47    48     0     0     0
SMALL
USER_CHARGES
8-methoxy-N,N-dipropyl-tetralin-2-amine
@<TRIPOS>ATOM
      1 C1         -7.6637    2.4009    2.4950 C.3       1 <0>        -0.1552
      2 C2         -6.2948    2.9595    2.1015 C.3       1 <0>        -0.1477
      3 C3         -6.2805    3.2652    0.6024 C.3       1 <0>        -0.0145
      4 C4         -4.8308    5.1864    0.8676 C.3       1 <0>        -0.0157
      5 C5         -5.9233    6.1304    0.3614 C.3       1 <0>        -0.1486
      6 C6         -5.6791    7.5360    0.9143 C.3       1 <0>        -0.1560
      7 C7         -3.8762    2.9790    0.5867 C.3       1 <0>         0.0265
      8 H1         -3.8807    2.7880    1.6598 H         1 <0>         0.1435
      9 C8         -4.0142    1.6554   -0.1748 C.3       1 <0>        -0.1402
     10 C9         -2.9878    0.6705    0.3813 C.3       1 <0>        -0.0757
     11 C10        -1.6156    1.2920    0.4000 C.ar      1 <0>        -0.0465
     12 C11        -0.5227    0.4426    0.5223 C.ar      1 <0>        -0.1520
     13 C12         0.7602    0.9482    0.5639 C.ar      1 <0>        -0.0641
     14 C13         0.9640    2.3127    0.4879 C.ar      1 <0>        -0.2046
     15 C14        -0.1218    3.1630    0.3675 C.ar      1 <0>         0.1378
     16 C15        -1.4178    2.6513    0.3249 C.ar      1 <0>        -0.1229
     17 C16        -2.5541    3.6301    0.1855 C.3       1 <0>        -0.0810
     18 O1          0.0770    4.5052    0.2909 O.3       1 <0>        -0.3200
     19 C17         1.4292    4.9646    0.3408 C.3       1 <0>         0.0242
     20 H2         -7.6739    2.1832    3.5630 H         1 <0>         0.0765
     21 H3         -8.4354    3.1361    2.2667 H         1 <0>         0.0662
     22 H4         -7.8571    1.4856    1.9357 H         1 <0>         0.0669
     23 H5         -5.5231    2.2244    2.3298 H         1 <0>         0.0855
     24 H6         -6.1015    3.8749    2.6608 H         1 <0>         0.0843
     25 H7         -7.0868    3.9593    0.3654 H         1 <0>         0.1314
     26 H8         -6.4202    2.3409    0.0418 H         1 <0>         0.1301
     27 H9         -4.9118    5.0842    1.9498 H         1 <0>         0.1315
     28 H10        -3.8523    5.5935    0.6133 H         1 <0>         0.1316
     29 H11        -5.9020    6.1597   -0.7280 H         1 <0>         0.0842
     30 H12        -6.8968    5.7723    0.6962 H         1 <0>         0.0860
     31 H13        -4.7056    7.8941    0.5794 H         1 <0>         0.0669
     32 H14        -6.4573    8.2085    0.5536 H         1 <0>         0.0768
     33 H15        -5.7004    7.5067    2.0037 H         1 <0>         0.0665
     34 H16        -5.0188    1.2556   -0.0370 H         1 <0>         0.0935
     35 H17        -3.8268    1.8210   -1.2357 H         1 <0>         0.0927
     36 H18        -3.2727    0.3885    1.3949 H         1 <0>         0.0911
     37 H19        -2.9670   -0.2199   -0.2470 H         1 <0>         0.0995
     38 H20        -0.6789   -0.6244    0.5810 H         1 <0>         0.1301
     39 H21         1.6030    0.2792    0.6561 H         1 <0>         0.1334
     40 H22         1.9661    2.7141    0.5219 H         1 <0>         0.1355
     41 H23        -2.3679    4.4908    0.8279 H         1 <0>         0.0989
     42 H24        -2.6171    3.9626   -0.8506 H         1 <0>         0.0917
     43 H25         1.9890    4.5377   -0.4913 H         1 <0>         0.0610
     44 H26         1.4463    6.0522    0.2702 H         1 <0>         0.1061
     45 H27         1.8839    4.6545    1.2817 H         1 <0>         0.0607
     46 N1         -4.9915    3.8726    0.2095 N.4       1 <0>        -0.3920
     47 H28        -4.9823    4.0062   -0.8084 H         1 <0>         0.4261
@<TRIPOS>BOND
     1    1    2 1
     2    1   20 1
     3    1   21 1
     4    1   22 1
     5    2    3 1
     6    2   23 1
     7    2   24 1
     8    3   25 1
     9    3   26 1
    10    3   46 1
    11    4    5 1
    12    4   27 1
    13    4   28 1
    14    4   46 1
    15    5    6 1
    16    5   29 1
    17    5   30 1
    18    6   31 1
    19    6   32 1
    20    6   33 1
    21    7    8 1
    22    7   17 1
    23    7    9 1
    24    7   46 1
    25    9   10 1
    26    9   34 1
    27    9   35 1
    28   10   11 1
    29   10   36 1
    30   10   37 1
    31   11   16 ar
    32   11   12 ar
    33   12   13 ar
    34   12   38 1
    35   13   14 ar
    36   13   39 1
    37   14   15 ar
    38   14   40 1
    39   15   16 ar
    40   15   18 1
    41   16   17 1
    42   17   41 1
    43   17   42 1
    44   18   19 1
    45   19   43 1
    46   19   44 1
    47   19   45 1
    48   46   47 1
@<TRIPOS>MOLECULE
ZINC03650260
   47    48     0     0     0
SMALL
USER_CHARGES
8-methoxy-N,N-dipropyl-tetralin-2-amine
@<TRIPOS>ATOM
      1 C1         -3.3141    1.9397    0.8841 C.3       1 <0>        -0.1553
      2 C2         -2.3652    1.3885    1.9503 C.3       1 <0>        -0.1489
      3 C3         -0.9173    1.6088    1.5075 C.3       1 <0>        -0.0129
      4 C4         -0.0425   -0.3234    2.6753 C.3       1 <0>        -0.0166
      5 C5          0.7353   -0.9451    1.5135 C.3       1 <0>        -0.1487
      6 C6          0.6323   -2.4697    1.5888 C.3       1 <0>        -0.1556
      7 C7         -0.3183    1.7772    3.8475 C.3       1 <0>         0.0267
      8 H1         -1.2951    1.4417    4.1959 H         1 <0>         0.1434
      9 C8         -0.3246    3.3014    3.6815 C.3       1 <0>        -0.1415
     10 C9         -0.8803    3.9230    4.9610 C.3       1 <0>        -0.0758
     11 C10        -0.1632    3.3801    6.1694 C.ar      1 <0>        -0.0463
     12 C11        -0.2747    4.0883    7.3597 C.ar      1 <0>        -0.1520
     13 C12         0.3473    3.6395    8.5064 C.ar      1 <0>        -0.0640
     14 C13         1.0898    2.4747    8.4747 C.ar      1 <0>        -0.2046
     15 C14         1.2060    1.7672    7.2905 C.ar      1 <0>         0.1379
     16 C15         0.5785    2.2220    6.1318 C.ar      1 <0>        -0.1229
     17 C16         0.7491    1.4083    4.8758 C.3       1 <0>        -0.0806
     18 O1          1.9362    0.6215    7.2574 O.3       1 <0>        -0.3201
     19 C17         2.5537    0.2102    8.4788 C.3       1 <0>         0.0243
     20 H2         -4.3455    1.7827    1.1995 H         1 <0>         0.0767
     21 H3         -3.1326    3.0064    0.7527 H         1 <0>         0.0666
     22 H4         -3.1400    1.4226   -0.0595 H         1 <0>         0.0666
     23 H5         -2.5393    1.9056    2.8939 H         1 <0>         0.0862
     24 H6         -2.5466    0.3218    2.0817 H         1 <0>         0.0846
     25 H7         -0.7291    1.0512    0.5901 H         1 <0>         0.1302
     26 H8         -0.7499    2.6708    1.3280 H         1 <0>         0.1305
     27 H9          0.4114   -0.6253    3.6192 H         1 <0>         0.1314
     28 H10        -1.0771   -0.6650    2.6439 H         1 <0>         0.1317
     29 H11         0.3159   -0.5987    0.5689 H         1 <0>         0.0838
     30 H12         1.7821   -0.6480    1.5769 H         1 <0>         0.0860
     31 H13         1.1863   -2.9126    0.7611 H         1 <0>         0.0769
     32 H14         1.0516   -2.8161    2.5334 H         1 <0>         0.0673
     33 H15        -0.4146   -2.7667    1.5254 H         1 <0>         0.0661
     34 H16         0.6920    3.6566    3.5131 H         1 <0>         0.0926
     35 H17        -0.9549    3.5760    2.8357 H         1 <0>         0.0951
     36 H18        -1.9427    3.6926    5.0398 H         1 <0>         0.0906
     37 H19        -0.7491    5.0044    4.9210 H         1 <0>         0.0998
     38 H20        -0.8541    4.9993    7.3874 H         1 <0>         0.1301
     39 H21         0.2544    4.1974    9.4265 H         1 <0>         0.1334
     40 H22         1.5777    2.1179    9.3697 H         1 <0>         0.1355
     41 H23         0.6630    0.3494    5.1192 H         1 <0>         0.0983
     42 H24         1.7358    1.6005    4.4544 H         1 <0>         0.0920
     43 H25         3.1041   -0.7160    8.3137 H         1 <0>         0.1061
     44 H26         3.2406    0.9857    8.8177 H         1 <0>         0.0610
     45 H27         1.7872    0.0473    9.2365 H         1 <0>         0.0608
     46 N1          0.0201    1.1483    2.5534 N.4       1 <0>        -0.3924
     47 H28         0.9742    1.4208    2.2895 H         1 <0>         0.4260
@<TRIPOS>BOND
     1    1    2 1
     2    1   20 1
     3    1   21 1
     4    1   22 1
     5    2    3 1
     6    2   23 1
     7    2   24 1
     8    3   25 1
     9    3   26 1
    10    3   46 1
    11    4    5 1
    12    4   27 1
    13    4   28 1
    14    4   46 1
    15    5    6 1
    16    5   29 1
    17    5   30 1
    18    6   31 1
    19    6   32 1
    20    6   33 1
    21    7    8 1
    22    7   17 1
    23    7    9 1
    24    7   46 1
    25    9   10 1
    26    9   34 1
    27    9   35 1
    28   10   11 1
    29   10   36 1
    30   10   37 1
    31   11   16 ar
    32   11   12 ar
    33   12   13 ar
    34   12   38 1
    35   13   14 ar
    36   13   39 1
    37   14   15 ar
    38   14   40 1
    39   15   16 ar
    40   15   18 1
    41   16   17 1
    42   17   41 1
    43   17   42 1
    44   18   19 1
    45   19   43 1
    46   19   44 1
    47   19   45 1
    48   46   47 1
@<TRIPOS>MOLECULE
ZINC05832987
   45    46     0     0     0
SMALL
USER_CHARGES
6-dipropylaminotetralin-1,2-diol
@<TRIPOS>ATOM
      1 C1          4.0838    6.1486    0.2579 C.3       1 <0>        -0.1561
      2 C2          2.6904    5.5655    0.0144 C.3       1 <0>        -0.1487
      3 C3          2.7901    4.0445   -0.1183 C.3       1 <0>        -0.0174
      4 C4          0.8291    3.7966   -1.5167 C.3       1 <0>        -0.0132
      5 C5          1.5485    3.0281   -2.6270 C.3       1 <0>        -0.1475
      6 C6          1.0032    3.4676   -3.9873 C.3       1 <0>        -0.1559
      7 C7          1.4665    2.0205    0.0004 C.3       1 <0>         0.0259
      8 H1          2.0682    1.5414   -0.7718 H         1 <0>         0.1445
      9 C8          0.0373    1.4667   -0.0408 C.3       1 <0>        -0.1393
     10 C9          0.1120   -0.0588   -0.0496 C.3       1 <0>        -0.0726
     11 C10         0.9935   -0.5526    1.0676 C.ar      1 <0>        -0.0931
     12 C11         1.8938    0.2626    1.7174 C.ar      1 <0>        -0.0866
     13 C12         2.6841   -0.2556    2.7351 C.ar      1 <0>        -0.1013
     14 C13         2.5748   -1.5798    3.1076 C.ar      1 <0>        -0.1245
     15 C14         1.6679   -2.4036    2.4612 C.ar      1 <0>         0.0981
     16 C15         0.8781   -1.8882    1.4413 C.ar      1 <0>         0.0855
     17 O1         -0.0129   -2.6939    0.8037 O.3       1 <0>        -0.4823
     18 O2          1.5511   -3.7093    2.8234 O.3       1 <0>        -0.4841
     19 C16         2.0600    1.7204    1.3753 C.3       1 <0>        -0.0917
     20 H2          4.0128    7.2322    0.3524 H         1 <0>         0.0774
     21 H3          4.4975    5.7302    1.1754 H         1 <0>         0.0668
     22 H4          4.7338    5.8989   -0.5807 H         1 <0>         0.0668
     23 H5          2.2766    5.9839   -0.9031 H         1 <0>         0.0857
     24 H6          2.0404    5.8152    0.8530 H         1 <0>         0.0847
     25 H7          3.2923    3.6355    0.7584 H         1 <0>         0.1312
     26 H8          3.3600    3.7945   -1.0131 H         1 <0>         0.1325
     27 H9         -0.2235    3.5139   -1.5024 H         1 <0>         0.1303
     28 H10         0.9152    4.8674   -1.7014 H         1 <0>         0.1313
     29 H11         2.6173    3.2367   -2.5795 H         1 <0>         0.0836
     30 H12         1.3807    1.9591   -2.4965 H         1 <0>         0.0861
     31 H13         1.5157    2.9201   -4.7783 H         1 <0>         0.0768
     32 H14        -0.0656    3.2591   -4.0349 H         1 <0>         0.0674
     33 H15         1.1710    4.5366   -4.1179 H         1 <0>         0.0665
     34 H16        -0.4655    1.8149   -0.9430 H         1 <0>         0.0950
     35 H17        -0.5119    1.8023    0.8389 H         1 <0>         0.0932
     36 H18        -0.8903   -0.4684    0.0755 H         1 <0>         0.1038
     37 H19         0.5197   -0.3931   -1.0036 H         1 <0>         0.0867
     38 H20         3.3924    0.3846    3.2400 H         1 <0>         0.1339
     39 H21         3.1940   -1.9725    3.9007 H         1 <0>         0.1418
     40 H22         0.3494   -3.1455    0.0292 H         1 <0>         0.3916
     41 H23         2.1368   -4.3061    2.3377 H         1 <0>         0.3954
     42 H24         1.5521    2.3259    2.1260 H         1 <0>         0.0977
     43 H25         3.1210    1.9699    1.3710 H         1 <0>         0.1003
     44 N1          1.4248    3.4843   -0.2006 N.4       1 <0>        -0.3928
     45 H26         0.8464    3.9057    0.5357 H         1 <0>         0.4265
@<TRIPOS>BOND
     1    1    2 1
     2    1   20 1
     3    1   21 1
     4    1   22 1
     5    2    3 1
     6    2   23 1
     7    2   24 1
     8    3   25 1
     9    3   26 1
    10    3   44 1
    11    4    5 1
    12    4   27 1
    13    4   28 1
    14    4   44 1
    15    5    6 1
    16    5   29 1
    17    5   30 1
    18    6   31 1
    19    6   32 1
    20    6   33 1
    21    7    8 1
    22    7   19 1
    23    7    9 1
    24    7   44 1
    25    9   10 1
    26    9   34 1
    27    9   35 1
    28   10   11 1
    29   10   36 1
    30   10   37 1
    31   11   16 ar
    32   11   12 ar
    33   12   13 ar
    34   12   19 1
    35   13   14 ar
    36   13   38 1
    37   14   15 ar
    38   14   39 1
    39   15   16 ar
    40   15   18 1
    41   16   17 1
    42   17   40 1
    43   18   41 1
    44   19   42 1
    45   19   43 1
    46   44   45 1
@<TRIPOS>MOLECULE
ZINC05833076
   45    46     0     0     0
SMALL
USER_CHARGES
6-dipropylaminotetralin-1,2-diol
@<TRIPOS>ATOM
      1 C1         -0.1778    6.7385   -1.2871 C.3       1 <0>        -0.1561
      2 C2          0.7374    5.9534   -0.3453 C.3       1 <0>        -0.1504
      3 C3          0.6496    4.4619   -0.6748 C.3       1 <0>        -0.0141
      4 C4          1.0503    3.7883    1.6161 C.3       1 <0>        -0.0141
      5 C5          2.1955    3.4456    2.5710 C.3       1 <0>        -0.1499
      6 C6          1.7348    3.6532    4.0152 C.3       1 <0>        -0.1558
      7 C7          1.6549    2.3101   -0.2037 C.3       1 <0>         0.0261
      8 H1          2.1625    1.7308    0.5675 H         1 <0>         0.1420
      9 C8          0.2628    1.7208   -0.4599 C.3       1 <0>        -0.1333
     10 C9          0.4086    0.2153   -0.6716 C.3       1 <0>        -0.0702
     11 C10         1.4632   -0.0744   -1.7074 C.ar      1 <0>        -0.0927
     12 C11         2.4072    0.8552   -2.0847 C.ar      1 <0>        -0.0865
     13 C12         3.3585    0.5236   -3.0407 C.ar      1 <0>        -0.1009
     14 C13         3.3670   -0.7278   -3.6222 C.ar      1 <0>        -0.1247
     15 C14         2.4176   -1.6656   -3.2504 C.ar      1 <0>         0.0985
     16 C15         1.4667   -1.3372   -2.2924 C.ar      1 <0>         0.0851
     17 O1          0.5337   -2.2554   -1.9237 O.3       1 <0>        -0.4820
     18 O2          2.4163   -2.9004   -3.8201 O.3       1 <0>        -0.4843
     19 C16         2.4526    2.2448   -1.5044 C.3       1 <0>        -0.0930
     20 H2         -0.1153    7.8011   -1.0523 H         1 <0>         0.0775
     21 H3          0.1357    6.5751   -2.3182 H         1 <0>         0.0669
     22 H4         -1.2058    6.3986   -1.1617 H         1 <0>         0.0667
     23 H5          0.4239    6.1167    0.6858 H         1 <0>         0.0858
     24 H6          1.7654    6.2933   -0.4707 H         1 <0>         0.0856
     25 H7          0.9631    4.2985   -1.7059 H         1 <0>         0.1296
     26 H8         -0.3784    4.1220   -0.5494 H         1 <0>         0.1325
     27 H9          0.6967    4.7989    1.8207 H         1 <0>         0.1328
     28 H10         0.2332    3.0814    1.7602 H         1 <0>         0.1317
     29 H11         2.4880    2.4053    2.4290 H         1 <0>         0.0850
     30 H12         3.0471    4.0940    2.3645 H         1 <0>         0.0849
     31 H13         2.5507    3.4091    4.6955 H         1 <0>         0.0774
     32 H14         1.4423    4.6936    4.1572 H         1 <0>         0.0668
     33 H15         0.8833    3.0049    4.2217 H         1 <0>         0.0671
     34 H16        -0.1707    2.1765   -1.3501 H         1 <0>         0.0924
     35 H17        -0.3799    1.9101    0.4000 H         1 <0>         0.0917
     36 H18         0.6914   -0.2544    0.2704 H         1 <0>         0.0919
     37 H19        -0.5448   -0.1947   -1.0050 H         1 <0>         0.0965
     38 H20         4.1001    1.2528   -3.3316 H         1 <0>         0.1342
     39 H21         4.1109   -0.9750   -4.3650 H         1 <0>         0.1418
     40 H22        -0.2754   -2.2280   -2.4525 H         1 <0>         0.3912
     41 H23         1.8772   -2.9638   -4.6204 H         1 <0>         0.3956
     42 H24         3.4889    2.5171   -1.3044 H         1 <0>         0.1005
     43 H25         2.0289    2.9478   -2.2216 H         1 <0>         0.0975
     44 N1          1.5544    3.7200    0.2284 N.4       1 <0>        -0.3932
     45 H26         2.4871    4.1476    0.1910 H         1 <0>         0.4261
@<TRIPOS>BOND
     1    1    2 1
     2    1   20 1
     3    1   21 1
     4    1   22 1
     5    2    3 1
     6    2   23 1
     7    2   24 1
     8    3   25 1
     9    3   26 1
    10    3   44 1
    11    4    5 1
    12    4   27 1
    13    4   28 1
    14    4   44 1
    15    5    6 1
    16    5   29 1
    17    5   30 1
    18    6   31 1
    19    6   32 1
    20    6   33 1
    21    7    8 1
    22    7   19 1
    23    7    9 1
    24    7   44 1
    25    9   10 1
    26    9   34 1
    27    9   35 1
    28   10   11 1
    29   10   36 1
    30   10   37 1
    31   11   16 ar
    32   11   12 ar
    33   12   13 ar
    34   12   19 1
    35   13   14 ar
    36   13   38 1
    37   14   15 ar
    38   14   39 1
    39   15   16 ar
    40   15   18 1
    41   16   17 1
    42   17   40 1
    43   18   41 1
    44   19   42 1
    45   19   43 1
    46   44   45 1
@<TRIPOS>MOLECULE
ZINC00015515
   43    45     0     0     0
SMALL
USER_CHARGES

@<TRIPOS>ATOM
      1 C1         -0.0178    1.4648    0.0101 C.3       1 <0>        -0.0471
      2 N1          0.0021   -0.0041    0.0020 N.4       1 <0>        -0.3886
      3 C2          0.7126   -0.4907    1.1921 C.3       1 <0>        -0.0527
      4 C3         -1.3761   -0.5125    0.0124 C.3       1 <0>        -0.0087
      5 C4         -1.3584   -2.0365   -0.1216 C.3       1 <0>        -0.0607
      6 C5         -2.7722   -2.5582   -0.1109 C.2       1 <0>        -0.2038
      7 C6         -3.4483   -3.0106    0.9568 C.2       1 <0>         0.0869
      8 N2         -4.7052   -3.4010    0.5822 N.pl3     1 <0>        -0.5871
      9 H1         -5.3778   -3.7624    1.1803 H         1 <0>         0.4240
     10 C7         -4.8728   -3.2042   -0.7702 C.ar      1 <0>         0.0959
     11 C8         -3.6716   -2.6617   -1.2627 C.ar      1 <0>        -0.0955
     12 C9         -3.5517   -2.3510   -2.6183 C.ar      1 <0>        -0.0825
     13 C10        -4.6048   -2.5723   -3.4607 C.ar      1 <0>        -0.0995
     14 C11        -5.7932   -3.1034   -2.9792 C.ar      1 <0>        -0.0885
     15 C12        -5.9299   -3.4260   -1.6465 C.ar      1 <0>        -0.1148
     16 C13        -4.4748   -2.2367   -4.9240 C.3       1 <0>        -0.0841
     17 C14        -3.9414   -3.4545   -5.6812 C.3       1 <0>         0.0969
     18 H2         -4.5631   -4.3296   -5.4923 H         1 <0>         0.1029
     19 C15        -3.8474   -3.1625   -7.1977 C.3       1 <0>         0.0412
     20 O1         -2.6339   -3.8494   -7.5609 O.3       1 <0>        -0.3237
     21 C16        -1.8515   -3.9154   -6.4706 C.2       1 <0>         0.6446
     22 O2         -0.6563   -4.1299   -6.5129 O.2       1 <0>        -0.5150
     23 N3         -2.5346   -3.7218   -5.3222 N.am      1 <0>        -0.7365
     24 H3          1.0047    1.8421    0.0024 H         1 <0>         0.1243
     25 H4         -0.5450    1.8259   -0.8730 H         1 <0>         0.1226
     26 H5         -0.5280    1.8163    0.9069 H         1 <0>         0.1212
     27 H6          0.2024   -0.1392    2.0889 H         1 <0>         0.1217
     28 H7          0.7273   -1.5806    1.1861 H         1 <0>         0.1248
     29 H8          1.7352   -0.1134    1.1844 H         1 <0>         0.1241
     30 H9         -1.8584   -0.2358    0.9500 H         1 <0>         0.1288
     31 H10        -1.9290   -0.0808   -0.8218 H         1 <0>         0.1299
     32 H11        -0.8762   -2.3132   -1.0592 H         1 <0>         0.0914
     33 H12        -0.8055   -2.4683    0.7126 H         1 <0>         0.0919
     34 H13        -3.0579   -3.0597    1.9626 H         1 <0>         0.1733
     35 H14        -2.6302   -1.9368   -2.9999 H         1 <0>         0.1179
     36 H15        -6.6168   -3.2720   -3.6571 H         1 <0>         0.1334
     37 H16        -6.8592   -3.8377   -1.2812 H         1 <0>         0.1276
     38 H17        -5.4514   -1.9607   -5.3217 H         1 <0>         0.0989
     39 H18        -3.7841   -1.4022   -5.0454 H         1 <0>         0.0840
     40 H19        -4.7039   -3.5787   -7.7280 H         1 <0>         0.1254
     41 H20        -3.7591   -2.0920   -7.3832 H         1 <0>         0.0970
     42 H21        -2.1690   -3.7504   -4.4242 H         1 <0>         0.4311
     43 H22         0.4744   -0.3295   -0.8281 H         1 <0>         0.4271
@<TRIPOS>BOND
     1    1    2 1
     2    1   24 1
     3    1   25 1
     4    1   26 1
     5    2    3 1
     6    2    4 1
     7    2   43 1
     8    3   27 1
     9    3   28 1
    10    3   29 1
    11    4    5 1
    12    4   30 1
    13    4   31 1
    14    5    6 1
    15    5   32 1
    16    5   33 1
    17    6   11 1
    18    6    7 2
    19    7    8 1
    20    7   34 1
    21    8    9 1
    22    8   10 1
    23   10   15 ar
    24   10   11 ar
    25   11   12 ar
    26   12   13 ar
    27   12   35 1
    28   13   14 ar
    29   13   16 1
    30   14   15 ar
    31   14   36 1
    32   15   37 1
    33   16   17 1
    34   16   38 1
    35   16   39 1
    36   17   18 1
    37   17   23 1
    38   17   19 1
    39   19   20 1
    40   19   40 1
    41   19   41 1
    42   20   21 1
    43   21   22 2
    44   21   23 am
    45   23   42 1
@<TRIPOS>MOLECULE
ZINC26935617
   39    40     0     0     0
SMALL
USER_CHARGES
4-(1-pentyl-5,6-dihydro-2H-pyridin-3-yl)thiazol-2-amine
@<TRIPOS>ATOM
      1 C1          9.5490    7.6322    1.3155 C.3       1 <0>        -0.1602
      2 C2          9.0883    6.1780    1.4334 C.3       1 <0>        -0.1258
      3 C3          7.7099    6.0257    0.7871 C.3       1 <0>        -0.1195
      4 C4          7.2492    4.5715    0.9051 C.3       1 <0>        -0.1483
      5 C5          5.8708    4.4192    0.2588 C.3       1 <0>        -0.0069
      6 N1          5.4284    3.0229    0.3720 N.4       1 <0>        -0.4011
      7 C6          6.2747    2.1339   -0.4407 C.3       1 <0>        -0.0096
      8 C7          5.9816    0.6852   -0.0425 C.3       1 <0>        -0.1155
      9 C8          4.4965    0.4515   -0.0322 C.2       1 <0>        -0.1343
     10 C9          3.6228    1.4354   -0.0243 C.2       1 <0>        -0.0718
     11 C10         4.0204    2.8836   -0.0204 C.3       1 <0>         0.0541
     12 C11         2.1845    1.0999   -0.0129 C.2       1 <0>         0.1219
     13 C12         1.7783   -0.2066   -0.0160 C.2       1 <0>        -0.2338
     14 S1          0.0021   -0.0041    0.0020 S.3       1 <0>         0.0097
     15 C13        -0.0222    1.7828    0.0118 C.2       1 <0>         0.4043
     16 N2          1.2669    2.0661    0.0011 N.2       1 <0>        -0.6004
     17 N3         -1.1075    2.6436    0.0220 N.pl3     1 <0>        -0.8140
     18 H1         10.5400    7.7417    1.7802 H         1 <0>         0.0616
     19 H2          8.8293    8.2875    1.8280 H         1 <0>         0.0574
     20 H3          9.6089    7.9129    0.2536 H         1 <0>         0.0572
     21 H4          9.8080    5.5227    0.9209 H         1 <0>         0.0653
     22 H5          9.0284    5.8973    2.4953 H         1 <0>         0.0659
     23 H6          6.9902    6.6811    1.2995 H         1 <0>         0.0743
     24 H7          7.7698    6.3064   -0.2748 H         1 <0>         0.0736
     25 H8          7.9689    3.9162    0.3927 H         1 <0>         0.0865
     26 H9          7.1893    4.2908    1.9670 H         1 <0>         0.0876
     27 H10         5.1511    5.0745    0.7713 H         1 <0>         0.1320
     28 H11         5.9307    4.6999   -0.8031 H         1 <0>         0.1275
     29 H12         6.0464    2.2836   -1.5063 H         1 <0>         0.1290
     30 H13         7.3339    2.3666   -0.2565 H         1 <0>         0.1369
     31 H14         6.4524    0.0036   -0.7662 H         1 <0>         0.1265
     32 H15         6.3876    0.4915    0.9613 H         1 <0>         0.1084
     33 H16         4.1494   -0.5923   -0.0314 H         1 <0>         0.1450
     34 H17         3.3852    3.4290    0.6931 H         1 <0>         0.1452
     35 H18         3.8781    3.2983   -1.0293 H         1 <0>         0.1356
     36 H19         2.3682   -1.1112   -0.0260 H         1 <0>         0.1962
     37 H20        -0.9464    3.7317    0.0271 H         1 <0>         0.4439
     38 H21        -2.1304    2.2390    0.0250 H         1 <0>         0.4526
     39 H22         5.5239    2.7283    1.4275 H         1 <0>         0.4430
@<TRIPOS>BOND
     1    1    2 1
     2    1   18 1
     3    1   19 1
     4    1   20 1
     5    2    3 1
     6    2   21 1
     7    2   22 1
     8    3    4 1
     9    3   23 1
    10    3   24 1
    11    4    5 1
    12    4   25 1
    13    4   26 1
    14    5    6 1
    15    5   27 1
    16    5   28 1
    17    6   11 1
    18    6    7 1
    19    6   39 1
    20    7    8 1
    21    7   29 1
    22    7   30 1
    23    8    9 1
    24    8   31 1
    25    8   32 1
    26    9   10 2
    27    9   33 1
    28   10   11 1
    29   10   12 1
    30   11   34 1
    31   11   35 1
    32   12   16 1
    33   12   13 2
    34   13   14 1
    35   13   36 1
    36   14   15 1
    37   15   16 2
    38   15   17 1
    39   17   37 1
    40   17   38 1
@<TRIPOS>MOLECULE
ZINC26845861
   39    40     0     0     0
SMALL
USER_CHARGES
4-(1-isopentyl-5,6-dihydro-2H-pyridin-3-yl)thiazol-2-amine
@<TRIPOS>ATOM
      1 C1          6.7785    6.9236    1.6039 C.3       1 <0>        -0.1617
      2 C2          7.7099    6.0257    0.7871 C.3       1 <0>        -0.0901
      3 C3          9.1382    6.1530    1.3206 C.3       1 <0>        -0.1556
      4 C4          7.2492    4.5715    0.9051 C.3       1 <0>        -0.1442
      5 C5          5.8708    4.4192    0.2588 C.3       1 <0>        -0.0097
      6 N1          5.4284    3.0229    0.3720 N.4       1 <0>        -0.4007
      7 C6          6.2747    2.1339   -0.4407 C.3       1 <0>        -0.0097
      8 C7          5.9816    0.6852   -0.0425 C.3       1 <0>        -0.1155
      9 C8          4.4965    0.4515   -0.0322 C.2       1 <0>        -0.1343
     10 C9          3.6228    1.4354   -0.0243 C.2       1 <0>        -0.0717
     11 C10         4.0204    2.8836   -0.0204 C.3       1 <0>         0.0541
     12 C11         2.1845    1.0999   -0.0129 C.2       1 <0>         0.1221
     13 C12         1.7783   -0.2066   -0.0160 C.2       1 <0>        -0.2339
     14 S1          0.0021   -0.0041    0.0020 S.3       1 <0>         0.0096
     15 C13        -0.0222    1.7828    0.0118 C.2       1 <0>         0.4043
     16 N2          1.2669    2.0661    0.0011 N.2       1 <0>        -0.6003
     17 N3         -1.1075    2.6436    0.0220 N.pl3     1 <0>        -0.8141
     18 H1          5.7516    6.8321    1.2203 H         1 <0>         0.0544
     19 H2          7.1098    7.9691    1.5191 H         1 <0>         0.0684
     20 H3          6.8045    6.6151    2.6594 H         1 <0>         0.0620
     21 H4          7.6839    6.3341   -0.2685 H         1 <0>         0.0806
     22 H5          9.8078    5.5074    0.7334 H         1 <0>         0.0597
     23 H6          9.1642    5.8446    2.3761 H         1 <0>         0.0605
     24 H7          9.4694    7.1985    1.2358 H         1 <0>         0.0673
     25 H8          7.9689    3.9162    0.3927 H         1 <0>         0.0872
     26 H9          7.1893    4.2908    1.9670 H         1 <0>         0.0883
     27 H10         5.1511    5.0745    0.7713 H         1 <0>         0.1334
     28 H11         5.9307    4.6999   -0.8031 H         1 <0>         0.1276
     29 H12         6.0464    2.2836   -1.5063 H         1 <0>         0.1291
     30 H13         7.3339    2.3666   -0.2565 H         1 <0>         0.1369
     31 H14         6.4524    0.0036   -0.7662 H         1 <0>         0.1264
     32 H15         6.3876    0.4915    0.9613 H         1 <0>         0.1083
     33 H16         4.1494   -0.5923   -0.0314 H         1 <0>         0.1450
     34 H17         3.3852    3.4290    0.6931 H         1 <0>         0.1450
     35 H18         3.8781    3.2983   -1.0293 H         1 <0>         0.1356
     36 H19         2.3682   -1.1112   -0.0260 H         1 <0>         0.1962
     37 H20        -0.9464    3.7317    0.0271 H         1 <0>         0.4439
     38 H21        -2.1304    2.2390    0.0250 H         1 <0>         0.4526
     39 H22         5.5239    2.7283    1.4275 H         1 <0>         0.4428
@<TRIPOS>BOND
     1    1    2 1
     2    1   18 1
     3    1   19 1
     4    1   20 1
     5    2    3 1
     6    2    4 1
     7    2   21 1
     8    3   22 1
     9    3   23 1
    10    3   24 1
    11    4    5 1
    12    4   25 1
    13    4   26 1
    14    5    6 1
    15    5   27 1
    16    5   28 1
    17    6   11 1
    18    6    7 1
    19    6   39 1
    20    7    8 1
    21    7   29 1
    22    7   30 1
    23    8    9 1
    24    8   31 1
    25    8   32 1
    26    9   10 2
    27    9   33 1
    28   10   11 1
    29   10   12 1
    30   11   34 1
    31   11   35 1
    32   12   16 1
    33   12   13 2
    34   13   14 1
    35   13   36 1
    36   14   15 1
    37   15   16 2
    38   15   17 1
    39   17   37 1
    40   17   38 1
@<TRIPOS>MOLECULE
ZINC26843782
   36    37     0     0     0
SMALL
USER_CHARGES
4-(1-butyl-5,6-dihydro-2H-pyridin-3-yl)thiazol-2-amine
@<TRIPOS>ATOM
      1 C1          9.0883    6.1780    1.4334 C.3       1 <0>        -0.1604
      2 C2          7.7099    6.0257    0.7871 C.3       1 <0>        -0.1223
      3 C3          7.2492    4.5715    0.9051 C.3       1 <0>        -0.1485
      4 C4          5.8708    4.4192    0.2588 C.3       1 <0>        -0.0071
      5 N1          5.4284    3.0229    0.3720 N.4       1 <0>        -0.4011
      6 C5          6.2747    2.1339   -0.4407 C.3       1 <0>        -0.0096
      7 C6          5.9816    0.6852   -0.0425 C.3       1 <0>        -0.1155
      8 C7          4.4965    0.4515   -0.0322 C.2       1 <0>        -0.1343
      9 C8          3.6228    1.4354   -0.0243 C.2       1 <0>        -0.0718
     10 C9          4.0204    2.8836   -0.0204 C.3       1 <0>         0.0541
     11 C10         2.1845    1.0999   -0.0129 C.2       1 <0>         0.1220
     12 C11         1.7783   -0.2066   -0.0160 C.2       1 <0>        -0.2338
     13 S1          0.0021   -0.0041    0.0020 S.3       1 <0>         0.0098
     14 C12        -0.0222    1.7828    0.0118 C.2       1 <0>         0.4043
     15 N2          1.2669    2.0661    0.0011 N.2       1 <0>        -0.6005
     16 N3         -1.1075    2.6436    0.0220 N.pl3     1 <0>        -0.8140
     17 H1          9.4195    7.2235    1.3486 H         1 <0>         0.0671
     18 H2          9.8079    5.5226    0.9210 H         1 <0>         0.0592
     19 H3          9.0284    5.8974    2.4953 H         1 <0>         0.0597
     20 H4          6.9902    6.6811    1.2995 H         1 <0>         0.0738
     21 H5          7.7698    6.3064   -0.2748 H         1 <0>         0.0731
     22 H6          7.9689    3.9162    0.3927 H         1 <0>         0.0864
     23 H7          7.1893    4.2908    1.9670 H         1 <0>         0.0875
     24 H8          5.1511    5.0745    0.7713 H         1 <0>         0.1320
     25 H9          5.9307    4.6999   -0.8031 H         1 <0>         0.1275
     26 H10         6.0464    2.2836   -1.5063 H         1 <0>         0.1291
     27 H11         7.3339    2.3666   -0.2565 H         1 <0>         0.1369
     28 H12         6.4524    0.0036   -0.7662 H         1 <0>         0.1265
     29 H13         6.3876    0.4915    0.9613 H         1 <0>         0.1084
     30 H14         4.1494   -0.5923   -0.0314 H         1 <0>         0.1450
     31 H15         3.3852    3.4290    0.6931 H         1 <0>         0.1452
     32 H16         3.8781    3.2983   -1.0293 H         1 <0>         0.1356
     33 H17         2.3682   -1.1112   -0.0260 H         1 <0>         0.1962
     34 H18        -0.9464    3.7317    0.0271 H         1 <0>         0.4439
     35 H19        -2.1304    2.2390    0.0250 H         1 <0>         0.4527
     36 H20         5.5239    2.7283    1.4275 H         1 <0>         0.4430
@<TRIPOS>BOND
     1    1    2 1
     2    1   17 1
     3    1   18 1
     4    1   19 1
     5    2    3 1
     6    2   20 1
     7    2   21 1
     8    3    4 1
     9    3   22 1
    10    3   23 1
    11    4    5 1
    12    4   24 1
    13    4   25 1
    14    5   10 1
    15    5    6 1
    16    5   36 1
    17    6    7 1
    18    6   26 1
    19    6   27 1
    20    7    8 1
    21    7   28 1
    22    7   29 1
    23    8    9 2
    24    8   30 1
    25    9   10 1
    26    9   11 1
    27   10   31 1
    28   10   32 1
    29   11   15 1
    30   11   12 2
    31   12   13 1
    32   12   33 1
    33   13   14 1
    34   14   15 2
    35   14   16 1
    36   16   34 1
    37   16   35 1
@<TRIPOS>MOLECULE
ZINC26938943
   27    28     0     0     0
SMALL
USER_CHARGES
4-(1-methyl-5,6-dihydro-2H-pyridin-3-yl)thiazol-2-amine
@<TRIPOS>ATOM
      1 C1         -4.9736    1.3886    0.3228 C.3       1 <0>        -0.0448
      2 N1         -3.7000    2.1119    0.4367 N.4       1 <0>        -0.4030
      3 C2         -3.7247    3.3516   -0.3568 C.3       1 <0>        -0.0057
      4 C3         -2.5227    4.2103    0.0448 C.3       1 <0>        -0.1167
      5 C4         -1.2736    3.3739    0.0313 C.2       1 <0>        -0.1348
      6 C5         -1.2999    2.0583    0.0194 C.2       1 <0>        -0.0726
      7 C6         -2.5748    1.2647    0.0217 C.3       1 <0>         0.0531
      8 C7         -0.0160    1.3283    0.0093 C.2       1 <0>         0.1212
      9 C8          1.1691    2.0121    0.0017 C.2       1 <0>        -0.2338
     10 S1          2.3359    0.6577   -0.0167 S.3       1 <0>         0.0102
     11 C9          1.1409   -0.6711   -0.0124 C.2       1 <0>         0.4044
     12 N2          0.0021   -0.0041    0.0020 N.2       1 <0>        -0.6008
     13 N3          1.3536   -2.0398   -0.0218 N.pl3     1 <0>        -0.8139
     14 H1         -5.7976    2.0450    0.6392 H         1 <0>         0.1263
     15 H2         -4.9475    0.4967    0.9661 H         1 <0>         0.1252
     16 H3         -5.1292    1.0825   -0.7222 H         1 <0>         0.1191
     17 H4         -3.6675    3.1032   -1.4269 H         1 <0>         0.1286
     18 H5         -4.6589    3.8967   -0.1564 H         1 <0>         0.1365
     19 H6         -2.4119    5.0417   -0.6669 H         1 <0>         0.1265
     20 H7         -2.6808    4.6123    1.0564 H         1 <0>         0.1088
     21 H8         -0.3102    3.9048    0.0316 H         1 <0>         0.1450
     22 H9         -2.4727    0.4221    0.7214 H         1 <0>         0.1457
     23 H10        -2.7603    0.8792   -0.9917 H         1 <0>         0.1357
     24 H11         1.3499    3.0768    0.0057 H         1 <0>         0.1963
     25 H12         0.4968   -2.7296   -0.0173 H         1 <0>         0.4440
     26 H13         2.3793   -2.4369   -0.0338 H         1 <0>         0.4527
     27 H14        -3.5614    2.3767    1.4953 H         1 <0>         0.4465
@<TRIPOS>BOND
     1    1    2 1
     2    1   14 1
     3    1   15 1
     4    1   16 1
     5    2    7 1
     6    2    3 1
     7    2   27 1
     8    3    4 1
     9    3   17 1
    10    3   18 1
    11    4    5 1
    12    4   19 1
    13    4   20 1
    14    5    6 2
    15    5   21 1
    16    6    7 1
    17    6    8 1
    18    7   22 1
    19    7   23 1
    20    8   12 1
    21    8    9 2
    22    9   10 1
    23    9   24 1
    24   10   11 1
    25   11   12 2
    26   11   13 1
    27   13   25 1
    28   13   26 1
@<TRIPOS>MOLECULE
ZINC01915508
   64    68     0     0     0
SMALL
USER_CHARGES
8-[4-[4-(9-thia-8-azabicyclo[4.3.0]nona-2,4,7,10-tetraen-7-yl)piperazin-1-yl]butyl]-8-azaspiro[4.5]decane-7,9-dione
@<TRIPOS>ATOM
      1 C1         -0.1854    3.0363    3.0585 C.ar      1 <0>        -0.1227
      2 C2          0.9702    2.2871    2.8731 C.ar      1 <0>        -0.0631
      3 C3          1.7797    2.5384    1.7969 C.ar      1 <0>        -0.0775
      4 C4          1.4398    3.5390    0.9109 C.ar      1 <0>        -0.1195
      5 C5          0.2738    4.3208    1.0775 C.ar      1 <0>        -0.1259
      6 C6         -0.5340    4.0311    2.1987 C.ar      1 <0>        -0.0351
      7 C7          0.1089    5.3174    0.0302 C.2       1 <0>         0.2965
      8 N1          0.9929    5.4074   -0.9213 N.2       1 <0>        -0.4531
      9 S1          2.1517    4.2026   -0.5700 S.3       1 <0>         0.2239
     10 N2         -0.9928    6.1742    0.0458 N.pl3     1 <0>        -0.4740
     11 C8         -1.8260    5.9826   -1.1494 C.3       1 <0>         0.0288
     12 C9         -3.0618    6.8807   -1.0559 C.3       1 <0>         0.0019
     13 C10        -1.8041    8.4738    0.2628 C.3       1 <0>         0.0063
     14 C11        -0.5684    7.5757    0.1693 C.3       1 <0>         0.0281
     15 C12        -3.7969    9.1840   -0.9159 C.3       1 <0>        -0.0018
     16 C13        -4.4982    9.1379   -2.2750 C.3       1 <0>        -0.1459
     17 C14        -5.7059   10.0771   -2.2578 C.3       1 <0>        -0.1286
     18 C15        -6.4072   10.0310   -3.6168 C.3       1 <0>         0.0907
     19 N3         -7.5636   10.9302   -3.6003 N.am      1 <0>        -0.5674
     20 C16        -8.7518   10.4404   -3.2171 C.2       1 <0>         0.5275
     21 O1         -8.8357    9.2783   -2.8824 O.2       1 <0>        -0.4991
     22 C17        -9.9833   11.3079   -3.1892 C.3       1 <0>        -0.1340
     23 C18        -9.5725   12.7603   -2.9521 C.3       1 <0>        -0.0662
     24 C19       -10.8015   13.6767   -3.0258 C.3       1 <0>        -0.1145
     25 C20       -10.9201   14.3606   -1.6469 C.3       1 <0>        -0.1263
     26 C21        -9.4840   14.3020   -1.0687 C.3       1 <0>        -0.1244
     27 C22        -8.9806   12.9141   -1.5400 C.3       1 <0>        -0.1218
     28 C23        -8.5400   13.1786   -3.9978 C.3       1 <0>        -0.1329
     29 C24        -7.3893   12.2063   -3.9743 C.2       1 <0>         0.5269
     30 O2         -6.2846   12.5847   -4.3000 O.2       1 <0>        -0.4987
     31 H1         -0.8189    2.8271    3.9078 H         1 <0>         0.1379
     32 H2          1.2271    1.5059    3.5731 H         1 <0>         0.1446
     33 H3          2.6772    1.9577    1.6438 H         1 <0>         0.1426
     34 H4         -1.4362    4.5989    2.3719 H         1 <0>         0.1355
     35 H5         -1.2524    6.2448   -2.0384 H         1 <0>         0.0752
     36 H6         -2.1380    4.9401   -1.2119 H         1 <0>         0.1258
     37 H7         -3.6497    6.6005   -0.1819 H         1 <0>         0.1430
     38 H8         -3.6669    6.7619   -1.9547 H         1 <0>         0.1398
     39 H9         -2.3778    8.2117    1.1518 H         1 <0>         0.1425
     40 H10        -1.4921    9.5163    0.3257 H         1 <0>         0.1394
     41 H11         0.0365    7.6946    1.0683 H         1 <0>         0.1260
     42 H12         0.0195    7.8560   -0.7047 H         1 <0>         0.0753
     43 H13        -4.4917    8.8682   -0.1377 H         1 <0>         0.1343
     44 H14        -3.4629   10.2016   -0.7137 H         1 <0>         0.1317
     45 H15        -3.8034    9.4537   -3.0532 H         1 <0>         0.0910
     46 H16        -4.8321    8.1202   -2.4772 H         1 <0>         0.0910
     47 H17        -6.4007    9.7613   -1.4795 H         1 <0>         0.0800
     48 H18        -5.3719   11.0947   -2.0556 H         1 <0>         0.0795
     49 H19        -5.7124   10.3468   -4.3951 H         1 <0>         0.0985
     50 H20        -6.7411    9.0133   -3.8190 H         1 <0>         0.0987
     51 H21       -10.6438   10.9805   -2.3863 H         1 <0>         0.1190
     52 H22       -10.5031   11.2276   -4.1439 H         1 <0>         0.1155
     53 H23       -10.6624   14.4268   -3.8044 H         1 <0>         0.0769
     54 H24       -11.6956   13.0875   -3.2291 H         1 <0>         0.0769
     55 H25       -11.6116   13.8121   -1.0073 H         1 <0>         0.0700
     56 H26       -11.2444   15.3952   -1.7587 H         1 <0>         0.0725
     57 H27        -9.5035   14.3564    0.0198 H         1 <0>         0.0709
     58 H28        -8.8653   15.0981   -1.4826 H         1 <0>         0.0705
     59 H29        -9.3535   12.1291   -0.8821 H         1 <0>         0.0742
     60 H30        -7.8914   12.8959   -1.5784 H         1 <0>         0.0612
     61 H31        -8.1754   14.1800   -3.7693 H         1 <0>         0.1185
     62 H32        -9.0001   13.1744   -4.9859 H         1 <0>         0.1158
     63 N4         -2.6214    8.2879   -0.9547 N.4       1 <0>        -0.3991
     64 H33        -2.0524    8.5196   -1.7774 H         1 <0>         0.4266
@<TRIPOS>BOND
     1    1    6 ar
     2    1    2 ar
     3    1   31 1
     4    2    3 ar
     5    2   32 1
     6    3    4 ar
     7    3   33 1
     8    4    9 1
     9    4    5 ar
    10    5    6 ar
    11    5    7 1
    12    6   34 1
    13    7    8 2
    14    7   10 1
    15    8    9 1
    16   10   14 1
    17   10   11 1
    18   11   12 1
    19   11   35 1
    20   11   36 1
    21   12   37 1
    22   12   38 1
    23   12   63 1
    24   13   14 1
    25   13   39 1
    26   13   40 1
    27   13   63 1
    28   14   41 1
    29   14   42 1
    30   15   16 1
    31   15   43 1
    32   15   44 1
    33   15   63 1
    34   16   17 1
    35   16   45 1
    36   16   46 1
    37   17   18 1
    38   17   47 1
    39   17   48 1
    40   18   19 1
    41   18   49 1
    42   18   50 1
    43   19   29 am
    44   19   20 am
    45   20   21 2
    46   20   22 1
    47   22   23 1
    48   22   51 1
    49   22   52 1
    50   23   27 1
    51   23   24 1
    52   23   28 1
    53   24   25 1
    54   24   53 1
    55   24   54 1
    56   25   26 1
    57   25   55 1
    58   25   56 1
    59   26   27 1
    60   26   57 1
    61   26   58 1
    62   27   59 1
    63   27   60 1
    64   28   29 1
    65   28   61 1
    66   28   62 1
    67   29   30 2
    68   63   64 1
@<TRIPOS>MOLECULE
ZINC13820623
   53    55     0     0     0
SMALL
USER_CHARGES
5-bromo-N-[[(2S)-1-[(4-fluorophenyl)methyl]pyrrolidin-2-yl]methyl]-2,3-dimethoxy-benzamide
@<TRIPOS>ATOM
      1 C1          1.0873    2.2605   -9.5681 C.3       1 <0>         0.0178
      2 O1          0.2582    2.5085   -8.4310 O.3       1 <0>        -0.2949
      3 C2          0.6867    2.0205   -7.2362 C.ar      1 <0>         0.1167
      4 C3          1.8781    1.3188   -7.1621 C.ar      1 <0>        -0.1422
      5 C4          2.3209    0.8181   -5.9482 C.ar      1 <0>        -0.0661
      6 C5          1.5822    1.0185   -4.8015 C.ar      1 <0>        -0.0854
      7 C6          0.3750    1.7202   -4.8618 C.ar      1 <0>        -0.1279
      8 C7         -0.0722    2.2259   -6.0883 C.ar      1 <0>         0.1472
      9 O2         -1.2410    2.9131   -6.1573 O.3       1 <0>        -0.3068
     10 C8         -1.1736    4.3282   -5.9704 C.3       1 <0>         0.0489
     11 C9         -0.4211    1.9323   -3.6377 C.2       1 <0>         0.5734
     12 O3         -1.4684    2.5476   -3.6927 O.2       1 <0>        -0.4947
     13 N1          0.0125    1.4440   -2.4588 N.am      1 <0>        -0.7312
     14 C10        -0.7780    1.6546   -1.2434 C.3       1 <0>         0.1056
     15 C11        -0.0102    1.1139   -0.0356 C.3       1 <0>         0.0105
     16 H1          0.9795    1.5685    0.0084 H         1 <0>         0.1465
     17 C12         0.1209   -0.4204   -0.1365 C.3       1 <0>        -0.1416
     18 C13        -0.0565   -0.8838    1.3334 C.3       1 <0>        -0.1411
     19 C14        -1.1051    0.1294    1.8565 C.3       1 <0>        -0.0096
     20 C15        -1.9551    2.2035    0.9206 C.3       1 <0>         0.0412
     21 C16        -2.7355    2.4050    2.1940 C.ar      1 <0>        -0.1733
     22 C17        -3.7108    1.4952    2.5577 C.ar      1 <0>        -0.0626
     23 C18        -4.4231    1.6760    3.7281 C.ar      1 <0>        -0.1508
     24 C19        -4.1678    2.7750    4.5306 C.ar      1 <0>         0.1407
     25 C20        -3.1946    3.6885    4.1624 C.ar      1 <0>        -0.1507
     26 C21        -2.4793    3.5025    2.9947 C.ar      1 <0>        -0.0611
     27 F1         -4.8679    2.9561    5.6717 F         1 <0>        -0.1220
     28 Br1         3.9504   -0.1376   -5.8628 Br        1 <0>        -0.0222
     29 H2          2.0693    2.7047   -9.4056 H         1 <0>         0.0619
     30 H3          1.1942    1.1853   -9.7122 H         1 <0>         0.0630
     31 H4          0.6309    2.7022  -10.4540 H         1 <0>         0.1123
     32 H5          2.4653    1.1612   -8.0547 H         1 <0>         0.1530
     33 H6          1.9344    0.6299   -3.8573 H         1 <0>         0.1388
     34 H7         -2.1742    4.7533   -6.0500 H         1 <0>         0.1001
     35 H8         -0.7641    4.5453   -4.9839 H         1 <0>         0.0453
     36 H9         -0.5313    4.7655   -6.7348 H         1 <0>         0.0476
     37 H10         0.8480    0.9532   -2.4149 H         1 <0>         0.4059
     38 H11        -1.7294    1.1305   -1.3335 H         1 <0>         0.0923
     39 H12        -0.9616    2.7207   -1.1097 H         1 <0>         0.0953
     40 H13        -0.6652   -0.8337   -0.7684 H         1 <0>         0.1046
     41 H14         1.1054   -0.6992   -0.5123 H         1 <0>         0.1159
     42 H15         0.8792   -0.7974    1.8857 H         1 <0>         0.1007
     43 H16        -0.4418   -1.9025    1.3779 H         1 <0>         0.1193
     44 H17        -1.0338    0.2241    2.9400 H         1 <0>         0.1357
     45 H18        -2.1093   -0.1804    1.5671 H         1 <0>         0.1331
     46 H19        -1.6628    3.1727    0.5164 H         1 <0>         0.1415
     47 H20        -2.5751    1.6787    0.1937 H         1 <0>         0.1423
     48 H21        -3.9133    0.6408    1.9290 H         1 <0>         0.1407
     49 H22        -5.1821    0.9629    4.0141 H         1 <0>         0.1498
     50 H23        -2.9948    4.5464    4.7874 H         1 <0>         0.1497
     51 H24        -1.7202    4.2149    2.7073 H         1 <0>         0.1421
     52 N2         -0.7358    1.4052    1.2115 N.4       1 <0>        -0.3883
     53 H25        -0.1269    1.9407    1.8415 H         1 <0>         0.4329
@<TRIPOS>BOND
     1    1    2 1
     2    1   29 1
     3    1   30 1
     4    1   31 1
     5    2    3 1
     6    3    8 ar
     7    3    4 ar
     8    4    5 ar
     9    4   32 1
    10    5    6 ar
    11    5   28 1
    12    6    7 ar
    13    6   33 1
    14    7    8 ar
    15    7   11 1
    16    8    9 1
    17    9   10 1
    18   10   34 1
    19   10   35 1
    20   10   36 1
    21   11   12 2
    22   11   13 am
    23   13   14 1
    24   13   37 1
    25   14   15 1
    26   14   38 1
    27   14   39 1
    28   15   16 1
    29   15   17 1
    30   15   52 1
    31   17   18 1
    32   17   40 1
    33   17   41 1
    34   18   19 1
    35   18   42 1
    36   18   43 1
    37   19   44 1
    38   19   45 1
    39   19   52 1
    40   20   21 1
    41   20   46 1
    42   20   47 1
    43   20   52 1
    44   21   26 ar
    45   21   22 ar
    46   22   23 ar
    47   22   48 1
    48   23   24 ar
    49   23   49 1
    50   24   25 ar
    51   24   27 1
    52   25   26 ar
    53   25   50 1
    54   26   51 1
    55   52   53 1
@<TRIPOS>MOLECULE
ZINC12355964
   34    37     0     0     0
SMALL
USER_CHARGES

@<TRIPOS>ATOM
      1 C1         -0.0167    1.3806    0.0096 C.ar      1 <0>        -0.1147
      2 C2          1.1696    2.0871    0.0021 C.ar      1 <0>        -0.1169
      3 C3          2.3880    1.4200    0.0007 C.ar      1 <0>        -0.0679
      4 C4          2.4047    0.0484    0.0212 C.ar      1 <0>        -0.0750
      5 C5          1.2088   -0.6617   -0.0016 C.ar      1 <0>        -0.1224
      6 C6          0.0021   -0.0041    0.0020 C.ar      1 <0>        -0.1085
      7 C7          1.3087   -2.1637   -0.0532 C.3       1 <0>         0.1083
      8 N1          2.2501   -2.6320    0.9586 N.3       1 <0>        -0.6994
      9 C8          3.5095   -1.9183    1.0464 C.3       1 <0>         0.0800
     10 C9          3.6636   -0.7685    0.0556 C.3       1 <0>        -0.0173
     11 H1          3.8494   -1.1776   -0.9375 H         1 <0>         0.1006
     12 C10         4.8516    0.0631    0.4628 C.ar      1 <0>        -0.0651
     13 C11         5.9896   -0.6095    0.8920 C.ar      1 <0>        -0.1073
     14 C12         7.1145    0.0865    1.2831 C.ar      1 <0>        -0.1291
     15 C13         7.1118    1.4718    1.2486 C.ar      1 <0>         0.0833
     16 C14         5.9763    2.1453    0.8191 C.ar      1 <0>         0.0810
     17 C15         4.8430    1.4377    0.4236 C.ar      1 <0>        -0.0806
     18 C16         3.6518    2.2269   -0.0363 C.3       1 <0>        -0.0389
     19 O1          5.9700    3.5048    0.7844 O.3       1 <0>        -0.4841
     20 O2          8.2151    2.1676    1.6335 O.3       1 <0>        -0.4866
     21 H2         -0.9591    1.9078    0.0260 H         1 <0>         0.1255
     22 H3          1.1500    3.1669   -0.0031 H         1 <0>         0.1244
     23 H4         -0.9228   -0.5618   -0.0007 H         1 <0>         0.1260
     24 H5          0.3274   -2.5988    0.1359 H         1 <0>         0.0851
     25 H6          1.6556   -2.4700   -1.0401 H         1 <0>         0.0854
     26 H7          1.8069   -2.6959    1.8628 H         1 <0>         0.3510
     27 H8          3.6094   -1.5189    2.0557 H         1 <0>         0.0518
     28 H9          4.3198   -2.6279    0.8793 H         1 <0>         0.0775
     29 H10         5.9932   -1.6891    0.9199 H         1 <0>         0.1349
     30 H11         7.9934   -0.4460    1.6153 H         1 <0>         0.1367
     31 H12         3.8252    2.5657   -1.0577 H         1 <0>         0.0915
     32 H13         3.5342    3.0979    0.6083 H         1 <0>         0.0958
     33 H14         6.2703    3.8782   -0.0555 H         1 <0>         0.3868
     34 H15         8.8364    2.3487    0.9150 H         1 <0>         0.3882
@<TRIPOS>BOND
     1    1    6 ar
     2    1    2 ar
     3    1   21 1
     4    2    3 ar
     5    2   22 1
     6    3   18 1
     7    3    4 ar
     8    4   10 1
     9    4    5 ar
    10    5    6 ar
    11    5    7 1
    12    6   23 1
    13    7    8 1
    14    7   24 1
    15    7   25 1
    16    8    9 1
    17    8   26 1
    18    9   10 1
    19    9   27 1
    20    9   28 1
    21   10   11 1
    22   10   12 1
    23   12   17 ar
    24   12   13 ar
    25   13   14 ar
    26   13   29 1
    27   14   15 ar
    28   14   30 1
    29   15   16 ar
    30   15   20 1
    31   16   17 ar
    32   16   19 1
    33   17   18 1
    34   18   31 1
    35   18   32 1
    36   19   33 1
    37   20   34 1
@<TRIPOS>MOLECULE
ZINC12355964
   35    38     0     0     0
SMALL
USER_CHARGES

@<TRIPOS>ATOM
      1 C1         -0.0167    1.3809    0.0096 C.ar      1 <0>        -0.1033
      2 C2          1.1692    2.0883    0.0021 C.ar      1 <0>        -0.0877
      3 C3          2.3880    1.4217    0.0001 C.ar      1 <0>        -0.0494
      4 C4          2.4040    0.0508    0.0196 C.ar      1 <0>        -0.0812
      5 C5          1.2087   -0.6608   -0.0019 C.ar      1 <0>        -0.1458
      6 C6          0.0021   -0.0041    0.0020 C.ar      1 <0>        -0.0808
      7 C7          1.3163   -2.1618   -0.0527 C.3       1 <0>         0.0418
      8 N1          2.2441   -2.6319    0.9684 N.4       1 <0>        -0.4932
      9 C8          3.5019   -1.9180    1.0436 C.3       1 <0>        -0.0117
     10 C9          3.6604   -0.7703    0.0523 C.3       1 <0>        -0.0029
     11 H1          3.8482   -1.1780   -0.9410 H         1 <0>         0.1182
     12 C10         4.8500    0.0597    0.4586 C.ar      1 <0>        -0.0892
     13 C11         5.9879   -0.6151    0.8850 C.ar      1 <0>        -0.1127
     14 C12         7.1143    0.0788    1.2751 C.ar      1 <0>        -0.1241
     15 C13         7.1136    1.4642    1.2424 C.ar      1 <0>         0.1022
     16 C14         5.9782    2.1398    0.8156 C.ar      1 <0>         0.0885
     17 C15         4.8431    1.4344    0.4213 C.ar      1 <0>        -0.0700
     18 C16         3.6529    2.2268   -0.0363 C.3       1 <0>        -0.0502
     19 O1          5.9739    3.4993    0.7824 O.3       1 <0>        -0.4815
     20 O2          8.2183    2.1579    1.6267 O.3       1 <0>        -0.4836
     21 H2         -0.9593    1.9078    0.0260 H         1 <0>         0.1404
     22 H3          1.1491    3.1681   -0.0026 H         1 <0>         0.1387
     23 H4         -0.9226   -0.5621   -0.0012 H         1 <0>         0.1386
     24 H5          0.3340   -2.6007    0.1217 H         1 <0>         0.1440
     25 H6          1.6765   -2.4653   -1.0357 H         1 <0>         0.1398
     26 H7          1.7878   -2.5646    1.8658 H         1 <0>         0.4320
     27 H8          3.6084   -1.5170    2.0516 H         1 <0>         0.1347
     28 H9          4.3103   -2.6296    0.8758 H         1 <0>         0.1394
     29 H10         5.9900   -1.6948    0.9114 H         1 <0>         0.1310
     30 H11         7.9930   -0.4553    1.6050 H         1 <0>         0.1428
     31 H12         3.8261    2.5677   -1.0570 H         1 <0>         0.1030
     32 H13         3.5373    3.0966    0.6105 H         1 <0>         0.1067
     33 H14         6.2734    3.8732   -0.0575 H         1 <0>         0.3945
     34 H15         8.8388    2.3392    0.9075 H         1 <0>         0.3971
     35 H16         2.4427   -3.6052    0.7915 H         1 <0>         0.4341
@<TRIPOS>BOND
     1    1    6 ar
     2    1    2 ar
     3    1   21 1
     4    2    3 ar
     5    2   22 1
     6    3   18 1
     7    3    4 ar
     8    4   10 1
     9    4    5 ar
    10    5    6 ar
    11    5    7 1
    12    6   23 1
    13    7    8 1
    14    7   24 1
    15    7   25 1
    16    8    9 1
    17    8   26 1
    18    8   35 1
    19    9   10 1
    20    9   27 1
    21    9   28 1
    22   10   11 1
    23   10   12 1
    24   12   17 ar
    25   12   13 ar
    26   13   14 ar
    27   13   29 1
    28   14   15 ar
    29   14   30 1
    30   15   16 ar
    31   15   20 1
    32   16   17 ar
    33   16   19 1
    34   17   18 1
    35   18   31 1
    36   18   32 1
    37   19   33 1
    38   20   34 1
@<TRIPOS>MOLECULE
ZINC13452432
   56    60     0     0     0
SMALL
USER_CHARGES
1-[2-[4-[5-chloro-1-(4-fluorophenyl)indol-3-yl]-3,6-dihydro-2H-pyridin-1-yl]ethyl]imidazolidin-2-one
@<TRIPOS>ATOM
      1 C1        -10.0206   -6.2907   -3.6207 C.ar      1 <0>        -0.0873
      2 C2        -11.1431   -6.4929   -4.3994 C.ar      1 <0>        -0.1326
      3 C3        -11.8652   -5.4089   -4.8698 C.ar      1 <0>         0.1136
      4 C4        -11.4665   -4.1203   -4.5562 C.ar      1 <0>        -0.1340
      5 C5        -10.3473   -3.9139   -3.7738 C.ar      1 <0>        -0.0879
      6 C6         -9.6220   -4.9995   -3.3011 C.ar      1 <0>         0.0996
      7 N1         -8.4860   -4.7923   -2.5076 N.pl3     1 <0>        -0.4215
      8 C7         -7.4632   -3.9401   -2.8135 C.2       1 <0>         0.0975
      9 C8         -6.5228   -3.9830   -1.8347 C.2       1 <0>        -0.1675
     10 C9         -7.0071   -4.9396   -0.8245 C.ar      1 <0>        -0.0745
     11 C10        -8.2412   -5.4147   -1.2997 C.ar      1 <0>         0.1008
     12 C11        -8.9494   -6.3464   -0.5483 C.ar      1 <0>        -0.1032
     13 C12        -8.4388   -6.7947    0.6503 C.ar      1 <0>        -0.0856
     14 C13        -7.2193   -6.3249    1.1195 C.ar      1 <0>        -0.0464
     15 C14        -6.5022   -5.4013    0.3894 C.ar      1 <0>        -0.0696
     16 Cl1        -6.5945   -6.9038    2.6322 Cl        1 <0>        -0.0585
     17 C15        -5.2632   -3.2154   -1.7888 C.2       1 <0>        -0.0064
     18 C16        -5.1807   -2.1848   -0.9736 C.2       1 <0>        -0.1894
     19 C17        -3.9502   -1.3325   -0.8534 C.3       1 <0>         0.0380
     20 C18        -3.1022   -2.5087   -2.7817 C.3       1 <0>         0.0025
     21 C19        -4.1261   -3.6416   -2.6751 C.3       1 <0>        -0.1158
     22 C20        -1.6056   -1.1625   -1.4314 C.3       1 <0>        -0.0266
     23 C21        -1.1803   -0.8691    0.0087 C.3       1 <0>         0.1312
     24 N2          0.0021   -0.0041    0.0020 N.am      1 <0>        -0.6352
     25 C22        -0.0179    1.4663    0.0101 C.3       1 <0>         0.0899
     26 C23         1.4731    1.8559   -0.0020 C.3       1 <0>         0.0872
     27 N3          2.1748    0.5636   -0.0157 N.am      1 <0>        -0.7328
     28 C24         1.2730   -0.4269   -0.0124 C.2       1 <0>         0.6999
     29 O1          1.5803   -1.6032   -0.0213 O.2       1 <0>        -0.5771
     30 F1        -12.9603   -5.6087   -5.6354 F         1 <0>        -0.1271
     31 H1         -9.4552   -7.1362   -3.2578 H         1 <0>         0.1415
     32 H2        -11.4557   -7.4971   -4.6452 H         1 <0>         0.1503
     33 H3        -12.0310   -3.2762   -4.9240 H         1 <0>         0.1497
     34 H4        -10.0364   -2.9088   -3.5300 H         1 <0>         0.1404
     35 H5         -7.4092   -3.3272   -3.7011 H         1 <0>         0.1769
     36 H6         -9.8991   -6.7180   -0.9039 H         1 <0>         0.1349
     37 H7         -8.9921   -7.5185    1.2302 H         1 <0>         0.1437
     38 H8         -5.5537   -5.0376    0.7562 H         1 <0>         0.1317
     39 H9         -6.0376   -1.9414   -0.3629 H         1 <0>         0.1514
     40 H10        -3.7604   -1.1188    0.1985 H         1 <0>         0.1382
     41 H11        -4.1084   -0.3965   -1.3890 H         1 <0>         0.1404
     42 H12        -3.5193   -1.6925   -3.3714 H         1 <0>         0.1341
     43 H13        -2.1937   -2.8798   -3.2561 H         1 <0>         0.1361
     44 H14        -3.6472   -4.5243   -2.2514 H         1 <0>         0.1085
     45 H15        -4.5091   -3.8782   -3.6678 H         1 <0>         0.1240
     46 H16        -1.8428   -0.2269   -1.9380 H         1 <0>         0.1334
     47 H17        -0.7919   -1.6634   -1.9558 H         1 <0>         0.1350
     48 H18        -0.9431   -1.8046    0.5152 H         1 <0>         0.1066
     49 H19        -1.9940   -0.3681    0.5330 H         1 <0>         0.1032
     50 H20        -0.5200    1.8470   -0.8793 H         1 <0>         0.0867
     51 H21        -0.5029    1.8374    0.9129 H         1 <0>         0.0916
     52 H22         1.7112    2.4300   -0.8974 H         1 <0>         0.0913
     53 H23         1.7283    2.4204    0.8948 H         1 <0>         0.0924
     54 H24         3.1377    0.4470   -0.0255 H         1 <0>         0.4382
     55 N4         -2.7900   -2.0508   -1.4124 N.4       1 <0>        -0.3939
     56 H25        -2.5858   -2.8673   -0.8243 H         1 <0>         0.4323
@<TRIPOS>BOND
     1    1    6 ar
     2    1    2 ar
     3    1   31 1
     4    2    3 ar
     5    2   32 1
     6    3    4 ar
     7    3   30 1
     8    4    5 ar
     9    4   33 1
    10    5    6 ar
    11    5   34 1
    12    6    7 1
    13    7   11 1
    14    7    8 1
    15    8    9 2
    16    8   35 1
    17    9   10 1
    18    9   17 1
    19   10   15 ar
    20   10   11 ar
    21   11   12 ar
    22   12   13 ar
    23   12   36 1
    24   13   14 ar
    25   13   37 1
    26   14   15 ar
    27   14   16 1
    28   15   38 1
    29   17   21 1
    30   17   18 2
    31   18   19 1
    32   18   39 1
    33   19   40 1
    34   19   41 1
    35   19   55 1
    36   20   21 1
    37   20   42 1
    38   20   43 1
    39   20   55 1
    40   21   44 1
    41   21   45 1
    42   22   23 1
    43   22   46 1
    44   22   47 1
    45   22   55 1
    46   23   24 1
    47   23   48 1
    48   23   49 1
    49   24   28 am
    50   24   25 1
    51   25   26 1
    52   25   50 1
    53   25   51 1
    54   26   27 1
    55   26   52 1
    56   26   53 1
    57   27   28 am
    58   27   54 1
    59   28   29 2
    60   55   56 1
@<TRIPOS>MOLECULE
ZINC13820638
   53    55     0     0     0
SMALL
USER_CHARGES
N-(1-benzyl-4-piperidyl)-2,3-dimethoxy-benzamide
@<TRIPOS>ATOM
      1 C1         -0.0510   -2.7058   -0.0102 C.3       1 <0>         0.0214
      2 O1          1.2171   -2.0471   -0.0192 O.3       1 <0>        -0.3019
      3 C2          1.2065   -0.6871   -0.0127 C.ar      1 <0>         0.1063
      4 C3          0.0021   -0.0041    0.0020 C.ar      1 <0>        -0.1671
      5 C4         -0.0167    1.3808    0.0096 C.ar      1 <0>        -0.0894
      6 C5          1.1628    2.0930    0.0022 C.ar      1 <0>        -0.1134
      7 C6          2.3866    1.4181   -0.0132 C.ar      1 <0>        -0.1347
      8 C7          2.4059    0.0181   -0.0204 C.ar      1 <0>         0.1291
      9 O2          3.5887   -0.6478   -0.0345 O.3       1 <0>        -0.3094
     10 C8          4.1423   -0.9600   -1.3143 C.3       1 <0>         0.0499
     11 C9          3.6519    2.1771   -0.0213 C.2       1 <0>         0.5683
     12 O3          4.7148    1.5869   -0.0342 O.2       1 <0>        -0.5040
     13 N1          3.6294    3.5247   -0.0143 N.am      1 <0>        -0.7294
     14 C10         4.8856    4.2783   -0.0223 C.3       1 <0>         0.1389
     15 C11         5.3985    4.4332    1.4121 C.3       1 <0>        -0.1607
     16 C12         6.6780    5.2728    1.4033 C.3       1 <0>        -0.0023
     17 C13         5.9472    6.4701   -0.5728 C.3       1 <0>         0.0038
     18 C14         4.6459    5.6662   -0.6230 C.3       1 <0>        -0.1572
     19 C15         7.5666    7.4726    0.9215 C.3       1 <0>         0.0491
     20 C16         7.8481    7.7690    2.3720 C.ar      1 <0>        -0.1638
     21 C17         7.2652    8.8657    2.9790 C.ar      1 <0>        -0.0945
     22 C18         7.5192    9.1347    4.3110 C.ar      1 <0>        -0.1135
     23 C19         8.3647    8.3132    5.0329 C.ar      1 <0>        -0.0838
     24 C20         8.9521    7.2198    4.4244 C.ar      1 <0>        -0.1133
     25 C21         8.6935    6.9476    3.0940 C.ar      1 <0>        -0.0965
     26 H1         -0.6017   -2.4214    0.8865 H         1 <0>         0.0602
     27 H2         -0.6188   -2.4131   -0.8934 H         1 <0>         0.0593
     28 H3          0.1002   -3.7852   -0.0167 H         1 <0>         0.1081
     29 H4         -0.9274   -0.5540    0.0080 H         1 <0>         0.1423
     30 H5         -0.9608    1.9052    0.0170 H         1 <0>         0.1388
     31 H6          1.1417    3.1728    0.0079 H         1 <0>         0.1296
     32 H7          3.4454   -1.5893   -1.8679 H         1 <0>         0.0446
     33 H8          4.3186   -0.0382   -1.8687 H         1 <0>         0.0436
     34 H9          5.0852   -1.4908   -1.1827 H         1 <0>         0.0963
     35 H10         2.7814    3.9955   -0.0039 H         1 <0>         0.4050
     36 H11         5.6260    3.7459   -0.6193 H         1 <0>         0.1065
     37 H12         4.6410    4.9307    2.0177 H         1 <0>         0.0896
     38 H13         5.6116    3.4496    1.8306 H         1 <0>         0.1179
     39 H14         7.4395    4.7681    0.8089 H         1 <0>         0.1335
     40 H15         7.0379    5.3971    2.4246 H         1 <0>         0.1324
     41 H16         6.7122    5.9597   -1.1580 H         1 <0>         0.1350
     42 H17         5.7764    7.4638   -0.9867 H         1 <0>         0.1351
     43 H18         4.3213    5.5634   -1.6584 H         1 <0>         0.1202
     44 H19         3.8765    6.1830   -0.0494 H         1 <0>         0.0943
     45 H20         8.4317    6.9807    0.4767 H         1 <0>         0.1375
     46 H21         7.3665    8.4043    0.3924 H         1 <0>         0.1358
     47 H22         6.6082    9.5101    2.4138 H         1 <0>         0.1309
     48 H23         7.0601    9.9887    4.7865 H         1 <0>         0.1360
     49 H24         8.5661    8.5254    6.0725 H         1 <0>         0.1358
     50 H25         9.6126    6.5780    4.9884 H         1 <0>         0.1363
     51 H26         9.1524    6.0933    2.6185 H         1 <0>         0.1315
     52 N2          6.3744    6.6040    0.8361 N.4       1 <0>        -0.3942
     53 H27         5.6121    7.0301    1.3761 H         1 <0>         0.4259
@<TRIPOS>BOND
     1    1    2 1
     2    1   26 1
     3    1   27 1
     4    1   28 1
     5    2    3 1
     6    3    8 ar
     7    3    4 ar
     8    4    5 ar
     9    4   29 1
    10    5    6 ar
    11    5   30 1
    12    6    7 ar
    13    6   31 1
    14    7    8 ar
    15    7   11 1
    16    8    9 1
    17    9   10 1
    18   10   32 1
    19   10   33 1
    20   10   34 1
    21   11   12 2
    22   11   13 am
    23   13   14 1
    24   13   35 1
    25   14   18 1
    26   14   15 1
    27   14   36 1
    28   15   16 1
    29   15   37 1
    30   15   38 1
    31   16   39 1
    32   16   40 1
    33   16   52 1
    34   17   18 1
    35   17   41 1
    36   17   42 1
    37   17   52 1
    38   18   43 1
    39   18   44 1
    40   19   20 1
    41   19   45 1
    42   19   46 1
    43   19   52 1
    44   20   25 ar
    45   20   21 ar
    46   21   22 ar
    47   21   47 1
    48   22   23 ar
    49   22   48 1
    50   23   24 ar
    51   23   49 1
    52   24   25 ar
    53   24   50 1
    54   25   51 1
    55   52   53 1
@<TRIPOS>MOLECULE
ZINC05998832
   51    53     0     0     0
SMALL
USER_CHARGES
4-amino-5-chloro-N-[1-[(4-fluorophenyl)methyl]-4-piperidyl]-2-methoxy-benzamide
@<TRIPOS>ATOM
      1 C1          1.3159   -4.9468   -5.9419 C.3       1 <0>         0.0173
      2 O1          1.1885   -4.1554   -4.7589 O.3       1 <0>        -0.2772
      3 C2          1.1359   -4.8188   -3.5766 C.ar      1 <0>         0.2479
      4 C3          1.2113   -6.2006   -3.5506 C.ar      1 <0>        -0.2977
      5 C4          1.1508   -6.8746   -2.3376 C.ar      1 <0>         0.3045
      6 C5          1.0210   -6.1635   -1.1449 C.ar      1 <0>        -0.1595
      7 C6          0.9519   -4.7999   -1.1592 C.ar      1 <0>         0.0119
      8 C7          1.0112   -4.1070   -2.3735 C.ar      1 <0>        -0.2395
      9 C8          0.9368   -2.6368   -2.3894 C.2       1 <0>         0.5779
     10 O2          0.9885   -2.0367   -3.4461 O.2       1 <0>        -0.5149
     11 N1          0.8115   -1.9558   -1.2331 N.am      1 <0>        -0.7351
     12 C9          0.7375   -0.4928   -1.2489 C.3       1 <0>         0.1401
     13 C10         0.0021   -0.0041    0.0020 C.3       1 <0>        -0.1580
     14 C11        -0.0187    1.5261    0.0104 C.3       1 <0>         0.0041
     15 C12         2.0699    1.6185   -1.2150 C.3       1 <0>        -0.0031
     16 C13         2.1530    0.0910   -1.2600 C.3       1 <0>        -0.1607
     17 C14         1.3803    3.4971    0.1472 C.3       1 <0>         0.0509
     18 C15         2.7964    3.9577    0.3783 C.ar      1 <0>        -0.1775
     19 C16         3.2887    4.0576    1.6662 C.ar      1 <0>        -0.0620
     20 C17         4.5888    4.4752    1.8792 C.ar      1 <0>        -0.1512
     21 C18         5.3949    4.8038    0.8025 C.ar      1 <0>         0.1402
     22 C19         4.8990    4.7085   -0.4868 C.ar      1 <0>        -0.1510
     23 C20         3.6003    4.2855   -0.6975 C.ar      1 <0>        -0.0644
     24 F1          6.6645    5.2167    1.0096 F         1 <0>        -0.1222
     25 Cl1         0.9463   -7.0162    0.3654 Cl        1 <0>        -0.0604
     26 N2          1.2203   -8.2639   -2.3123 N.pl3     1 <0>        -0.8497
     27 H1          0.4628   -5.6206   -6.0218 H         1 <0>         0.0611
     28 H2          1.3463   -4.2941   -6.8142 H         1 <0>         0.1075
     29 H3          2.2357   -5.5295   -5.8919 H         1 <0>         0.0608
     30 H4          1.3122   -6.7541   -4.4724 H         1 <0>         0.1459
     31 H5          0.8511   -4.2553   -0.2320 H         1 <0>         0.1381
     32 H6          0.7703   -2.4345   -0.3904 H         1 <0>         0.4022
     33 H7          0.2008   -0.1639   -2.1388 H         1 <0>         0.1060
     34 H8          0.5174   -0.3659    0.8918 H         1 <0>         0.0939
     35 H9         -1.0203   -0.3818   -0.0060 H         1 <0>         0.1205
     36 H10        -0.5461    1.8871   -0.8725 H         1 <0>         0.1354
     37 H11        -0.5291    1.8775    0.9071 H         1 <0>         0.1349
     38 H12         3.0763    2.0369   -1.2084 H         1 <0>         0.1306
     39 H13         1.5326    1.9790   -2.0923 H         1 <0>         0.1344
     40 H14         2.7021   -0.2693   -0.3901 H         1 <0>         0.0891
     41 H15         2.6673   -0.2188   -2.1698 H         1 <0>         0.1176
     42 H16         0.9913    3.9595   -0.7600 H         1 <0>         0.1397
     43 H17         0.7611    3.7860    0.9965 H         1 <0>         0.1381
     44 H18         2.6585    3.8052    2.5061 H         1 <0>         0.1424
     45 H19         4.9745    4.5492    2.8852 H         1 <0>         0.1495
     46 H20         5.5270    4.9642   -1.3274 H         1 <0>         0.1498
     47 H21         3.2135    4.2107   -1.7031 H         1 <0>         0.1427
     48 H22         1.1784   -8.7362   -1.4661 H         1 <0>         0.4090
     49 H23         1.3105   -8.7601   -3.1408 H         1 <0>         0.4092
     50 N3          1.3729    2.0248    0.0240 N.4       1 <0>        -0.3951
     51 H24         1.8637    1.6203    0.8301 H         1 <0>         0.4262
@<TRIPOS>BOND
     1    1    2 1
     2    1   27 1
     3    1   28 1
     4    1   29 1
     5    2    3 1
     6    3    8 ar
     7    3    4 ar
     8    4    5 ar
     9    4   30 1
    10    5    6 ar
    11    5   26 1
    12    6    7 ar
    13    6   25 1
    14    7    8 ar
    15    7   31 1
    16    8    9 1
    17    9   10 2
    18    9   11 am
    19   11   12 1
    20   11   32 1
    21   12   16 1
    22   12   13 1
    23   12   33 1
    24   13   14 1
    25   13   34 1
    26   13   35 1
    27   14   36 1
    28   14   37 1
    29   14   50 1
    30   15   16 1
    31   15   38 1
    32   15   39 1
    33   15   50 1
    34   16   40 1
    35   16   41 1
    36   17   18 1
    37   17   42 1
    38   17   43 1
    39   17   50 1
    40   18   23 ar
    41   18   19 ar
    42   19   20 ar
    43   19   44 1
    44   20   21 ar
    45   20   45 1
    46   21   22 ar
    47   21   24 1
    48   22   23 ar
    49   22   46 1
    50   23   47 1
    51   26   48 1
    52   26   49 1
    53   50   51 1
@<TRIPOS>MOLECULE
ZINC01481744
   59    63     0     0     0
SMALL
USER_CHARGES
tert-butylBLAHol
@<TRIPOS>ATOM
      1 C1          7.4021    8.7034   -0.7443 C.3       1 <0>        -0.1466
      2 C2          7.5600    7.3733   -0.0048 C.3       1 <0>        -0.0472
      3 C3          8.5881    6.5044   -0.7320 C.3       1 <0>        -0.1553
      4 C4          8.0362    7.6381    1.4249 C.3       1 <0>        -0.1470
      5 C5          6.2137    6.6474    0.0323 C.3       1 <0>         0.1386
      6 C6          5.7356    6.3816   -1.3980 C.3       1 <0>        -0.1808
      7 C7          4.4166    5.6077   -1.3542 C.3       1 <0>        -0.0052
      8 C8          3.3652    3.5592   -0.6154 C.3       1 <0>        -0.0027
      9 C9          3.6680    2.1410   -0.1452 C.3       1 <0>        -0.0191
     10 H1          4.2105    1.6604   -0.9594 H         1 <0>         0.1021
     11 C10         2.3734    1.3946   -0.0260 C.ar      1 <0>        -0.0842
     12 C11         1.1723    2.0854    0.0021 C.ar      1 <0>        -0.1223
     13 C12        -0.0167    1.3784    0.0096 C.ar      1 <0>        -0.1108
     14 C13         0.0021   -0.0041    0.0020 C.ar      1 <0>        -0.1048
     15 C14         1.2071   -0.6813    0.0133 C.ar      1 <0>        -0.1051
     16 C15         2.3948    0.0364    0.0071 C.ar      1 <0>        -0.0695
     17 C16         3.7024   -0.6896    0.1021 C.3       1 <0>        -0.0845
     18 C17         4.3272   -0.4713    1.4512 C.3       1 <0>        -0.0850
     19 C18         4.8103    0.9217    1.7463 C.ar      1 <0>        -0.0444
     20 C19         4.5590    2.0827    1.0479 C.ar      1 <0>        -0.0603
     21 C20         5.1779    3.2568    1.4753 C.ar      1 <0>        -0.1299
     22 C21         5.9679    3.2844    2.6137 C.ar      1 <0>        -0.0975
     23 C22         6.1786    2.1330    3.3379 C.ar      1 <0>        -0.0990
     24 C23         5.6072    0.9672    2.8970 C.ar      1 <0>        -0.1046
     25 C24         5.0337    4.5665    0.7444 C.3       1 <0>         0.0810
     26 H2          4.2805    5.1671    1.2544 H         1 <0>         0.1391
     27 C25         6.3702    5.3111    0.7637 C.3       1 <0>        -0.1720
     28 O1          5.2533    7.4561    0.7147 O.3       1 <0>        -0.5331
     29 H3          6.6697    9.3225   -0.2261 H         1 <0>         0.0690
     30 H4          8.3612    9.2205   -0.7707 H         1 <0>         0.0638
     31 H5          7.0629    8.5148   -1.7628 H         1 <0>         0.0556
     32 H6          8.2488    6.3158   -1.7506 H         1 <0>         0.0600
     33 H7          9.5472    7.0215   -0.7584 H         1 <0>         0.0731
     34 H8          8.7006    5.5568   -0.2052 H         1 <0>         0.0598
     35 H9          8.1487    6.6905    1.9518 H         1 <0>         0.0543
     36 H10         8.9953    8.1552    1.3985 H         1 <0>         0.0641
     37 H11         7.3038    8.2571    1.9431 H         1 <0>         0.0692
     38 H12         6.4847    5.7942   -1.9288 H         1 <0>         0.1035
     39 H13         5.5840    7.3302   -1.9132 H         1 <0>         0.1274
     40 H14         4.0813    5.4044   -2.3713 H         1 <0>         0.1398
     41 H15         3.6639    6.2024   -0.8366 H         1 <0>         0.1295
     42 H16         2.9358    3.5269   -1.6168 H         1 <0>         0.1429
     43 H17         2.6573    4.0264    0.0692 H         1 <0>         0.1364
     44 H18         1.1646    3.1652    0.0175 H         1 <0>         0.1229
     45 H19        -0.9590    1.9060    0.0169 H         1 <0>         0.1296
     46 H20        -0.9263   -0.5557   -0.0124 H         1 <0>         0.1306
     47 H21         1.2241   -1.7611    0.0273 H         1 <0>         0.1320
     48 H22         3.5343   -1.7559   -0.0490 H         1 <0>         0.0895
     49 H23         4.3776   -0.3184   -0.6689 H         1 <0>         0.0749
     50 H24         3.5946   -0.7431    2.2111 H         1 <0>         0.0852
     51 H25         5.1749   -1.1501    1.5451 H         1 <0>         0.0900
     52 H26         6.4197    4.2119    2.9332 H         1 <0>         0.1353
     53 H27         6.7814    2.1475    4.2340 H         1 <0>         0.1400
     54 H28         5.7764    0.0573    3.4536 H         1 <0>         0.1328
     55 H29         7.1294    4.7094    0.2640 H         1 <0>         0.1055
     56 H30         6.6704    5.4938    1.7955 H         1 <0>         0.1265
     57 H31         4.3755    7.0555    0.7778 H         1 <0>         0.3658
     58 N1          4.6164    4.3231   -0.6385 N.4       1 <0>        -0.3871
     59 H32         5.3405    3.7791   -1.1223 H         1 <0>         0.4282
@<TRIPOS>BOND
     1    1    2 1
     2    1   29 1
     3    1   30 1
     4    1   31 1
     5    2    3 1
     6    2    4 1
     7    2    5 1
     8    3   32 1
     9    3   33 1
    10    3   34 1
    11    4   35 1
    12    4   36 1
    13    4   37 1
    14    5   27 1
    15    5    6 1
    16    5   28 1
    17    6    7 1
    18    6   38 1
    19    6   39 1
    20    7   40 1
    21    7   41 1
    22    7   58 1
    23    8    9 1
    24    8   42 1
    25    8   43 1
    26    8   58 1
    27    9   10 1
    28    9   20 1
    29    9   11 1
    30   11   16 ar
    31   11   12 ar
    32   12   13 ar
    33   12   44 1
    34   13   14 ar
    35   13   45 1
    36   14   15 ar
    37   14   46 1
    38   15   16 ar
    39   15   47 1
    40   16   17 1
    41   17   18 1
    42   17   48 1
    43   17   49 1
    44   18   19 1
    45   18   50 1
    46   18   51 1
    47   19   24 ar
    48   19   20 ar
    49   20   21 ar
    50   21   22 ar
    51   21   25 1
    52   22   23 ar
    53   22   52 1
    54   23   24 ar
    55   23   53 1
    56   24   54 1
    57   25   26 1
    58   25   27 1
    59   25   58 1
    60   27   55 1
    61   27   56 1
    62   28   57 1
    63   58   59 1
@<TRIPOS>MOLECULE
ZINC22463345
   54    57     0     0     0
SMALL
USER_CHARGES
2-[4-[(1R,3S)-3-(4-fluorophenyl)-6-(trifluoromethyl)indan-1-yl]piperazin-1-yl]ethanol
@<TRIPOS>ATOM
      1 C1         -0.4317   -7.2518   -3.5141 C.ar      1 <0>        -0.0795
      2 C2         -0.2506   -8.3222   -4.3693 C.ar      1 <0>        -0.1489
      3 C3         -0.4902   -8.1728   -5.7248 C.ar      1 <0>         0.1151
      4 C4         -0.9167   -6.9525   -6.2210 C.ar      1 <0>        -0.1491
      5 C5         -1.1029   -5.8853   -5.3630 C.ar      1 <0>        -0.0776
      6 C6         -0.8630   -6.0355   -4.0098 C.ar      1 <0>        -0.1134
      7 C7         -1.0660   -4.8708   -3.0753 C.3       1 <0>        -0.0239
      8 H1         -1.4064   -4.0308   -3.6986 H         1 <0>         0.1155
      9 C8          0.2397   -4.5683   -2.3046 C.3       1 <0>        -0.1302
     10 C9         -0.2897   -4.1132   -0.9280 C.3       1 <0>         0.0949
     11 H2          0.3887   -4.3445   -0.0935 H         1 <0>         0.1442
     12 C10        -1.6365   -4.7872   -0.7764 C.ar      1 <0>        -0.1605
     13 C11        -2.0826   -5.2228   -2.0105 C.ar      1 <0>        -0.0272
     14 C12        -3.3011   -5.8720   -2.1130 C.ar      1 <0>        -0.0928
     15 C13        -4.0718   -6.0859   -0.9866 C.ar      1 <0>        -0.0339
     16 C14        -3.6260   -5.6504    0.2470 C.ar      1 <0>        -0.1742
     17 C15        -2.4105   -5.0021    0.3513 C.ar      1 <0>        -0.0334
     18 C16        -4.4649   -5.8826    1.4772 C.3       1 <0>         0.5081
     19 F1         -5.6404   -6.5520    1.1204 F         1 <0>        -0.1687
     20 F2         -3.7457   -6.6587    2.3924 F         1 <0>        -0.1698
     21 F3         -4.7874   -4.6527    2.0607 F         1 <0>        -0.1732
     22 N1         -0.4445   -2.6526   -0.8989 N.4       1 <0>        -0.4018
     23 C17        -1.1751   -2.2243    0.3021 C.3       1 <0>        -0.0047
     24 C18        -1.3844   -0.7089    0.2552 C.3       1 <0>         0.0249
     25 N2         -0.0792   -0.0391    0.1695 N.3       1 <0>        -0.5286
     26 C19         0.6515   -0.4675   -1.0315 C.3       1 <0>         0.0269
     27 C20         0.8608   -1.9829   -0.9846 C.3       1 <0>        -0.0015
     28 C21        -0.2340    1.4214    0.1986 C.3       1 <0>         0.0527
     29 C22        -0.5431    1.8731    1.6274 C.3       1 <0>         0.0888
     30 O1          0.5720    1.5796    2.4715 O.3       1 <0>        -0.5933
     31 F4         -0.3074   -9.2167   -6.5627 F         1 <0>        -0.1307
     32 H3         -0.2400   -7.3667   -2.4574 H         1 <0>         0.1306
     33 H4          0.0824   -9.2734   -3.9812 H         1 <0>         0.1411
     34 H5         -1.1035   -6.8347   -7.2782 H         1 <0>         0.1423
     35 H6         -1.4356   -4.9334   -5.7498 H         1 <0>         0.1352
     36 H7          0.8519   -5.4804   -2.2483 H         1 <0>         0.1277
     37 H8          0.8014   -3.7815   -2.8294 H         1 <0>         0.1103
     38 H9         -3.6501   -6.2126   -3.0766 H         1 <0>         0.1466
     39 H10        -5.0219   -6.5926   -1.0699 H         1 <0>         0.1549
     40 H11        -2.0628   -4.6621    1.3156 H         1 <0>         0.1428
     41 H12        -2.1516   -2.7294    0.3368 H         1 <0>         0.1337
     42 H13        -0.5940   -2.4877    1.1982 H         1 <0>         0.1375
     43 H14        -1.9893   -0.4494   -0.6261 H         1 <0>         0.0595
     44 H15        -1.9060   -0.3824    1.1670 H         1 <0>         0.1226
     45 H16         0.0704   -0.2042   -1.9276 H         1 <0>         0.0592
     46 H17         1.6281    0.0376   -1.0662 H         1 <0>         0.1254
     47 H18         1.4652   -2.2435   -0.1032 H         1 <0>         0.1390
     48 H19         1.3818   -2.3105   -1.8963 H         1 <0>         0.1377
     49 H20         0.6980    1.8958   -0.1424 H         1 <0>         0.0946
     50 H21        -1.0597    1.7159   -0.4658 H         1 <0>         0.0631
     51 H22        -0.7346    2.9563    1.6362 H         1 <0>         0.0538
     52 H23        -1.4322    1.3406    1.9961 H         1 <0>         0.0407
     53 H24         0.5342    1.8341    3.5410 H         1 <0>         0.4149
     54 H25        -1.0355   -2.3588   -1.7789 H         1 <0>         0.4323
@<TRIPOS>BOND
     1    1    6 ar
     2    1    2 ar
     3    1   32 1
     4    2    3 ar
     5    2   33 1
     6    3    4 ar
     7    3   31 1
     8    4    5 ar
     9    4   34 1
    10    5    6 ar
    11    5   35 1
    12    6    7 1
    13    7    8 1
    14    7   13 1
    15    7    9 1
    16    9   10 1
    17    9   36 1
    18    9   37 1
    19   10   11 1
    20   10   12 1
    21   10   22 1
    22   12   17 ar
    23   12   13 ar
    24   13   14 ar
    25   14   15 ar
    26   14   38 1
    27   15   16 ar
    28   15   39 1
    29   16   17 ar
    30   16   18 1
    31   17   40 1
    32   18   19 1
    33   18   20 1
    34   18   21 1
    35   22   27 1
    36   22   23 1
    37   22   54 1
    38   23   24 1
    39   23   41 1
    40   23   42 1
    41   24   25 1
    42   24   43 1
    43   24   44 1
    44   25   26 1
    45   25   28 1
    46   26   27 1
    47   26   45 1
    48   26   46 1
    49   27   47 1
    50   27   48 1
    51   28   29 1
    52   28   49 1
    53   28   50 1
    54   29   30 1
    55   29   51 1
    56   29   52 1
    57   30   53 1
@<TRIPOS>MOLECULE
ZINC22463345
   53    56     0     0     0
SMALL
USER_CHARGES
2-[4-[(1R,3S)-3-(4-fluorophenyl)-6-(trifluoromethyl)indan-1-yl]piperazin-1-yl]ethanol
@<TRIPOS>ATOM
      1 C1         -0.4317   -7.2518   -3.5141 C.ar      1 <0>        -0.0804
      2 C2         -0.2506   -8.3222   -4.3693 C.ar      1 <0>        -0.1507
      3 C3         -0.4902   -8.1728   -5.7248 C.ar      1 <0>         0.0982
      4 C4         -0.9167   -6.9525   -6.2210 C.ar      1 <0>        -0.1513
      5 C5         -1.1029   -5.8853   -5.3630 C.ar      1 <0>        -0.0833
      6 C6         -0.8630   -6.0355   -4.0098 C.ar      1 <0>        -0.0940
      7 C7         -1.0660   -4.8708   -3.0753 C.3       1 <0>        -0.0064
      8 H1         -1.4064   -4.0308   -3.6986 H         1 <0>         0.1064
      9 C8          0.2397   -4.5683   -2.3046 C.3       1 <0>        -0.1017
     10 C9         -0.2897   -4.1132   -0.9280 C.3       1 <0>         0.1294
     11 H2          0.3887   -4.3445   -0.0935 H         1 <0>         0.0598
     12 C10        -1.6365   -4.7872   -0.7764 C.ar      1 <0>        -0.0880
     13 C11        -2.0826   -5.2228   -2.0105 C.ar      1 <0>        -0.0359
     14 C12        -3.3011   -5.8720   -2.1130 C.ar      1 <0>        -0.1021
     15 C13        -4.0718   -6.0859   -0.9866 C.ar      1 <0>        -0.0650
     16 C14        -3.6260   -5.6504    0.2470 C.ar      1 <0>        -0.1829
     17 C15        -2.4105   -5.0021    0.3513 C.ar      1 <0>        -0.0510
     18 C16        -4.4649   -5.8826    1.4772 C.3       1 <0>         0.5095
     19 F1         -5.6404   -6.5520    1.1204 F         1 <0>        -0.1760
     20 F2         -3.7457   -6.6587    2.3924 F         1 <0>        -0.1760
     21 F3         -4.7874   -4.6527    2.0607 F         1 <0>        -0.1761
     22 N1         -0.4445   -2.6526   -0.8989 N.3       1 <0>        -0.5345
     23 C17        -1.1751   -2.2243    0.3021 C.3       1 <0>         0.0530
     24 C18        -1.3844   -0.7089    0.2552 C.3       1 <0>         0.0562
     25 N2         -0.0792   -0.0391    0.1695 N.3       1 <0>        -0.5290
     26 C19         0.6515   -0.4675   -1.0315 C.3       1 <0>         0.0579
     27 C20         0.8608   -1.9829   -0.9846 C.3       1 <0>         0.0559
     28 C21        -0.2340    1.4214    0.1986 C.3       1 <0>         0.0531
     29 C22        -0.5431    1.8731    1.6274 C.3       1 <0>         0.0918
     30 O1          0.5720    1.5796    2.4715 O.3       1 <0>        -0.5880
     31 F4         -0.3074   -9.2167   -6.5627 F         1 <0>        -0.1391
     32 H3         -0.2400   -7.3667   -2.4574 H         1 <0>         0.1309
     33 H4          0.0824   -9.2734   -3.9812 H         1 <0>         0.1358
     34 H5         -1.1035   -6.8347   -7.2782 H         1 <0>         0.1365
     35 H6         -1.4356   -4.9334   -5.7498 H         1 <0>         0.1338
     36 H7          0.8519   -5.4804   -2.2483 H         1 <0>         0.0858
     37 H8          0.8014   -3.7815   -2.8294 H         1 <0>         0.0919
     38 H9         -3.6501   -6.2126   -3.0766 H         1 <0>         0.1333
     39 H10        -5.0219   -6.5926   -1.0699 H         1 <0>         0.1415
     40 H11        -2.0628   -4.6621    1.3156 H         1 <0>         0.1310
     41 H12        -2.1516   -2.7294    0.3368 H         1 <0>         0.0835
     42 H13        -0.5940   -2.4877    1.1982 H         1 <0>         0.0442
     43 H14        -1.9893   -0.4494   -0.6261 H         1 <0>         0.0417
     44 H15        -1.9060   -0.3824    1.1670 H         1 <0>         0.0789
     45 H16         0.0704   -0.2042   -1.9276 H         1 <0>         0.0417
     46 H17         1.6281    0.0376   -1.0662 H         1 <0>         0.0814
     47 H18         1.4652   -2.2435   -0.1032 H         1 <0>         0.0460
     48 H19         1.3818   -2.3105   -1.8963 H         1 <0>         0.0843
     49 H20         0.6980    1.8958   -0.1424 H         1 <0>         0.0811
     50 H21        -1.0597    1.7159   -0.4658 H         1 <0>         0.0514
     51 H22        -0.7346    2.9563    1.6362 H         1 <0>         0.0432
     52 H23        -1.4322    1.3406    1.9961 H         1 <0>         0.0398
     53 H24         0.5342    1.8341    3.5410 H         1 <0>         0.4028
@<TRIPOS>BOND
     1    1    6 ar
     2    1    2 ar
     3    1   32 1
     4    2    3 ar
     5    2   33 1
     6    3    4 ar
     7    3   31 1
     8    4    5 ar
     9    4   34 1
    10    5    6 ar
    11    5   35 1
    12    6    7 1
    13    7    8 1
    14    7   13 1
    15    7    9 1
    16    9   10 1
    17    9   36 1
    18    9   37 1
    19   10   11 1
    20   10   12 1
    21   10   22 1
    22   12   17 ar
    23   12   13 ar
    24   13   14 ar
    25   14   15 ar
    26   14   38 1
    27   15   16 ar
    28   15   39 1
    29   16   17 ar
    30   16   18 1
    31   17   40 1
    32   18   19 1
    33   18   20 1
    34   18   21 1
    35   22   27 1
    36   22   23 1
    37   23   24 1
    38   23   41 1
    39   23   42 1
    40   24   25 1
    41   24   43 1
    42   24   44 1
    43   25   26 1
    44   25   28 1
    45   26   27 1
    46   26   45 1
    47   26   46 1
    48   27   47 1
    49   27   48 1
    50   28   29 1
    51   28   49 1
    52   28   50 1
    53   29   30 1
    54   29   51 1
    55   29   52 1
    56   30   53 1
@<TRIPOS>MOLECULE
ZINC22937852
   54    57     0     0     0
SMALL
USER_CHARGES
2-[4-[(1S,3S)-3-(4-fluorophenyl)-6-(trifluoromethyl)indan-1-yl]piperazin-1-yl]ethanol
@<TRIPOS>ATOM
      1 C1         -0.6994    2.2254   -1.0171 C.ar      1 <0>        -0.0841
      2 C2         -0.6562    3.5975   -1.1765 C.ar      1 <0>        -0.1493
      3 C3          0.5578    4.2329   -1.3756 C.ar      1 <0>         0.1140
      4 C4          1.7277    3.4932   -1.4094 C.ar      1 <0>        -0.1465
      5 C5          1.6826    2.1218   -1.2445 C.ar      1 <0>        -0.0752
      6 C6          0.4699    1.4885   -1.0458 C.ar      1 <0>        -0.1121
      7 C7          0.4219   -0.0070   -0.8665 C.3       1 <0>        -0.0110
      8 H1          1.4622   -0.3591   -0.9285 H         1 <0>         0.1232
      9 C8         -0.4986   -0.6445   -1.9289 C.3       1 <0>        -0.1345
     10 C9         -1.1351   -1.8181   -1.1545 C.3       1 <0>         0.1001
     11 H2         -0.6347   -2.7832   -1.3221 H         1 <0>         0.1522
     12 C10        -1.1030   -1.3974    0.2992 C.ar      1 <0>        -0.1590
     13 C11        -0.2081   -0.3565    0.4647 C.ar      1 <0>        -0.0217
     14 C12        -0.0135    0.1918    1.7210 C.ar      1 <0>        -0.0897
     15 C13        -0.7104   -0.2977    2.8088 C.ar      1 <0>        -0.0385
     16 C14        -1.6050   -1.3382    2.6433 C.ar      1 <0>        -0.1702
     17 C15        -1.8005   -1.8866    1.3905 C.ar      1 <0>        -0.0468
     18 C16        -2.3667   -1.8736    3.8283 C.3       1 <0>         0.5081
     19 F1         -2.0017   -1.1633    4.9769 F         1 <0>        -0.1682
     20 F2         -3.7399   -1.7260    3.6053 F         1 <0>        -0.1739
     21 F3         -2.0656   -3.2287    4.0026 F         1 <0>        -0.1708
     22 N1         -2.5210   -2.0290   -1.5936 N.4       1 <0>        -0.4042
     23 C17        -2.5661   -2.5157   -2.9795 C.3       1 <0>        -0.0003
     24 C18        -4.0185   -2.7979   -3.3712 C.3       1 <0>         0.0262
     25 N2         -4.8111   -1.5696   -3.2213 N.3       1 <0>        -0.5277
     26 C19        -4.7660   -1.0829   -1.8354 C.3       1 <0>         0.0246
     27 C20        -3.3137   -0.8006   -1.4437 C.3       1 <0>        -0.0083
     28 C21        -6.1970   -1.7805   -3.6604 C.3       1 <0>         0.0526
     29 C22        -6.8494   -0.4287   -3.9568 C.3       1 <0>         0.0890
     30 O1         -6.1670    0.2017   -5.0426 O.3       1 <0>        -0.5928
     31 F4          0.6007    5.5736   -1.5363 F         1 <0>        -0.1309
     32 H3         -1.6467    1.7291   -0.8659 H         1 <0>         0.1232
     33 H4         -1.5695    4.1735   -1.1499 H         1 <0>         0.1398
     34 H5          2.6752    3.9877   -1.5650 H         1 <0>         0.1432
     35 H6          2.5951    1.5447   -1.2705 H         1 <0>         0.1379
     36 H7         -1.2381    0.0969   -2.2657 H         1 <0>         0.1082
     37 H8          0.1055   -0.9755   -2.7865 H         1 <0>         0.1181
     38 H9          0.6851    1.0051    1.8510 H         1 <0>         0.1471
     39 H10        -0.5566    0.1324    3.7874 H         1 <0>         0.1546
     40 H11        -2.4999   -2.6994    1.2619 H         1 <0>         0.1355
     41 H12        -2.1462   -1.7516   -3.6503 H         1 <0>         0.1386
     42 H13        -1.9765   -3.4406   -3.0627 H         1 <0>         0.1384
     43 H14        -4.0572   -3.1350   -4.4176 H         1 <0>         0.1254
     44 H15        -4.4287   -3.5821   -2.7180 H         1 <0>         0.0597
     45 H16        -5.3556   -0.1580   -1.7522 H         1 <0>         0.1216
     46 H17        -5.1858   -1.8469   -1.1646 H         1 <0>         0.0600
     47 H18        -3.2739   -0.4640   -0.3972 H         1 <0>         0.1330
     48 H19        -2.9025   -0.0168   -2.0968 H         1 <0>         0.1383
     49 H20        -6.2033   -2.3981   -4.5706 H         1 <0>         0.0945
     50 H21        -6.7595   -2.2927   -2.8659 H         1 <0>         0.0634
     51 H22        -7.9047   -0.5822   -4.2266 H         1 <0>         0.0538
     52 H23        -6.7885    0.2114   -3.0643 H         1 <0>         0.0402
     53 H24        -6.4961    1.1885   -5.4003 H         1 <0>         0.4144
     54 H25        -2.9651   -2.8009   -0.9479 H         1 <0>         0.4369
@<TRIPOS>BOND
     1    1    6 ar
     2    1    2 ar
     3    1   32 1
     4    2    3 ar
     5    2   33 1
     6    3    4 ar
     7    3   31 1
     8    4    5 ar
     9    4   34 1
    10    5    6 ar
    11    5   35 1
    12    6    7 1
    13    7    8 1
    14    7   13 1
    15    7    9 1
    16    9   10 1
    17    9   36 1
    18    9   37 1
    19   10   11 1
    20   10   12 1
    21   10   22 1
    22   12   17 ar
    23   12   13 ar
    24   13   14 ar
    25   14   15 ar
    26   14   38 1
    27   15   16 ar
    28   15   39 1
    29   16   17 ar
    30   16   18 1
    31   17   40 1
    32   18   19 1
    33   18   20 1
    34   18   21 1
    35   22   27 1
    36   22   23 1
    37   22   54 1
    38   23   24 1
    39   23   41 1
    40   23   42 1
    41   24   25 1
    42   24   43 1
    43   24   44 1
    44   25   26 1
    45   25   28 1
    46   26   27 1
    47   26   45 1
    48   26   46 1
    49   27   47 1
    50   27   48 1
    51   28   29 1
    52   28   49 1
    53   28   50 1
    54   29   30 1
    55   29   51 1
    56   29   52 1
    57   30   53 1
@<TRIPOS>MOLECULE
ZINC22937852
   53    56     0     0     0
SMALL
USER_CHARGES
2-[4-[(1S,3S)-3-(4-fluorophenyl)-6-(trifluoromethyl)indan-1-yl]piperazin-1-yl]ethanol
@<TRIPOS>ATOM
      1 C1         -0.6994    2.2254   -1.0171 C.ar      1 <0>        -0.0792
      2 C2         -0.6562    3.5975   -1.1765 C.ar      1 <0>        -0.1500
      3 C3          0.5578    4.2329   -1.3756 C.ar      1 <0>         0.0989
      4 C4          1.7277    3.4932   -1.4094 C.ar      1 <0>        -0.1509
      5 C5          1.6826    2.1218   -1.2445 C.ar      1 <0>        -0.0841
      6 C6          0.4699    1.4885   -1.0458 C.ar      1 <0>        -0.0926
      7 C7          0.4219   -0.0070   -0.8665 C.3       1 <0>        -0.0117
      8 H1          1.4622   -0.3591   -0.9285 H         1 <0>         0.1049
      9 C8         -0.4986   -0.6445   -1.9289 C.3       1 <0>        -0.1444
     10 C9         -1.1351   -1.8181   -1.1545 C.3       1 <0>         0.1286
     11 H2         -0.6347   -2.7832   -1.3221 H         1 <0>         0.1076
     12 C10        -1.1030   -1.3974    0.2992 C.ar      1 <0>        -0.0850
     13 C11        -0.2081   -0.3565    0.4647 C.ar      1 <0>        -0.0520
     14 C12        -0.0135    0.1918    1.7210 C.ar      1 <0>        -0.1016
     15 C13        -0.7104   -0.2977    2.8088 C.ar      1 <0>        -0.0677
     16 C14        -1.6050   -1.3382    2.6433 C.ar      1 <0>        -0.1843
     17 C15        -1.8005   -1.8866    1.3905 C.ar      1 <0>        -0.0361
     18 C16        -2.3667   -1.8736    3.8283 C.3       1 <0>         0.5096
     19 F1         -2.0017   -1.1633    4.9769 F         1 <0>        -0.1770
     20 F2         -3.7399   -1.7260    3.6053 F         1 <0>        -0.1761
     21 F3         -2.0656   -3.2287    4.0026 F         1 <0>        -0.1758
     22 N1         -2.5210   -2.0290   -1.5936 N.3       1 <0>        -0.5312
     23 C17        -2.5661   -2.5157   -2.9795 C.3       1 <0>         0.0556
     24 C18        -4.0185   -2.7979   -3.3712 C.3       1 <0>         0.0566
     25 N2         -4.8111   -1.5696   -3.2213 N.3       1 <0>        -0.5277
     26 C19        -4.7660   -1.0829   -1.8354 C.3       1 <0>         0.0545
     27 C20        -3.3137   -0.8006   -1.4437 C.3       1 <0>         0.0510
     28 C21        -6.1970   -1.7805   -3.6604 C.3       1 <0>         0.0528
     29 C22        -6.8494   -0.4287   -3.9568 C.3       1 <0>         0.0921
     30 O1         -6.1670    0.2017   -5.0426 O.3       1 <0>        -0.5874
     31 F4          0.6007    5.5736   -1.5363 F         1 <0>        -0.1387
     32 H3         -1.6467    1.7291   -0.8659 H         1 <0>         0.1285
     33 H4         -1.5695    4.1735   -1.1499 H         1 <0>         0.1358
     34 H5          2.6752    3.9877   -1.5650 H         1 <0>         0.1369
     35 H6          2.5951    1.5447   -1.2705 H         1 <0>         0.1339
     36 H7         -1.2381    0.0969   -2.2657 H         1 <0>         0.0914
     37 H8          0.1055   -0.9755   -2.7865 H         1 <0>         0.0861
     38 H9          0.6851    1.0051    1.8510 H         1 <0>         0.1323
     39 H10        -0.5566    0.1324    3.7874 H         1 <0>         0.1406
     40 H11        -2.4999   -2.6994    1.2619 H         1 <0>         0.1364
     41 H12        -2.1462   -1.7516   -3.6503 H         1 <0>         0.0491
     42 H13        -1.9765   -3.4406   -3.0627 H         1 <0>         0.0822
     43 H14        -4.0572   -3.1350   -4.4176 H         1 <0>         0.0813
     44 H15        -4.4287   -3.5821   -2.7180 H         1 <0>         0.0418
     45 H16        -5.3556   -0.1580   -1.7522 H         1 <0>         0.0777
     46 H17        -5.1858   -1.8469   -1.1646 H         1 <0>         0.0416
     47 H18        -3.2739   -0.4640   -0.3972 H         1 <0>         0.0790
     48 H19        -2.9025   -0.0168   -2.0968 H         1 <0>         0.0498
     49 H20        -6.2033   -2.3981   -4.5706 H         1 <0>         0.0810
     50 H21        -6.7595   -2.2927   -2.8659 H         1 <0>         0.0516
     51 H22        -7.9047   -0.5822   -4.2266 H         1 <0>         0.0431
     52 H23        -6.7885    0.2114   -3.0643 H         1 <0>         0.0392
     53 H24        -6.4961    1.1885   -5.4003 H         1 <0>         0.4023
@<TRIPOS>BOND
     1    1    6 ar
     2    1    2 ar
     3    1   32 1
     4    2    3 ar
     5    2   33 1
     6    3    4 ar
     7    3   31 1
     8    4    5 ar
     9    4   34 1
    10    5    6 ar
    11    5   35 1
    12    6    7 1
    13    7    8 1
    14    7   13 1
    15    7    9 1
    16    9   10 1
    17    9   36 1
    18    9   37 1
    19   10   11 1
    20   10   12 1
    21   10   22 1
    22   12   17 ar
    23   12   13 ar
    24   13   14 ar
    25   14   15 ar
    26   14   38 1
    27   15   16 ar
    28   15   39 1
    29   16   17 ar
    30   16   18 1
    31   17   40 1
    32   18   19 1
    33   18   20 1
    34   18   21 1
    35   22   27 1
    36   22   23 1
    37   23   24 1
    38   23   41 1
    39   23   42 1
    40   24   25 1
    41   24   43 1
    42   24   44 1
    43   25   26 1
    44   25   28 1
    45   26   27 1
    46   26   45 1
    47   26   46 1
    48   27   47 1
    49   27   48 1
    50   28   29 1
    51   28   49 1
    52   28   50 1
    53   29   30 1
    54   29   51 1
    55   29   52 1
    56   30   53 1
@<TRIPOS>MOLECULE
ZINC22937855
   54    57     0     0     0
SMALL
USER_CHARGES
2-[4-[(1R,3R)-3-(4-fluorophenyl)-6-(trifluoromethyl)indan-1-yl]piperazin-1-yl]ethanol
@<TRIPOS>ATOM
      1 C1         -0.5753    4.7457    2.8158 C.ar      1 <0>        -0.0838
      2 C2         -0.9754    5.8159    3.5933 C.ar      1 <0>        -0.1492
      3 C3         -0.9811    5.7045    4.9734 C.ar      1 <0>         0.1141
      4 C4         -0.5917    4.5186    5.5727 C.ar      1 <0>        -0.1467
      5 C5         -0.1978    3.4477    4.7929 C.ar      1 <0>        -0.0754
      6 C6         -0.1921    3.5603    3.4151 C.ar      1 <0>        -0.1125
      7 C7          0.2381    2.3920    2.5660 C.3       1 <0>        -0.0108
      8 H1          0.4988    1.5825    3.2637 H         1 <0>         0.1230
      9 C8         -0.8842    2.0048    1.5797 C.3       1 <0>        -0.1340
     10 C9         -0.0906    1.5546    0.3348 C.3       1 <0>         0.1002
     11 H2          0.0480    0.4654    0.2673 H         1 <0>         0.1520
     12 C10         1.2251    2.2990    0.4131 C.ar      1 <0>        -0.1590
     13 C11         1.4140    2.7803    1.6954 C.ar      1 <0>        -0.0217
     14 C12         2.5586    3.4969    2.0009 C.ar      1 <0>        -0.0896
     15 C13         3.5116    3.7322    1.0289 C.ar      1 <0>        -0.0364
     16 C14         3.3228    3.2511   -0.2529 C.ar      1 <0>        -0.1702
     17 C15         2.1814    2.5358   -0.5597 C.ar      1 <0>        -0.0484
     18 C16         4.3612    3.5060   -1.3149 C.3       1 <0>         0.5081
     19 F1          4.0695    4.7050   -1.9740 F         1 <0>        -0.1709
     20 F2          5.6242    3.5963   -0.7199 F         1 <0>        -0.1677
     21 F3          4.3540    2.4535   -2.2364 F         1 <0>        -0.1743
     22 N1         -0.8113    1.9211   -0.8917 N.4       1 <0>        -0.4042
     23 C17        -1.0422    3.3711   -0.9535 C.3       1 <0>        -0.0090
     24 C18        -1.7226    3.7206   -2.2791 C.3       1 <0>         0.0284
     25 N2         -2.9895    2.9835   -2.3857 N.3       1 <0>        -0.5277
     26 C19        -2.7587    1.5335   -2.3238 C.3       1 <0>         0.0223
     27 C20        -2.0782    1.1840   -0.9982 C.3       1 <0>         0.0006
     28 C21        -3.7103    3.3500   -3.6121 C.3       1 <0>         0.0524
     29 C22        -5.1857    2.9711   -3.4691 C.3       1 <0>         0.0894
     30 O1         -5.7717    3.7295   -2.4091 O.3       1 <0>        -0.5930
     31 F4         -1.3659    6.7521    5.7346 F         1 <0>        -0.1308
     32 H3         -0.5659    4.8341    1.7395 H         1 <0>         0.1236
     33 H4         -1.2786    6.7405    3.1247 H         1 <0>         0.1401
     34 H5         -0.5954    4.4306    6.6491 H         1 <0>         0.1430
     35 H6          0.1060    2.5226    5.2602 H         1 <0>         0.1377
     36 H7         -1.4920    1.1976    2.0144 H         1 <0>         0.1178
     37 H8         -1.5214    2.8805    1.3871 H         1 <0>         0.1081
     38 H9          2.7070    3.8729    3.0024 H         1 <0>         0.1471
     39 H10         4.4035    4.2912    1.2705 H         1 <0>         0.1523
     40 H11         2.0344    2.1605   -1.5616 H         1 <0>         0.1375
     41 H12        -1.6885    3.6754   -0.1171 H         1 <0>         0.1380
     42 H13        -0.0796    3.8990   -0.8839 H         1 <0>         0.1335
     43 H14        -1.9221    4.8018   -2.3149 H         1 <0>         0.1236
     44 H15        -1.0635    3.4415   -3.1144 H         1 <0>         0.0594
     45 H16        -3.7213    1.0057   -2.3932 H         1 <0>         0.1233
     46 H17        -2.1125    1.2290   -3.1603 H         1 <0>         0.0603
     47 H18        -1.8777    0.1031   -0.9616 H         1 <0>         0.1379
     48 H19        -2.7363    1.4633   -0.1622 H         1 <0>         0.1382
     49 H20        -3.6245    4.4341   -3.7777 H         1 <0>         0.0941
     50 H21        -3.2750    2.8128   -4.4677 H         1 <0>         0.0635
     51 H22        -5.7128    3.1879   -4.4099 H         1 <0>         0.0537
     52 H23        -5.2683    1.8981   -3.2414 H         1 <0>         0.0406
     53 H24        -6.8335    3.5924   -2.1565 H         1 <0>         0.4145
     54 H25        -0.1818    1.6405   -1.7490 H         1 <0>         0.4372
@<TRIPOS>BOND
     1    1    6 ar
     2    1    2 ar
     3    1   32 1
     4    2    3 ar
     5    2   33 1
     6    3    4 ar
     7    3   31 1
     8    4    5 ar
     9    4   34 1
    10    5    6 ar
    11    5   35 1
    12    6    7 1
    13    7    8 1
    14    7   13 1
    15    7    9 1
    16    9   10 1
    17    9   36 1
    18    9   37 1
    19   10   11 1
    20   10   12 1
    21   10   22 1
    22   12   17 ar
    23   12   13 ar
    24   13   14 ar
    25   14   15 ar
    26   14   38 1
    27   15   16 ar
    28   15   39 1
    29   16   17 ar
    30   16   18 1
    31   17   40 1
    32   18   19 1
    33   18   20 1
    34   18   21 1
    35   22   27 1
    36   22   23 1
    37   22   54 1
    38   23   24 1
    39   23   41 1
    40   23   42 1
    41   24   25 1
    42   24   43 1
    43   24   44 1
    44   25   26 1
    45   25   28 1
    46   26   27 1
    47   26   45 1
    48   26   46 1
    49   27   47 1
    50   27   48 1
    51   28   29 1
    52   28   49 1
    53   28   50 1
    54   29   30 1
    55   29   51 1
    56   29   52 1
    57   30   53 1
@<TRIPOS>MOLECULE
ZINC22937855
   53    56     0     0     0
SMALL
USER_CHARGES
2-[4-[(1R,3R)-3-(4-fluorophenyl)-6-(trifluoromethyl)indan-1-yl]piperazin-1-yl]ethanol
@<TRIPOS>ATOM
      1 C1         -0.5753    4.7457    2.8158 C.ar      1 <0>        -0.0789
      2 C2         -0.9754    5.8159    3.5933 C.ar      1 <0>        -0.1497
      3 C3         -0.9811    5.7045    4.9734 C.ar      1 <0>         0.0990
      4 C4         -0.5917    4.5186    5.5727 C.ar      1 <0>        -0.1511
      5 C5         -0.1978    3.4477    4.7929 C.ar      1 <0>        -0.0844
      6 C6         -0.1921    3.5603    3.4151 C.ar      1 <0>        -0.0930
      7 C7          0.2381    2.3920    2.5660 C.3       1 <0>        -0.0116
      8 H1          0.4988    1.5825    3.2637 H         1 <0>         0.1049
      9 C8         -0.8842    2.0048    1.5797 C.3       1 <0>        -0.1437
     10 C9         -0.0906    1.5546    0.3348 C.3       1 <0>         0.1287
     11 H2          0.0480    0.4654    0.2673 H         1 <0>         0.1076
     12 C10         1.2251    2.2990    0.4131 C.ar      1 <0>        -0.0856
     13 C11         1.4140    2.7803    1.6954 C.ar      1 <0>        -0.0519
     14 C12         2.5586    3.4969    2.0009 C.ar      1 <0>        -0.1014
     15 C13         3.5116    3.7322    1.0289 C.ar      1 <0>        -0.0654
     16 C14         3.3228    3.2511   -0.2529 C.ar      1 <0>        -0.1841
     17 C15         2.1814    2.5358   -0.5597 C.ar      1 <0>        -0.0382
     18 C16         4.3612    3.5060   -1.3149 C.3       1 <0>         0.5095
     19 F1          4.0695    4.7050   -1.9740 F         1 <0>        -0.1762
     20 F2          5.6242    3.5963   -0.7199 F         1 <0>        -0.1767
     21 F3          4.3540    2.4535   -2.2364 F         1 <0>        -0.1760
     22 N1         -0.8113    1.9211   -0.8917 N.3       1 <0>        -0.5310
     23 C17        -1.0422    3.3711   -0.9535 C.3       1 <0>         0.0502
     24 C18        -1.7226    3.7206   -2.2791 C.3       1 <0>         0.0568
     25 N2         -2.9895    2.9835   -2.3857 N.3       1 <0>        -0.5277
     26 C19        -2.7587    1.5335   -2.3238 C.3       1 <0>         0.0542
     27 C20        -2.0782    1.1840   -0.9982 C.3       1 <0>         0.0562
     28 C21        -3.7103    3.3500   -3.6121 C.3       1 <0>         0.0526
     29 C22        -5.1857    2.9711   -3.4691 C.3       1 <0>         0.0924
     30 O1         -5.7717    3.7295   -2.4091 O.3       1 <0>        -0.5876
     31 F4         -1.3659    6.7521    5.7346 F         1 <0>        -0.1386
     32 H3         -0.5659    4.8341    1.7395 H         1 <0>         0.1288
     33 H4         -1.2786    6.7405    3.1247 H         1 <0>         0.1361
     34 H5         -0.5954    4.4306    6.6491 H         1 <0>         0.1368
     35 H6          0.1060    2.5226    5.2602 H         1 <0>         0.1338
     36 H7         -1.4920    1.1976    2.0144 H         1 <0>         0.0859
     37 H8         -1.5214    2.8805    1.3871 H         1 <0>         0.0908
     38 H9          2.7070    3.8729    3.0024 H         1 <0>         0.1324
     39 H10         4.4035    4.2912    1.2705 H         1 <0>         0.1381
     40 H11         2.0344    2.1605   -1.5616 H         1 <0>         0.1388
     41 H12        -1.6885    3.6754   -0.1171 H         1 <0>         0.0494
     42 H13        -0.0796    3.8990   -0.8839 H         1 <0>         0.0798
     43 H14        -1.9221    4.8018   -2.3149 H         1 <0>         0.0796
     44 H15        -1.0635    3.4415   -3.1144 H         1 <0>         0.0413
     45 H16        -3.7213    1.0057   -2.3932 H         1 <0>         0.0793
     46 H17        -2.1125    1.2290   -3.1603 H         1 <0>         0.0421
     47 H18        -1.8777    0.1031   -0.9616 H         1 <0>         0.0816
     48 H19        -2.7363    1.4633   -0.1622 H         1 <0>         0.0489
     49 H20        -3.6245    4.4341   -3.7777 H         1 <0>         0.0806
     50 H21        -3.2750    2.8128   -4.4677 H         1 <0>         0.0517
     51 H22        -5.7128    3.1879   -4.4099 H         1 <0>         0.0430
     52 H23        -5.2683    1.8981   -3.2414 H         1 <0>         0.0395
     53 H24        -6.8335    3.5924   -2.1565 H         1 <0>         0.4024
@<TRIPOS>BOND
     1    1    6 ar
     2    1    2 ar
     3    1   32 1
     4    2    3 ar
     5    2   33 1
     6    3    4 ar
     7    3   31 1
     8    4    5 ar
     9    4   34 1
    10    5    6 ar
    11    5   35 1
    12    6    7 1
    13    7    8 1
    14    7   13 1
    15    7    9 1
    16    9   10 1
    17    9   36 1
    18    9   37 1
    19   10   11 1
    20   10   12 1
    21   10   22 1
    22   12   17 ar
    23   12   13 ar
    24   13   14 ar
    25   14   15 ar
    26   14   38 1
    27   15   16 ar
    28   15   39 1
    29   16   17 ar
    30   16   18 1
    31   17   40 1
    32   18   19 1
    33   18   20 1
    34   18   21 1
    35   22   27 1
    36   22   23 1
    37   23   24 1
    38   23   41 1
    39   23   42 1
    40   24   25 1
    41   24   43 1
    42   24   44 1
    43   25   26 1
    44   25   28 1
    45   26   27 1
    46   26   45 1
    47   26   46 1
    48   27   47 1
    49   27   48 1
    50   28   29 1
    51   28   49 1
    52   28   50 1
    53   29   30 1
    54   29   51 1
    55   29   52 1
    56   30   53 1
@<TRIPOS>MOLECULE
ZINC22061171
   53    56     0     0     0
SMALL
USER_CHARGES
6-[4-[2-(2-hydroxyethoxy)ethyl]piperazin-1-yl]benzo[b][1,5]benzothiazepin-2-ol
@<TRIPOS>ATOM
      1 C1         -1.6997   -2.5579    1.3150 C.ar      1 <0>        -0.1070
      2 C2         -1.0487   -3.4984    0.5360 C.ar      1 <0>        -0.0968
      3 C3         -0.1654   -3.0919   -0.4477 C.ar      1 <0>        -0.0794
      4 C4          0.0692   -1.7426   -0.6534 C.ar      1 <0>        -0.0892
      5 C5         -0.5812   -0.7825    0.1332 C.ar      1 <0>        -0.0858
      6 C6         -1.4727   -1.2113    1.1222 C.ar      1 <0>        -0.0872
      7 C7         -0.3471    0.6505   -0.0568 C.2       1 <0>         0.5143
      8 N1          0.7440    1.2709   -0.2387 N.2       1 <0>        -0.6049
      9 C8          2.0269    0.8300   -0.2888 C.ar      1 <0>         0.1680
     10 C9          3.0080    1.5353    0.4178 C.ar      1 <0>        -0.0868
     11 C10         4.3240    1.1216    0.3864 C.ar      1 <0>        -0.1196
     12 C11         4.6886    0.0021   -0.3466 C.ar      1 <0>         0.1330
     13 C12         3.7243   -0.7079   -1.0506 C.ar      1 <0>        -0.1487
     14 C13         2.4023   -0.3005   -1.0213 C.ar      1 <0>        -0.1401
     15 S1          1.1895   -1.2208   -1.9110 S.3       1 <0>        -0.0259
     16 O1          5.9870   -0.3998   -0.3758 O.3       1 <0>        -0.5081
     17 N2         -1.4756    1.4402   -0.0285 N.pl3     1 <0>        -0.5971
     18 C14        -1.3710    2.9072   -0.0461 C.3       1 <0>         0.1260
     19 C15        -2.2839    3.4421   -1.1609 C.3       1 <0>         0.0376
     20 N3         -3.6428    2.9191   -0.9671 N.3       1 <0>        -0.5304
     21 C16        -3.6723    1.4552   -1.0856 C.3       1 <0>         0.0382
     22 C17        -2.8167    0.8387    0.0262 C.3       1 <0>         0.1103
     23 C18        -4.5856    3.5423   -1.9056 C.3       1 <0>         0.0569
     24 C19        -4.0031    3.4962   -3.3196 C.3       1 <0>         0.0178
     25 O2         -3.9181    2.1381   -3.7557 O.3       1 <0>        -0.3719
     26 C20        -3.3838    1.9826   -5.0719 C.3       1 <0>         0.0596
     27 C21        -3.3392    0.4963   -5.4320 C.3       1 <0>         0.0887
     28 O3         -4.6710   -0.0171   -5.5015 O.3       1 <0>        -0.5947
     29 H1         -2.3902   -2.8808    2.0800 H         1 <0>         0.1356
     30 H2         -1.2310   -4.5508    0.6960 H         1 <0>         0.1362
     31 H3          0.3411   -3.8269   -1.0556 H         1 <0>         0.1389
     32 H4         -1.9855   -0.4856    1.7360 H         1 <0>         0.1367
     33 H5          2.7332    2.4083    0.9913 H         1 <0>         0.1366
     34 H6          5.0737    1.6722    0.9353 H         1 <0>         0.1354
     35 H7          4.0069   -1.5799   -1.6216 H         1 <0>         0.1344
     36 H8          6.2749   -1.2879   -0.9575 H         1 <0>         0.4333
     37 H9         -1.6887    3.3091    0.9273 H         1 <0>         0.0692
     38 H10        -0.3281    3.1982   -0.2402 H         1 <0>         0.1059
     39 H11        -2.3032    4.5413   -1.1232 H         1 <0>         0.0838
     40 H12        -1.8991    3.1154   -2.1383 H         1 <0>         0.0439
     41 H13        -4.7093    1.1005   -0.9913 H         1 <0>         0.0836
     42 H14        -3.2711    1.1585   -2.0659 H         1 <0>         0.0669
     43 H15        -2.7372   -0.2485   -0.1207 H         1 <0>         0.0928
     44 H16        -3.2709    1.0440    1.0068 H         1 <0>         0.0740
     45 H17        -5.5398    2.9954   -1.8841 H         1 <0>         0.0856
     46 H18        -4.7562    4.5889   -1.6132 H         1 <0>         0.0942
     47 H19        -4.6544    4.0607   -4.0030 H         1 <0>         0.0528
     48 H20        -2.9984    3.9441   -3.3171 H         1 <0>         0.0536
     49 H21        -4.0222    2.5153   -5.7921 H         1 <0>         0.0553
     50 H22        -2.3662    2.3988   -5.1061 H         1 <0>         0.0610
     51 H23        -2.8461    0.3699   -6.4072 H         1 <0>         0.0562
     52 H24        -2.7750   -0.0507   -4.6623 H         1 <0>         0.0490
     53 H25        -4.8403   -1.0753   -5.7497 H         1 <0>         0.4083
@<TRIPOS>BOND
     1    1    6 ar
     2    1    2 ar
     3    1   29 1
     4    2    3 ar
     5    2   30 1
     6    3    4 ar
     7    3   31 1
     8    4   15 1
     9    4    5 ar
    10    5    6 ar
    11    5    7 1
    12    6   32 1
    13    7    8 2
    14    7   17 1
    15    8    9 1
    16    9   14 ar
    17    9   10 ar
    18   10   11 ar
    19   10   33 1
    20   11   12 ar
    21   11   34 1
    22   12   13 ar
    23   12   16 1
    24   13   14 ar
    25   13   35 1
    26   14   15 1
    27   16   36 1
    28   17   22 1
    29   17   18 1
    30   18   19 1
    31   18   37 1
    32   18   38 1
    33   19   20 1
    34   19   39 1
    35   19   40 1
    36   20   21 1
    37   20   23 1
    38   21   22 1
    39   21   41 1
    40   21   42 1
    41   22   43 1
    42   22   44 1
    43   23   24 1
    44   23   45 1
    45   23   46 1
    46   24   25 1
    47   24   47 1
    48   24   48 1
    49   25   26 1
    50   26   27 1
    51   26   49 1
    52   26   50 1
    53   27   28 1
    54   27   51 1
    55   27   52 1
    56   28   53 1
@<TRIPOS>MOLECULE
ZINC27302982
   54    57     0     0     0
SMALL
USER_CHARGES
2-[2-[4-(dioxoBLAHyl)piperazin-1-yl]ethoxy]ethanol
@<TRIPOS>ATOM
      1 C1          1.0023    5.2249    3.3042 C.ar      1 <0>        -0.0720
      2 C2          0.0391    4.8939    4.2410 C.ar      1 <0>        -0.1086
      3 C3         -1.2045    4.4476    3.8269 C.ar      1 <0>        -0.0251
      4 C4         -1.4832    4.3353    2.4845 C.ar      1 <0>        -0.6186
      5 C5         -0.5225    4.6703    1.5261 C.ar      1 <0>        -0.0306
      6 C6          0.7324    5.1169    1.9575 C.ar      1 <0>        -0.0974
      7 C7         -0.8102    4.5712    0.0949 C.2       1 <0>         0.5132
      8 N1         -1.3985    3.6583   -0.5612 N.2       1 <0>        -0.6225
      9 C8         -1.9288    2.4719   -0.1879 C.ar      1 <0>         0.2770
     10 C9         -1.6626    1.3304   -0.9586 C.ar      1 <0>        -0.1448
     11 C10        -2.2108    0.1164   -0.6099 C.ar      1 <0>        -0.0449
     12 C11        -3.0279    0.0115    0.5022 C.ar      1 <0>        -0.1616
     13 C12        -3.2895    1.1287    1.2758 C.ar      1 <0>        -0.0041
     14 C13        -2.7424    2.3478    0.9390 C.ar      1 <0>        -0.7098
     15 S1         -3.0637    3.7638    1.9431 S.o2      1 <0>         2.5669
     16 O1         -3.7523    3.3025    3.0973 O.2       1 <0>        -0.9350
     17 O2         -3.5921    4.7657    1.0850 O.2       1 <0>        -0.9220
     18 N2         -0.3729    5.6368   -0.6593 N.pl3     1 <0>        -0.5837
     19 C14        -0.4511    5.6050   -2.1277 C.3       1 <0>         0.1220
     20 C15        -1.1500    6.8894   -2.6011 C.3       1 <0>         0.0344
     21 N3         -0.4522    8.0549   -2.0419 N.3       1 <0>        -0.5306
     22 C16        -0.5283    8.0683   -0.5750 C.3       1 <0>         0.0348
     23 C17         0.1904    6.8347   -0.0183 C.3       1 <0>         0.1035
     24 C18        -0.9778    9.3046   -2.6077 C.3       1 <0>         0.0573
     25 C19        -2.5062    9.2927   -2.5383 C.3       1 <0>         0.0170
     26 O3         -2.9212    9.3232   -1.1713 O.3       1 <0>        -0.3724
     27 C20        -4.3391    9.3150   -0.9940 C.3       1 <0>         0.0607
     28 C21        -4.6665    9.3494    0.5002 C.3       1 <0>         0.0863
     29 O4         -4.2231   10.5888    1.0565 O.3       1 <0>        -0.5957
     30 H1          1.9720    5.5705    3.6309 H         1 <0>         0.1428
     31 H2          0.2573    4.9837    5.2949 H         1 <0>         0.1439
     32 H3         -1.9560    4.1884    4.5579 H         1 <0>         0.1531
     33 H4          1.4900    5.3776    1.2333 H         1 <0>         0.1440
     34 H5         -1.0261    1.4040   -1.8281 H         1 <0>         0.1352
     35 H6         -2.0024   -0.7587   -1.2076 H         1 <0>         0.1340
     36 H7         -3.4610   -0.9420    0.7663 H         1 <0>         0.1346
     37 H8         -3.9252    1.0454    2.1449 H         1 <0>         0.1428
     38 H9          0.5641    5.5509   -2.5478 H         1 <0>         0.0749
     39 H10        -1.0268    4.7231   -2.4452 H         1 <0>         0.1094
     40 H11        -1.1249    6.9369   -3.6998 H         1 <0>         0.0866
     41 H12        -2.1951    6.8859   -2.2581 H         1 <0>         0.0491
     42 H13        -0.0461    8.9794   -0.1912 H         1 <0>         0.0866
     43 H14        -1.5828    8.0520   -0.2624 H         1 <0>         0.0718
     44 H15         0.0413    6.7728    1.0698 H         1 <0>         0.0943
     45 H16         1.2665    6.8964   -0.2379 H         1 <0>         0.0806
     46 H17        -0.5912   10.1587   -2.0323 H         1 <0>         0.0861
     47 H18        -0.6591    9.3948   -3.6566 H         1 <0>         0.0946
     48 H19        -2.9039   10.1745   -3.0620 H         1 <0>         0.0531
     49 H20        -2.8879    8.3789   -3.0171 H         1 <0>         0.0540
     50 H21        -4.7751   10.1973   -1.4853 H         1 <0>         0.0546
     51 H22        -4.7592    8.4017   -1.4405 H         1 <0>         0.0628
     52 H23        -5.7533    9.2528    0.6397 H         1 <0>         0.0569
     53 H24        -4.1564    8.5168    1.0066 H         1 <0>         0.0526
     54 H25        -4.3731   10.7965    2.1262 H         1 <0>         0.4074
@<TRIPOS>BOND
     1    1    6 ar
     2    1    2 ar
     3    1   30 1
     4    2    3 ar
     5    2   31 1
     6    3    4 ar
     7    3   32 1
     8    4   15 1
     9    4    5 ar
    10    5    6 ar
    11    5    7 1
    12    6   33 1
    13    7    8 2
    14    7   18 1
    15    8    9 1
    16    9   14 ar
    17    9   10 ar
    18   10   11 ar
    19   10   34 1
    20   11   12 ar
    21   11   35 1
    22   12   13 ar
    23   12   36 1
    24   13   14 ar
    25   13   37 1
    26   14   15 1
    27   15   16 2
    28   15   17 2
    29   18   23 1
    30   18   19 1
    31   19   20 1
    32   19   38 1
    33   19   39 1
    34   20   21 1
    35   20   40 1
    36   20   41 1
    37   21   22 1
    38   21   24 1
    39   22   23 1
    40   22   42 1
    41   22   43 1
    42   23   44 1
    43   23   45 1
    44   24   25 1
    45   24   46 1
    46   24   47 1
    47   25   26 1
    48   25   48 1
    49   25   49 1
    50   26   27 1
    51   27   28 1
    52   27   50 1
    53   27   51 1
    54   28   29 1
    55   28   52 1
    56   28   53 1
    57   29   54 1
@<TRIPOS>MOLECULE
ZINC27302982
   55    58     0     0     0
SMALL
USER_CHARGES
2-[2-[4-(dioxoBLAHyl)piperazin-1-yl]ethoxy]ethanol
@<TRIPOS>ATOM
      1 C1          1.0023    5.2249    3.3042 C.ar      1 <0>        -0.0686
      2 C2          0.0391    4.8939    4.2410 C.ar      1 <0>        -0.0999
      3 C3         -1.2045    4.4476    3.8269 C.ar      1 <0>        -0.0182
      4 C4         -1.4832    4.3353    2.4845 C.ar      1 <0>        -0.6172
      5 C5         -0.5225    4.6703    1.5261 C.ar      1 <0>        -0.0425
      6 C6          0.7324    5.1169    1.9575 C.ar      1 <0>        -0.1060
      7 C7         -0.8102    4.5712    0.0949 C.2       1 <0>         0.5115
      8 N1         -1.3985    3.6583   -0.5612 N.2       1 <0>        -0.5959
      9 C8         -1.9288    2.4719   -0.1879 C.ar      1 <0>         0.2485
     10 C9         -1.6626    1.3304   -0.9586 C.ar      1 <0>        -0.1325
     11 C10        -2.2108    0.1164   -0.6099 C.ar      1 <0>        -0.0445
     12 C11        -3.0279    0.0115    0.5022 C.ar      1 <0>        -0.1432
     13 C12        -3.2895    1.1287    1.2758 C.ar      1 <0>        -0.0053
     14 C13        -2.7424    2.3478    0.9390 C.ar      1 <0>        -0.6973
     15 S1         -3.0637    3.7638    1.9431 S.o2      1 <0>         2.5671
     16 O1         -3.7523    3.3025    3.0973 O.2       1 <0>        -0.9241
     17 O2         -3.5921    4.7657    1.0850 O.2       1 <0>        -0.9263
     18 N2         -0.3729    5.6368   -0.6593 N.pl3     1 <0>        -0.6120
     19 C14        -0.4511    5.6050   -2.1277 C.3       1 <0>         0.0985
     20 C15        -1.1500    6.8894   -2.6011 C.3       1 <0>        -0.0258
     21 N3         -0.4522    8.0549   -2.0419 N.4       1 <0>        -0.3932
     22 C16        -0.5283    8.0683   -0.5750 C.3       1 <0>        -0.0229
     23 C17         0.1904    6.8347   -0.0183 C.3       1 <0>         0.0784
     24 C18        -0.9778    9.3046   -2.6077 C.3       1 <0>         0.0012
     25 C19        -2.5062    9.2927   -2.5383 C.3       1 <0>         0.0232
     26 O3         -2.9212    9.3232   -1.1713 O.3       1 <0>        -0.3860
     27 C20        -4.3391    9.3150   -0.9940 C.3       1 <0>         0.0627
     28 C21        -4.6665    9.3494    0.5002 C.3       1 <0>         0.0831
     29 O4         -4.2231   10.5888    1.0565 O.3       1 <0>        -0.6004
     30 H1          1.9720    5.5705    3.6309 H         1 <0>         0.1466
     31 H2          0.2573    4.9837    5.2949 H         1 <0>         0.1494
     32 H3         -1.9560    4.1884    4.5579 H         1 <0>         0.1578
     33 H4          1.4900    5.3776    1.2333 H         1 <0>         0.1422
     34 H5         -1.0261    1.4040   -1.8281 H         1 <0>         0.1374
     35 H6         -2.0024   -0.7587   -1.2076 H         1 <0>         0.1405
     36 H7         -3.4610   -0.9420    0.7663 H         1 <0>         0.1417
     37 H8         -3.9252    1.0454    2.1449 H         1 <0>         0.1487
     38 H9          0.5641    5.5509   -2.5478 H         1 <0>         0.0943
     39 H10        -1.0268    4.7231   -2.4452 H         1 <0>         0.1465
     40 H11        -1.1249    6.9369   -3.6998 H         1 <0>         0.1430
     41 H12        -2.1951    6.8859   -2.2581 H         1 <0>         0.1352
     42 H13        -0.0461    8.9794   -0.1912 H         1 <0>         0.1425
     43 H14        -1.5828    8.0520   -0.2624 H         1 <0>         0.1521
     44 H15         0.0413    6.7728    1.0698 H         1 <0>         0.1349
     45 H16         1.2665    6.8964   -0.2379 H         1 <0>         0.0992
     46 H17        -0.5912   10.1587   -2.0323 H         1 <0>         0.1410
     47 H18        -0.6591    9.3948   -3.6566 H         1 <0>         0.1466
     48 H19        -2.9039   10.1745   -3.0620 H         1 <0>         0.0957
     49 H20        -2.8879    8.3789   -3.0171 H         1 <0>         0.0744
     50 H21        -4.7751   10.1973   -1.4853 H         1 <0>         0.0680
     51 H22        -4.7592    8.4017   -1.4405 H         1 <0>         0.0730
     52 H23        -5.7533    9.2528    0.6397 H         1 <0>         0.0666
     53 H24        -4.1564    8.5168    1.0066 H         1 <0>         0.0530
     54 H25        -4.3731   10.7965    2.1262 H         1 <0>         0.4179
     55 H26         0.6088    7.9752   -2.3211 H         1 <0>         0.4395
@<TRIPOS>BOND
     1    1    6 ar
     2    1    2 ar
     3    1   30 1
     4    2    3 ar
     5    2   31 1
     6    3    4 ar
     7    3   32 1
     8    4   15 1
     9    4    5 ar
    10    5    6 ar
    11    5    7 1
    12    6   33 1
    13    7    8 2
    14    7   18 1
    15    8    9 1
    16    9   14 ar
    17    9   10 ar
    18   10   11 ar
    19   10   34 1
    20   11   12 ar
    21   11   35 1
    22   12   13 ar
    23   12   36 1
    24   13   14 ar
    25   13   37 1
    26   14   15 1
    27   15   16 2
    28   15   17 2
    29   18   23 1
    30   18   19 1
    31   19   20 1
    32   19   38 1
    33   19   39 1
    34   20   21 1
    35   20   40 1
    36   20   41 1
    37   21   22 1
    38   21   24 1
    39   21   55 1
    40   22   23 1
    41   22   42 1
    42   22   43 1
    43   23   44 1
    44   23   45 1
    45   24   25 1
    46   24   46 1
    47   24   47 1
    48   25   26 1
    49   25   48 1
    50   25   49 1
    51   26   27 1
    52   27   28 1
    53   27   50 1
    54   27   51 1
    55   28   29 1
    56   28   52 1
    57   28   53 1
    58   29   54 1
@<TRIPOS>MOLECULE
ZINC00538337
   58    62     0     0     0
SMALL
USER_CHARGES

@<TRIPOS>ATOM
      1 C1         -0.0168    1.3842    0.0097 C.ar      1 <0>        -0.0898
      2 C2          1.1703    2.0901    0.0021 C.ar      1 <0>        -0.1344
      3 C3          2.3788    1.4141   -0.0135 C.ar      1 <0>         0.1119
      4 C4          2.3997    0.0295   -0.0216 C.ar      1 <0>        -0.1322
      5 C5          1.2148   -0.6800   -0.0137 C.ar      1 <0>        -0.0888
      6 C6          0.0021   -0.0041    0.0020 C.ar      1 <0>         0.1035
      7 N1         -1.2015   -0.7222    0.0101 N.pl3     1 <0>        -0.4255
      8 C7         -2.2407   -0.5077    0.8765 C.2       1 <0>         0.0751
      9 C8         -3.2397   -1.3652    0.6140 C.2       1 <0>        -0.1721
     10 C9         -2.8068   -2.1974   -0.5117 C.ar      1 <0>        -0.0841
     11 C10        -1.5194   -1.7470   -0.8569 C.ar      1 <0>         0.1032
     12 C11        -0.8430   -2.3517   -1.9103 C.ar      1 <0>        -0.1070
     13 C12        -1.4366   -3.3808   -2.6081 C.ar      1 <0>        -0.0841
     14 C13        -2.7089   -3.8239   -2.2706 C.ar      1 <0>        -0.0491
     15 C14        -3.3935   -3.2441   -1.2250 C.ar      1 <0>        -0.0671
     16 Cl1        -3.4366   -5.1218   -3.1648 Cl        1 <0>        -0.0596
     17 C15        -4.5571   -1.4553    1.3402 C.3       1 <0>        -0.0164
     18 C16        -4.3063   -1.7573    2.8204 C.3       1 <0>        -0.1397
     19 C17        -5.6422   -1.7687    3.5665 C.3       1 <0>        -0.0052
     20 N2         -6.2909   -0.4585    3.4359 N.4       1 <0>        -0.3798
     21 C18        -6.5994   -0.1937    2.0255 C.3       1 <0>        -0.0131
     22 C19        -5.3003   -0.1217    1.2201 C.3       1 <0>        -0.1392
     23 C20        -7.5345   -0.4493    4.2177 C.3       1 <0>        -0.0330
     24 C21        -8.1476    0.9521    4.1845 C.3       1 <0>         0.1326
     25 N3         -9.3878    0.9612    4.9641 N.am      1 <0>        -0.6351
     26 C22       -10.7283    0.6664    4.4362 C.3       1 <0>         0.0898
     27 C23       -11.6494    0.8170    5.6625 C.3       1 <0>         0.0871
     28 N4        -10.7301    1.1807    6.7511 N.am      1 <0>        -0.7327
     29 C24        -9.4802    1.2337    6.2723 C.2       1 <0>         0.7000
     30 O1         -8.5172    1.5083    6.9620 O.2       1 <0>        -0.5776
     31 F1          3.5389    2.1063   -0.0213 F         1 <0>        -0.1276
     32 H1         -0.9590    1.9118    0.0260 H         1 <0>         0.1391
     33 H2          1.1561    3.1700    0.0080 H         1 <0>         0.1488
     34 H3          3.3432   -0.4959   -0.0345 H         1 <0>         0.1499
     35 H4          1.2315   -1.7598   -0.0203 H         1 <0>         0.1411
     36 H5         -2.2541    0.2401    1.6556 H         1 <0>         0.1691
     37 H6          0.1466   -2.0149   -2.1816 H         1 <0>         0.1333
     38 H7         -0.9074   -3.8472   -3.4259 H         1 <0>         0.1426
     39 H8         -4.3833   -3.5900   -0.9659 H         1 <0>         0.1336
     40 H9         -5.1611   -2.2499    0.9021 H         1 <0>         0.0971
     41 H10        -3.8271   -2.7315    2.9171 H         1 <0>         0.1158
     42 H11        -3.6594   -0.9891    3.2440 H         1 <0>         0.0884
     43 H12        -6.2882   -2.5373    3.1423 H         1 <0>         0.1304
     44 H13        -5.4673   -1.9836    4.6207 H         1 <0>         0.1320
     45 H14        -7.2250   -0.9960    1.6341 H         1 <0>         0.1319
     46 H15        -7.1311    0.7541    1.9420 H         1 <0>         0.1316
     47 H16        -4.6740    0.6804    1.6106 H         1 <0>         0.0885
     48 H17        -5.5315    0.0731    0.1729 H         1 <0>         0.1159
     49 H18        -8.2379   -1.1638    3.7899 H         1 <0>         0.1318
     50 H19        -7.3173   -0.7265    5.2492 H         1 <0>         0.1351
     51 H20        -7.4442    1.6665    4.6123 H         1 <0>         0.1060
     52 H21        -8.3648    1.2293    3.1530 H         1 <0>         0.1030
     53 H22       -11.0011    1.3839    3.6624 H         1 <0>         0.0916
     54 H23       -10.7713   -0.3513    4.0481 H         1 <0>         0.0867
     55 H24       -12.3795    1.6093    5.4975 H         1 <0>         0.0926
     56 H25       -12.1498   -0.1259    5.8832 H         1 <0>         0.0914
     57 H26       -10.9875    1.3510    7.6707 H         1 <0>         0.4382
     58 H27        -5.6719    0.2583    3.7840 H         1 <0>         0.4243
@<TRIPOS>BOND
     1    1    6 ar
     2    1    2 ar
     3    1   32 1
     4    2    3 ar
     5    2   33 1
     6    3    4 ar
     7    3   31 1
     8    4    5 ar
     9    4   34 1
    10    5    6 ar
    11    5   35 1
    12    6    7 1
    13    7   11 1
    14    7    8 1
    15    8    9 2
    16    8   36 1
    17    9   10 1
    18    9   17 1
    19   10   15 ar
    20   10   11 ar
    21   11   12 ar
    22   12   13 ar
    23   12   37 1
    24   13   14 ar
    25   13   38 1
    26   14   15 ar
    27   14   16 1
    28   15   39 1
    29   17   22 1
    30   17   18 1
    31   17   40 1
    32   18   19 1
    33   18   41 1
    34   18   42 1
    35   19   20 1
    36   19   43 1
    37   19   44 1
    38   20   21 1
    39   20   23 1
    40   20   58 1
    41   21   22 1
    42   21   45 1
    43   21   46 1
    44   22   47 1
    45   22   48 1
    46   23   24 1
    47   23   49 1
    48   23   50 1
    49   24   25 1
    50   24   51 1
    51   24   52 1
    52   25   29 am
    53   25   26 1
    54   26   27 1
    55   26   53 1
    56   26   54 1
    57   27   28 1
    58   27   55 1
    59   27   56 1
    60   28   29 am
    61   28   57 1
    62   29   30 2
@<TRIPOS>MOLECULE
ZINC03786466
   49    52     0     0     0
SMALL
USER_CHARGES

@<TRIPOS>ATOM
      1 C1         -0.0187    1.5258    0.0104 C.3       1 <0>        -0.1558
      2 C2          0.0021   -0.0041    0.0020 C.3       1 <0>        -0.1498
      3 C3          0.7421   -0.5109    1.2415 C.3       1 <0>        -0.0188
      4 N1          0.7620   -1.9797    1.2335 N.4       1 <0>        -0.3806
      5 C4         -0.6101   -2.4861    1.3521 C.3       1 <0>        -0.0057
      6 C5         -0.6004   -4.0136    1.2571 C.3       1 <0>        -0.0898
      7 H1         -0.1781   -4.3164    0.2989 H         1 <0>         0.1056
      8 C6          0.2521   -4.5820    2.3946 C.3       1 <0>        -0.1280
      9 C7          1.6621   -3.9884    2.3134 C.3       1 <0>        -0.0374
     10 H2          2.1261   -4.2935    1.3755 H         1 <0>         0.1035
     11 C8          1.5740   -2.4625    2.3580 C.3       1 <0>         0.0403
     12 H3          1.0792   -2.1743    3.2855 H         1 <0>         0.1338
     13 C9          2.9415   -1.7644    2.3169 C.3       1 <0>        -0.0487
     14 C10         3.7806   -2.3188    3.4398 C.2       1 <0>        -0.2002
     15 C11         4.7972   -1.8861    4.1694 C.2       1 <0>         0.0906
     16 N2          5.1731   -2.8522    5.0907 N.pl3     1 <0>        -0.5885
     17 H4          5.8954   -2.7557    5.7308 H         1 <0>         0.4238
     18 C12         4.3837   -3.9557    4.9695 C.ar      1 <0>         0.1146
     19 C13         3.4898   -3.6653    3.9323 C.ar      1 <0>        -0.1355
     20 C14         2.4854   -4.4951    3.4586 C.ar      1 <0>        -0.0472
     21 C15         2.3923   -5.6916    4.0965 C.ar      1 <0>        -0.1170
     22 C16         3.2547   -5.9991    5.1479 C.ar      1 <0>        -0.0959
     23 C17         4.2659   -5.2011    5.5842 C.ar      1 <0>        -0.1047
     24 C18        -2.0313   -4.5424    1.3751 C.3       1 <0>        -0.0921
     25 S1         -2.0359   -6.3376    1.1149 S.3       1 <0>        -0.2398
     26 C19        -3.7814   -6.8013    1.2853 C.3       1 <0>        -0.1232
     27 H5          1.0039    1.9031    0.0027 H         1 <0>         0.0674
     28 H6         -0.5459    1.8868   -0.8726 H         1 <0>         0.0771
     29 H7         -0.5289    1.8773    0.9072 H         1 <0>         0.0665
     30 H8         -1.0205   -0.3814    0.0098 H         1 <0>         0.0853
     31 H9          0.5123   -0.3556   -0.8948 H         1 <0>         0.0868
     32 H10         1.7647   -0.1336    1.2338 H         1 <0>         0.1371
     33 H11         0.2319   -0.1594    2.1383 H         1 <0>         0.1304
     34 H12        -1.0268   -2.1845    2.3131 H         1 <0>         0.1316
     35 H13        -1.2196   -2.0759    0.5469 H         1 <0>         0.1362
     36 H14        -0.1981   -4.3211    3.3524 H         1 <0>         0.0877
     37 H15         0.3078   -5.6666    2.3010 H         1 <0>         0.1093
     38 H16         3.4275   -1.9619    1.3614 H         1 <0>         0.0928
     39 H17         2.8112   -0.6904    2.4498 H         1 <0>         0.0980
     40 H18         5.2667   -0.9194    4.0622 H         1 <0>         0.1734
     41 H19         1.6457   -6.4082    3.7873 H         1 <0>         0.1269
     42 H20         3.1443   -6.9607    5.6271 H         1 <0>         0.1259
     43 H21         4.9178   -5.4969    6.3928 H         1 <0>         0.1359
     44 H22        -2.4207   -4.3182    2.3682 H         1 <0>         0.0922
     45 H23        -2.6585   -4.0646    0.6225 H         1 <0>         0.0926
     46 H24        -4.3718   -6.2760    0.5346 H         1 <0>         0.0810
     47 H25        -3.8871   -7.8768    1.1435 H         1 <0>         0.1099
     48 H26        -4.1340   -6.5296    2.2803 H         1 <0>         0.0813
     49 H27         1.1636   -2.3045    0.3667 H         1 <0>         0.4212
@<TRIPOS>BOND
     1    1    2 1
     2    1   27 1
     3    1   28 1
     4    1   29 1
     5    2    3 1
     6    2   30 1
     7    2   31 1
     8    3    4 1
     9    3   32 1
    10    3   33 1
    11    4   11 1
    12    4    5 1
    13    4   49 1
    14    5    6 1
    15    5   34 1
    16    5   35 1
    17    6    7 1
    18    6    8 1
    19    6   24 1
    20    8    9 1
    21    8   36 1
    22    8   37 1
    23    9   10 1
    24    9   20 1
    25    9   11 1
    26   11   12 1
    27   11   13 1
    28   13   14 1
    29   13   38 1
    30   13   39 1
    31   14   19 1
    32   14   15 2
    33   15   16 1
    34   15   40 1
    35   16   17 1
    36   16   18 1
    37   18   23 ar
    38   18   19 ar
    39   19   20 ar
    40   20   21 ar
    41   21   22 ar
    42   21   41 1
    43   22   23 ar
    44   22   42 1
    45   23   43 1
    46   24   25 1
    47   24   44 1
    48   24   45 1
    49   25   26 1
    50   26   46 1
    51   26   47 1
    52   26   48 1
@<TRIPOS>MOLECULE
ZINC13861677
   45    48     0     0     0
SMALL
USER_CHARGES
2-(4-benzo[b][1,5]benzothiazepin-6-ylpiperazin-1-yl)ethanol
@<TRIPOS>ATOM
      1 C1          1.7516    5.0491   -1.2984 C.ar      1 <0>        -0.1085
      2 C2          2.8972    5.1708   -0.5313 C.ar      1 <0>        -0.0952
      3 C3          3.1805    4.2327    0.4446 C.ar      1 <0>        -0.0796
      4 C4          2.3180    3.1696    0.6547 C.ar      1 <0>        -0.0868
      5 C5          1.1574    3.0349   -0.1193 C.ar      1 <0>        -0.0902
      6 C6          0.8855    3.9944   -1.1004 C.ar      1 <0>        -0.0869
      7 C7          0.2313    1.9176    0.0755 C.2       1 <0>         0.5216
      8 N1          0.4805    0.6853    0.2482 N.2       1 <0>        -0.6130
      9 C8          1.6545    0.0067    0.2811 C.ar      1 <0>         0.2111
     10 C9          1.7589   -1.1931   -0.4324 C.ar      1 <0>        -0.1322
     11 C10         2.9368   -1.9126   -0.4171 C.ar      1 <0>        -0.0780
     12 C11         4.0250   -1.4567    0.3029 C.ar      1 <0>        -0.1482
     13 C12         3.9375   -0.2707    1.0126 C.ar      1 <0>        -0.0510
     14 C13         2.7625    0.4607    1.0027 C.ar      1 <0>        -0.1825
     15 S1          2.6731    1.9749    1.9019 S.3       1 <0>        -0.0271
     16 N2         -1.1039    2.2516    0.0643 N.pl3     1 <0>        -0.5953
     17 C14        -2.1427    1.2107    0.0882 C.3       1 <0>         0.1247
     18 C15        -3.1323    1.5432    1.2162 C.3       1 <0>         0.0379
     19 N3         -3.6306    2.9132    1.0354 N.3       1 <0>        -0.5316
     20 C16        -2.5433    3.8947    1.1466 C.3       1 <0>         0.0382
     21 C17        -1.5296    3.6588    0.0219 C.3       1 <0>         0.1088
     22 C18        -4.7085    3.2113    1.9879 C.3       1 <0>         0.0537
     23 C19        -4.2756    2.7943    3.3949 C.3       1 <0>         0.0441
     24 O1         -3.1893    3.6183    3.8228 O.3       1 <0>        -0.5957
     25 H1          1.5345    5.7855   -2.0579 H         1 <0>         0.1356
     26 H2          3.5707    5.9990   -0.6952 H         1 <0>         0.1365
     27 H3          4.0742    4.3293    1.0431 H         1 <0>         0.1400
     28 H4         -0.0056    3.9089   -1.7047 H         1 <0>         0.1361
     29 H5          0.9139   -1.5573   -0.9979 H         1 <0>         0.1289
     30 H6          3.0086   -2.8369   -0.9711 H         1 <0>         0.1289
     31 H7          4.9434   -2.0250    0.3116 H         1 <0>         0.1290
     32 H8          4.7884    0.0845    1.5749 H         1 <0>         0.1309
     33 H9         -2.6656    1.1923   -0.8794 H         1 <0>         0.0696
     34 H10        -1.6764    0.2315    0.2717 H         1 <0>         0.1064
     35 H11        -3.9752    0.8372    1.1844 H         1 <0>         0.0835
     36 H12        -2.6222    1.4617    2.1874 H         1 <0>         0.0455
     37 H13        -2.9564    4.9107    1.0623 H         1 <0>         0.0820
     38 H14        -2.0450    3.7812    2.1207 H         1 <0>         0.0695
     39 H15        -0.6549    4.3109    0.1622 H         1 <0>         0.0943
     40 H16        -1.9936    3.8724   -0.9523 H         1 <0>         0.0742
     41 H17        -4.9216    4.2904    1.9745 H         1 <0>         0.0825
     42 H18        -5.6138    2.6553    1.7029 H         1 <0>         0.0930
     43 H19        -5.1210    2.9125    4.0887 H         1 <0>         0.0445
     44 H20        -3.9552    1.7421    3.3832 H         1 <0>         0.0466
     45 H21        -2.7413    3.4659    4.8158 H         1 <0>         0.4047
@<TRIPOS>BOND
     1    1    6 ar
     2    1    2 ar
     3    1   25 1
     4    2    3 ar
     5    2   26 1
     6    3    4 ar
     7    3   27 1
     8    4   15 1
     9    4    5 ar
    10    5    6 ar
    11    5    7 1
    12    6   28 1
    13    7    8 2
    14    7   16 1
    15    8    9 1
    16    9   14 ar
    17    9   10 ar
    18   10   11 ar
    19   10   29 1
    20   11   12 ar
    21   11   30 1
    22   12   13 ar
    23   12   31 1
    24   13   14 ar
    25   13   32 1
    26   14   15 1
    27   16   21 1
    28   16   17 1
    29   17   18 1
    30   17   33 1
    31   17   34 1
    32   18   19 1
    33   18   35 1
    34   18   36 1
    35   19   20 1
    36   19   22 1
    37   20   21 1
    38   20   37 1
    39   20   38 1
    40   21   39 1
    41   21   40 1
    42   22   23 1
    43   22   41 1
    44   22   42 1
    45   23   24 1
    46   23   43 1
    47   23   44 1
    48   24   45 1
@<TRIPOS>MOLECULE
ZINC01640741
   65    68     0     0     0
SMALL
USER_CHARGES
8-[4-(4-fluorophenyl)-4-oxo-butyl]-1-phenyl-3-propyl-1,3,8-triazaspiro[4.5]decan-4-one
@<TRIPOS>ATOM
      1 C1         -2.9090   -1.9130   -1.4734 C.3       1 <0>        -0.1539
      2 C2         -1.6561   -1.0348   -1.4672 C.3       1 <0>        -0.1387
      3 C3         -1.2086   -0.7949   -0.0239 C.3       1 <0>         0.1254
      4 N1         -0.0090    0.0460   -0.0180 N.am      1 <0>        -0.6094
      5 C4          1.3726   -0.4493   -0.0652 C.3       1 <0>         0.2394
      6 N2          2.2292    0.6727    0.3851 N.pl3     1 <0>        -0.4404
      7 C5          1.4294    1.8648    0.0347 C.3       1 <0>         0.0527
      8 C6         -0.0043    1.3949    0.0309 C.2       1 <0>         0.5260
      9 O1         -0.9852    2.1076    0.0612 O.2       1 <0>        -0.5115
     10 C7          1.6297    2.9574    1.0815 C.3       1 <0>        -0.1193
     11 C8          0.8292    4.1987    0.6776 C.3       1 <0>        -0.0224
     12 C9          1.0201    3.6360   -1.6729 C.3       1 <0>         0.0012
     13 C10         1.8269    2.3758   -1.3474 C.3       1 <0>        -0.1654
     14 C11         0.6313    5.9297   -1.0033 C.3       1 <0>        -0.0038
     15 C12         0.6980    6.8855    0.1896 C.3       1 <0>        -0.1468
     16 C13         0.0326    8.2121   -0.1820 C.3       1 <0>        -0.1549
     17 C14         0.0982    9.1535    0.9929 C.2       1 <0>         0.4032
     18 O2          0.6254    8.7984    2.0257 O.2       1 <0>        -0.4471
     19 C15        -0.4767   10.5024    0.8870 C.ar      1 <0>        -0.1962
     20 C16        -1.0806   10.9174   -0.3052 C.ar      1 <0>        -0.0431
     21 C17        -1.6225   12.1806   -0.3958 C.ar      1 <0>        -0.1669
     22 C18        -1.5603   13.0447    0.6876 C.ar      1 <0>         0.1436
     23 C19        -0.9580   12.6416    1.8704 C.ar      1 <0>        -0.1650
     24 C20        -0.4173   11.3791    1.9762 C.ar      1 <0>        -0.0258
     25 F1         -2.0891   14.2841    0.5905 F         1 <0>        -0.1260
     26 C21         3.4508    0.6728   -0.2921 C.ar      1 <0>         0.0814
     27 C22         3.7815   -0.3835   -1.1314 C.ar      1 <0>        -0.1599
     28 C23         4.9882   -0.3779   -1.8032 C.ar      1 <0>        -0.0846
     29 C24         5.8712    0.6726   -1.6329 C.ar      1 <0>        -0.1242
     30 C25         5.5474    1.7232   -0.7940 C.ar      1 <0>        -0.0948
     31 C26         4.3402    1.7264   -0.1233 C.ar      1 <0>        -0.1415
     32 H1         -2.6853   -2.8684   -0.9988 H         1 <0>         0.0610
     33 H2         -3.7064   -1.4124   -0.9243 H         1 <0>         0.0601
     34 H3         -3.2278   -2.0839   -2.5017 H         1 <0>         0.0640
     35 H4         -1.8798   -0.0794   -1.9418 H         1 <0>         0.0645
     36 H5         -0.8587   -1.5354   -2.0164 H         1 <0>         0.0658
     37 H6         -0.9849   -1.7503    0.4507 H         1 <0>         0.0915
     38 H7         -2.0060   -0.2942    0.5252 H         1 <0>         0.0924
     39 H8          1.4883   -1.3014    0.6046 H         1 <0>         0.1146
     40 H9          1.6338   -0.7348   -1.0842 H         1 <0>         0.0831
     41 H10         1.2827    2.6003    2.0511 H         1 <0>         0.1232
     42 H11         2.6879    3.2114    1.1443 H         1 <0>         0.1027
     43 H12         0.9931    4.9904    1.4086 H         1 <0>         0.1416
     44 H13        -0.2317    3.9511    0.6418 H         1 <0>         0.1540
     45 H14         1.3224    4.0194   -2.6475 H         1 <0>         0.1358
     46 H15        -0.0422    3.3925   -1.6919 H         1 <0>         0.1376
     47 H16         2.8908    2.6128   -1.3555 H         1 <0>         0.1191
     48 H17         1.6196    1.6079   -2.0927 H         1 <0>         0.1140
     49 H18         1.1519    6.3719   -1.8527 H         1 <0>         0.1314
     50 H19        -0.4109    5.7517   -1.2684 H         1 <0>         0.1344
     51 H20         0.1774    6.4433    1.0390 H         1 <0>         0.0991
     52 H21         1.7402    7.0635    0.4547 H         1 <0>         0.0951
     53 H22         0.5102    8.6178   -0.9613 H         1 <0>         0.1002
     54 H23        -1.0096    8.0341   -0.4472 H         1 <0>         0.1128
     55 H24        -1.1257   10.2472   -1.1509 H         1 <0>         0.1411
     56 H25        -2.0927   12.5005   -1.3139 H         1 <0>         0.1468
     57 H26        -0.9132   13.3190    2.7103 H         1 <0>         0.1476
     58 H27         0.0510   11.0664    2.8978 H         1 <0>         0.1461
     59 H28         3.0942   -1.2064   -1.2615 H         1 <0>         0.1342
     60 H29         5.2442   -1.1968   -2.4591 H         1 <0>         0.1323
     61 H30         6.8161    0.6723   -2.1560 H         1 <0>         0.1307
     62 H31         6.2395    2.5418   -0.6630 H         1 <0>         0.1318
     63 H32         4.0880    2.5471    0.5320 H         1 <0>         0.1260
     64 N3          1.3001    4.6619   -0.6453 N.4       1 <0>        -0.3901
     65 H33         2.3135    4.8206   -0.6010 H         1 <0>         0.4243
@<TRIPOS>BOND
     1    1    2 1
     2    1   32 1
     3    1   33 1
     4    1   34 1
     5    2    3 1
     6    2   35 1
     7    2   36 1
     8    3    4 1
     9    3   37 1
    10    3   38 1
    11    4    8 am
    12    4    5 1
    13    5    6 1
    14    5   39 1
    15    5   40 1
    16    6    7 1
    17    6   26 1
    18    7   13 1
    19    7    8 1
    20    7   10 1
    21    8    9 2
    22   10   11 1
    23   10   41 1
    24   10   42 1
    25   11   43 1
    26   11   44 1
    27   11   64 1
    28   12   13 1
    29   12   45 1
    30   12   46 1
    31   12   64 1
    32   13   47 1
    33   13   48 1
    34   14   15 1
    35   14   49 1
    36   14   50 1
    37   14   64 1
    38   15   16 1
    39   15   51 1
    40   15   52 1
    41   16   17 1
    42   16   53 1
    43   16   54 1
    44   17   18 2
    45   17   19 1
    46   19   24 ar
    47   19   20 ar
    48   20   21 ar
    49   20   55 1
    50   21   22 ar
    51   21   56 1
    52   22   23 ar
    53   22   25 1
    54   23   24 ar
    55   23   57 1
    56   24   58 1
    57   26   31 ar
    58   26   27 ar
    59   27   28 ar
    60   27   59 1
    61   28   29 ar
    62   28   60 1
    63   29   30 ar
    64   29   61 1
    65   30   31 ar
    66   30   62 1
    67   31   63 1
    68   64   65 1
@<TRIPOS>MOLECULE
ZINC53064442
   59    62     0     0     0
SMALL
USER_CHARGES

@<TRIPOS>ATOM
      1 C1         -0.0173    1.4248    0.0099 C.3       1 <0>         0.0252
      2 O1          0.0021   -0.0041    0.0020 O.3       1 <0>        -0.3038
      3 C2          0.6063   -0.6076   -1.0566 C.ar      1 <0>         0.1200
      4 C3          1.1727    0.1584   -2.0619 C.ar      1 <0>        -0.2067
      5 C4          1.7862   -0.4565   -3.1379 C.ar      1 <0>        -0.0837
      6 C5          1.8369   -1.8361   -3.2138 C.ar      1 <0>        -0.1522
      7 C6          1.2745   -2.6077   -2.2144 C.ar      1 <0>        -0.0880
      8 C7          0.6620   -1.9977   -1.1294 C.ar      1 <0>         0.1392
      9 N1          0.0968   -2.7768   -0.1132 N.pl3     1 <0>        -0.6682
     10 C8         -1.3056   -3.2137   -0.1884 C.3       1 <0>         0.1543
     11 C9         -1.3570   -4.7276    0.0431 C.3       1 <0>         0.0432
     12 N2         -0.6724   -5.0507    1.3020 N.3       1 <0>        -0.5286
     13 C10         0.7517   -4.6956    1.2405 C.3       1 <0>         0.0373
     14 C11         0.8913   -3.1855    1.0551 C.3       1 <0>         0.1540
     15 C12        -0.8472   -6.4678    1.6476 C.3       1 <0>         0.0496
     16 C13        -0.3417   -6.7116    3.0710 C.3       1 <0>         0.0947
     17 N3         -0.5160   -8.1248    3.4157 N.am      1 <0>        -0.5648
     18 C14        -1.6686   -8.5092    3.9834 C.2       1 <0>         0.5224
     19 O2         -2.5368   -7.6868    4.1818 O.2       1 <0>        -0.4928
     20 C15        -1.9055   -9.9436    4.3791 C.3       1 <0>        -0.1313
     21 C16        -1.0927  -10.8580    3.4640 C.3       1 <0>        -0.0666
     22 C17        -1.2370  -12.3190    3.9117 C.3       1 <0>        -0.1127
     23 C18        -1.8643  -13.0802    2.7242 C.3       1 <0>        -0.1253
     24 C19        -1.5011  -12.2210    1.4873 C.3       1 <0>        -0.1236
     25 C20        -1.6310  -10.7733    2.0249 C.3       1 <0>        -0.1241
     26 C21         0.3768  -10.4406    3.4955 C.3       1 <0>        -0.1304
     27 C22         0.4818   -8.9790    3.1448 C.2       1 <0>         0.5233
     28 O3          1.4894   -8.5664    2.6118 O.2       1 <0>        -0.4984
     29 H1          1.0053    1.8021    0.0021 H         1 <0>         0.0536
     30 H2         -0.5445    1.7859   -0.8732 H         1 <0>         0.0536
     31 H3         -0.5275    1.7763    0.9067 H         1 <0>         0.0992
     32 H4          1.1348    1.2363   -2.0057 H         1 <0>         0.1276
     33 H5          2.2267    0.1425   -3.9212 H         1 <0>         0.1244
     34 H6          2.3168   -2.3119   -4.0562 H         1 <0>         0.1237
     35 H7          1.3151   -3.6852   -2.2764 H         1 <0>         0.1250
     36 H8         -1.8890   -2.7058    0.5796 H         1 <0>         0.0594
     37 H9         -1.7097   -2.9800   -1.1734 H         1 <0>         0.0701
     38 H10        -2.3961   -5.0517    0.1006 H         1 <0>         0.0801
     39 H11        -0.8612   -5.2388   -0.7821 H         1 <0>         0.0352
     40 H12         1.2419   -4.9966    2.1663 H         1 <0>         0.0816
     41 H13         1.2181   -5.2073    0.3986 H         1 <0>         0.0367
     42 H14         1.9390   -2.9332    0.8918 H         1 <0>         0.0699
     43 H15         0.5231   -2.6749    1.9450 H         1 <0>         0.0584
     44 H16        -1.9037   -6.7288    1.5875 H         1 <0>         0.0781
     45 H17        -0.2804   -7.0845    0.9501 H         1 <0>         0.0366
     46 H18         0.7149   -6.4507    3.1310 H         1 <0>         0.0953
     47 H19        -0.9085   -6.0950    3.7685 H         1 <0>         0.1048
     48 H20        -1.5937  -10.0924    5.4129 H         1 <0>         0.1126
     49 H21        -2.9654  -10.1783    4.2802 H         1 <0>         0.1162
     50 H22        -0.2581  -12.7361    4.1480 H         1 <0>         0.0750
     51 H23        -1.8902  -12.3805    4.7822 H         1 <0>         0.0752
     52 H24        -1.4301  -14.0763    2.6375 H         1 <0>         0.0698
     53 H25        -2.9462  -13.1434    2.8404 H         1 <0>         0.0689
     54 H26        -0.4799  -12.4224    1.1636 H         1 <0>         0.0695
     55 H27        -2.2064  -12.3960    0.6750 H         1 <0>         0.0702
     56 H28        -2.6746  -10.4585    2.0255 H         1 <0>         0.0752
     57 H29        -1.0253  -10.0894    1.4303 H         1 <0>         0.0639
     58 H30         0.7821  -10.6095    4.4932 H         1 <0>         0.1130
     59 H31         0.9381  -11.0285    2.7693 H         1 <0>         0.1151
@<TRIPOS>BOND
     1    1    2 1
     2    1   29 1
     3    1   30 1
     4    1   31 1
     5    2    3 1
     6    3    8 ar
     7    3    4 ar
     8    4    5 ar
     9    4   32 1
    10    5    6 ar
    11    5   33 1
    12    6    7 ar
    13    6   34 1
    14    7    8 ar
    15    7   35 1
    16    8    9 1
    17    9   14 1
    18    9   10 1
    19   10   11 1
    20   10   36 1
    21   10   37 1
    22   11   12 1
    23   11   38 1
    24   11   39 1
    25   12   13 1
    26   12   15 1
    27   13   14 1
    28   13   40 1
    29   13   41 1
    30   14   42 1
    31   14   43 1
    32   15   16 1
    33   15   44 1
    34   15   45 1
    35   16   17 1
    36   16   46 1
    37   16   47 1
    38   17   27 am
    39   17   18 am
    40   18   19 2
    41   18   20 1
    42   20   21 1
    43   20   48 1
    44   20   49 1
    45   21   25 1
    46   21   22 1
    47   21   26 1
    48   22   23 1
    49   22   50 1
    50   22   51 1
    51   23   24 1
    52   23   52 1
    53   23   53 1
    54   24   25 1
    55   24   54 1
    56   24   55 1
    57   25   56 1
    58   25   57 1
    59   26   27 1
    60   26   58 1
    61   26   59 1
    62   27   28 2
