@<TRIPOS>MOLECULE
ZINC52956332
   66    69     0     0     0
SMALL
USER_CHARGES

@<TRIPOS>ATOM
      1 C1         -0.2570   -0.0396   -0.2249 C.3       1 <0>        -0.1481
      2 C2         -0.4777   -1.5512   -0.1410 C.3       1 <0>         0.0719
      3 C3          0.2510   -2.1058    1.0847 C.3       1 <0>        -0.1743
      4 O1         -1.8760   -1.8229   -0.0272 O.3       1 <0>        -0.2968
      5 C4         -2.3308   -2.9699   -0.5993 C.ar      1 <0>         0.1238
      6 C5         -1.4369   -3.8709   -1.1538 C.ar      1 <0>        -0.2108
      7 C6         -1.9007   -5.0365   -1.7356 C.ar      1 <0>        -0.0833
      8 C7         -3.2562   -5.3067   -1.7656 C.ar      1 <0>        -0.1528
      9 C8         -4.1549   -4.4130   -1.2140 C.ar      1 <0>        -0.0865
     10 C9         -3.6965   -3.2442   -0.6239 C.ar      1 <0>         0.1375
     11 N1         -4.6040   -2.3403   -0.0596 N.pl3     1 <0>        -0.6674
     12 C10        -5.1972   -1.2631   -0.8665 C.3       1 <0>         0.1547
     13 C11        -5.0050    0.0635   -0.1240 C.3       1 <0>         0.0426
     14 N2         -5.5408   -0.0593    1.2382 N.3       1 <0>        -0.5278
     15 C12        -4.8056   -1.0693    2.0110 C.3       1 <0>         0.0391
     16 C13        -4.9943   -2.4462    1.3545 C.3       1 <0>         0.1554
     17 C14        -5.5326    1.2387    1.9262 C.3       1 <0>         0.0947
     18 C15        -6.3064    1.1292    3.2147 C.ar      1 <0>        -0.0813
     19 C16        -7.6662    1.3854    3.2273 C.ar      1 <0>        -0.0744
     20 C17        -8.3840    1.2867    4.4058 C.ar      1 <0>        -0.1211
     21 C18        -7.7471    0.9321    5.5774 C.ar      1 <0>        -0.0675
     22 C19        -6.3760    0.6723    5.5716 C.ar      1 <0>        -0.1273
     23 C20        -5.6587    0.7682    4.3778 C.ar      1 <0>        -0.0879
     24 C21        -5.6870    0.2923    6.8233 C.2       1 <0>         0.5617
     25 O2         -6.1780   -0.5424    7.5580 O.2       1 <0>        -0.5326
     26 N3         -4.5146    0.8713    7.1497 N.am      1 <0>        -0.6059
     27 C22        -3.8640    1.8148    6.2303 C.3       1 <0>         0.0916
     28 C23        -3.5771    3.1180    6.9827 C.3       1 <0>        -0.1360
     29 C24        -2.7654    2.8071    8.2423 C.3       1 <0>        -0.1214
     30 C25        -3.5758    1.8882    9.1594 C.3       1 <0>        -0.1356
     31 C26        -3.8657    0.5757    8.4343 C.3       1 <0>         0.1105
     32 H1          0.8096    0.1676   -0.3117 H         1 <0>         0.0754
     33 H2         -0.7761    0.3555   -1.0981 H         1 <0>         0.0627
     34 H3         -0.6472    0.4351    0.6754 H         1 <0>         0.0636
     35 H4         -0.0875   -2.0259   -1.0413 H         1 <0>         0.0742
     36 H5         -0.1393   -1.6311    1.9850 H         1 <0>         0.0650
     37 H6          0.0937   -3.1828    1.1445 H         1 <0>         0.0608
     38 H7          1.3176   -1.8986    0.9979 H         1 <0>         0.0710
     39 H8         -0.3773   -3.6629   -1.1321 H         1 <0>         0.1279
     40 H9         -1.2021   -5.7375   -2.1681 H         1 <0>         0.1235
     41 H10        -3.6139   -6.2182   -2.2214 H         1 <0>         0.1239
     42 H11        -5.2133   -4.6264   -1.2391 H         1 <0>         0.1282
     43 H12        -4.7006   -1.2157   -1.8356 H         1 <0>         0.0685
     44 H13        -6.2613   -1.4538   -1.0061 H         1 <0>         0.0563
     45 H14        -3.9427    0.3033   -0.0768 H         1 <0>         0.0406
     46 H15        -5.5341    0.8563   -0.6529 H         1 <0>         0.0772
     47 H16        -3.7461   -0.8138    2.0285 H         1 <0>         0.0394
     48 H17        -5.1901   -1.0982    3.0305 H         1 <0>         0.0783
     49 H18        -6.0393   -2.7483    1.4243 H         1 <0>         0.0563
     50 H19        -4.3636   -3.1812    1.8544 H         1 <0>         0.0674
     51 H20        -4.5044    1.5283    2.1433 H         1 <0>         0.0422
     52 H21        -5.9950    1.9913    1.2875 H         1 <0>         0.0858
     53 H22        -8.1693    1.6640    2.3132 H         1 <0>         0.1285
     54 H23        -9.4450    1.4880    4.4089 H         1 <0>         0.1309
     55 H24        -8.3085    0.8561    6.4969 H         1 <0>         0.1292
     56 H25        -4.5982    0.5642    4.3658 H         1 <0>         0.1264
     57 H26        -2.9283    1.3874    5.8698 H         1 <0>         0.0700
     58 H27        -4.5244    2.0175    5.3871 H         1 <0>         0.0990
     59 H28        -3.0089    3.7912    6.3407 H         1 <0>         0.0765
     60 H29        -4.5182    3.5906    7.2637 H         1 <0>         0.0681
     61 H30        -1.8355    2.3122    7.9621 H         1 <0>         0.0648
     62 H31        -2.5388    3.7354    8.7666 H         1 <0>         0.0672
     63 H32        -3.0066    1.6860   10.0668 H         1 <0>         0.0777
     64 H33        -4.5169    2.3723    9.4200 H         1 <0>         0.0669
     65 H34        -4.5272   -0.0389    9.0449 H         1 <0>         0.0936
     66 H35        -2.9302    0.0450    8.2576 H         1 <0>         0.0683
@<TRIPOS>BOND
     1    1    2 1
     2    1   32 1
     3    1   33 1
     4    1   34 1
     5    2    3 1
     6    2    4 1
     7    2   35 1
     8    3   36 1
     9    3   37 1
    10    3   38 1
    11    4    5 1
    12    5   10 ar
    13    5    6 ar
    14    6    7 ar
    15    6   39 1
    16    7    8 ar
    17    7   40 1
    18    8    9 ar
    19    8   41 1
    20    9   10 ar
    21    9   42 1
    22   10   11 1
    23   11   16 1
    24   11   12 1
    25   12   13 1
    26   12   43 1
    27   12   44 1
    28   13   14 1
    29   13   45 1
    30   13   46 1
    31   14   15 1
    32   14   17 1
    33   15   16 1
    34   15   47 1
    35   15   48 1
    36   16   49 1
    37   16   50 1
    38   17   18 1
    39   17   51 1
    40   17   52 1
    41   18   23 ar
    42   18   19 ar
    43   19   20 ar
    44   19   53 1
    45   20   21 ar
    46   20   54 1
    47   21   22 ar
    48   21   55 1
    49   22   23 ar
    50   22   24 1
    51   23   56 1
    52   24   25 2
    53   24   26 am
    54   26   31 1
    55   26   27 1
    56   27   28 1
    57   27   57 1
    58   27   58 1
    59   28   29 1
    60   28   59 1
    61   28   60 1
    62   29   30 1
    63   29   61 1
    64   29   62 1
    65   30   31 1
    66   30   63 1
    67   30   64 1
    68   31   65 1
    69   31   66 1
@<TRIPOS>MOLECULE
ZINC02516030
   52    54     0     0     0
SMALL
USER_CHARGES

@<TRIPOS>ATOM
      1 C1         -0.0167    1.3782    0.0096 C.ar      1 <0>        -0.0790
      2 C2          1.1703    2.0860    0.0021 C.ar      1 <0>        -0.1495
      3 C3          2.3786    1.4101   -0.0131 C.ar      1 <0>         0.1092
      4 C4          2.3962    0.0256   -0.0207 C.ar      1 <0>        -0.1488
      5 C5          1.2079   -0.6800   -0.0132 C.ar      1 <0>        -0.0820
      6 C6          0.0021   -0.0041    0.0020 C.ar      1 <0>        -0.1420
      7 C7         -1.2930   -0.7747    0.0103 C.3       1 <0>         0.1541
      8 H1         -2.0856   -0.1577   -0.4132 H         1 <0>         0.1128
      9 C8         -1.6532   -1.1512    1.4488 C.3       1 <0>        -0.1462
     10 C9         -3.0274   -1.8235    1.4711 C.3       1 <0>        -0.1467
     11 C10        -3.3877   -2.2001    2.9096 C.3       1 <0>        -0.0097
     12 N1         -4.7071   -2.8456    2.9311 N.4       1 <0>        -0.3828
     13 C11        -5.7288   -1.8814    2.5057 C.3       1 <0>        -0.0083
     14 C12        -7.0937   -2.5708    2.4483 C.3       1 <0>        -0.1330
     15 C13        -7.4457   -3.1104    3.8375 C.3       1 <0>         0.1747
     16 C14        -6.3361   -4.0578    4.3026 C.3       1 <0>        -0.1705
     17 C15        -4.9993   -3.3133    4.2913 C.3       1 <0>        -0.0020
     18 C16        -8.7522   -3.8585    3.7714 C.ar      1 <0>        -0.1263
     19 C17        -9.1187   -4.5073    2.6069 C.ar      1 <0>        -0.1006
     20 C18       -10.3168   -5.1936    2.5456 C.ar      1 <0>        -0.1039
     21 C19       -11.1494   -5.2313    3.6499 C.ar      1 <0>        -0.0247
     22 C20       -10.7821   -4.5818    4.8150 C.ar      1 <0>        -0.1015
     23 C21        -9.5811   -3.9006    4.8769 C.ar      1 <0>        -0.0934
     24 Cl1       -12.6547   -6.0927    3.5735 Cl        1 <0>        -0.0499
     25 O1         -7.5621   -2.0229    4.7572 O.3       1 <0>        -0.5476
     26 O2         -1.1454   -1.9625   -0.7703 O.3       1 <0>        -0.5520
     27 F1          3.5396    2.1009   -0.0209 F         1 <0>        -0.1327
     28 H2         -0.9592    1.9052    0.0260 H         1 <0>         0.1345
     29 H3          1.1554    3.1659    0.0077 H         1 <0>         0.1411
     30 H4          3.3381   -0.5027   -0.0329 H         1 <0>         0.1406
     31 H5          1.2213   -1.7599   -0.0195 H         1 <0>         0.1302
     32 H6         -0.9054   -1.8398    1.8423 H         1 <0>         0.0805
     33 H7         -1.6786   -0.2520    2.0642 H         1 <0>         0.0873
     34 H8         -3.7752   -1.1350    1.0776 H         1 <0>         0.0891
     35 H9         -3.0020   -2.7228    0.8556 H         1 <0>         0.0949
     36 H10        -2.6399   -2.8886    3.3031 H         1 <0>         0.1307
     37 H11        -3.4131   -1.3008    3.5251 H         1 <0>         0.1302
     38 H12        -5.7684   -1.0568    3.2175 H         1 <0>         0.1380
     39 H13        -5.4752   -1.4958    1.5182 H         1 <0>         0.1349
     40 H14        -7.8512   -1.8528    2.1340 H         1 <0>         0.1236
     41 H15        -7.0553   -3.3954    1.7365 H         1 <0>         0.1044
     42 H16        -6.5521   -4.4027    5.3138 H         1 <0>         0.1172
     43 H17        -6.2819   -4.9133    3.6294 H         1 <0>         0.1008
     44 H18        -4.2070   -3.9849    4.6221 H         1 <0>         0.1323
     45 H19        -5.0544   -2.4582    4.9651 H         1 <0>         0.1348
     46 H20        -8.4688   -4.4775    1.7449 H         1 <0>         0.1334
     47 H21       -10.6032   -5.7001    1.6358 H         1 <0>         0.1408
     48 H22       -11.4318   -4.6106    5.6773 H         1 <0>         0.1414
     49 H23        -9.2920   -3.3975    5.7879 H         1 <0>         0.1323
     50 H24        -7.7841   -2.2924    5.6589 H         1 <0>         0.3908
     51 H25        -0.4557   -2.5601   -0.4506 H         1 <0>         0.3775
     52 H26        -4.7059   -3.6321    2.2990 H         1 <0>         0.4210
@<TRIPOS>BOND
     1    1    6 ar
     2    1    2 ar
     3    1   28 1
     4    2    3 ar
     5    2   29 1
     6    3    4 ar
     7    3   27 1
     8    4    5 ar
     9    4   30 1
    10    5    6 ar
    11    5   31 1
    12    6    7 1
    13    7    8 1
    14    7    9 1
    15    7   26 1
    16    9   10 1
    17    9   32 1
    18    9   33 1
    19   10   11 1
    20   10   34 1
    21   10   35 1
    22   11   12 1
    23   11   36 1
    24   11   37 1
    25   12   17 1
    26   12   13 1
    27   12   52 1
    28   13   14 1
    29   13   38 1
    30   13   39 1
    31   14   15 1
    32   14   40 1
    33   14   41 1
    34   15   16 1
    35   15   18 1
    36   15   25 1
    37   16   17 1
    38   16   42 1
    39   16   43 1
    40   17   44 1
    41   17   45 1
    42   18   23 ar
    43   18   19 ar
    44   19   20 ar
    45   19   46 1
    46   20   21 ar
    47   20   47 1
    48   21   22 ar
    49   21   24 1
    50   22   23 ar
    51   22   48 1
    52   23   49 1
    53   25   50 1
    54   26   51 1
@<TRIPOS>MOLECULE
ZINC04257980
   52    54     0     0     0
SMALL
USER_CHARGES

@<TRIPOS>ATOM
      1 C1         -0.0167    1.3782    0.0096 C.ar      1 <0>        -0.0781
      2 C2          1.1703    2.0860    0.0021 C.ar      1 <0>        -0.1497
      3 C3          2.3786    1.4101   -0.0131 C.ar      1 <0>         0.1095
      4 C4          2.3962    0.0256   -0.0207 C.ar      1 <0>        -0.1491
      5 C5          1.2079   -0.6800   -0.0132 C.ar      1 <0>        -0.0822
      6 C6          0.0021   -0.0041    0.0020 C.ar      1 <0>        -0.1420
      7 C7         -1.2930   -0.7747    0.0103 C.3       1 <0>         0.1541
      8 H1         -2.0956   -0.1325    0.3729 H         1 <0>         0.1125
      9 C8         -1.6168   -1.2431   -1.4098 C.3       1 <0>        -0.1464
     10 C9         -2.9905   -1.9166   -1.4239 C.3       1 <0>        -0.1470
     11 C10        -3.3143   -2.3850   -2.8440 C.3       1 <0>        -0.0097
     12 N1         -4.6332   -3.0316   -2.8576 N.4       1 <0>        -0.3828
     13 C11        -4.5881   -4.2491   -2.0389 C.3       1 <0>        -0.0084
     14 C12        -5.9797   -4.8829   -1.9834 C.3       1 <0>        -0.1328
     15 C13        -6.4303   -5.2372   -3.4035 C.3       1 <0>         0.1746
     16 C14        -6.4022   -3.9732   -4.2677 C.3       1 <0>        -0.1705
     17 C15        -4.9949   -3.3731   -4.2385 C.3       1 <0>        -0.0021
     18 C16        -7.8317   -5.7900   -3.3644 C.ar      1 <0>        -0.1262
     19 C17        -8.7143   -5.3669   -2.3882 C.ar      1 <0>        -0.1006
     20 C18        -9.9997   -5.8735   -2.3518 C.ar      1 <0>        -0.1039
     21 C19       -10.4031   -6.8042   -3.2927 C.ar      1 <0>        -0.0247
     22 C20        -9.5193   -7.2272   -4.2695 C.ar      1 <0>        -0.1015
     23 C21        -8.2359   -6.7157   -4.3082 C.ar      1 <0>        -0.0934
     24 Cl1       -12.0173   -7.4413   -3.2473 Cl        1 <0>        -0.0499
     25 O1         -5.5451   -6.2135   -3.9560 O.3       1 <0>        -0.5475
     26 O2         -1.1663   -1.9098    0.8690 O.3       1 <0>        -0.5520
     27 F1          3.5396    2.1009   -0.0209 F         1 <0>        -0.1327
     28 H2         -0.9592    1.9052    0.0260 H         1 <0>         0.1347
     29 H3          1.1554    3.1659    0.0077 H         1 <0>         0.1411
     30 H4          3.3381   -0.5027   -0.0329 H         1 <0>         0.1406
     31 H5          1.2213   -1.7599   -0.0195 H         1 <0>         0.1298
     32 H6         -1.6258   -0.3852   -2.0822 H         1 <0>         0.0873
     33 H7         -0.8598   -1.9549   -1.7391 H         1 <0>         0.0804
     34 H8         -2.9815   -2.7744   -0.7516 H         1 <0>         0.0957
     35 H9         -3.7475   -1.2048   -1.0947 H         1 <0>         0.0886
     36 H10        -3.3233   -1.5271   -3.5164 H         1 <0>         0.1308
     37 H11        -2.5573   -3.0968   -3.1733 H         1 <0>         0.1301
     38 H12        -3.8846   -4.9561   -2.4785 H         1 <0>         0.1378
     39 H13        -4.2642   -3.9957   -1.0294 H         1 <0>         0.1360
     40 H14        -5.9437   -5.7876   -1.3766 H         1 <0>         0.1236
     41 H15        -6.6840   -4.1767   -1.5437 H         1 <0>         0.1041
     42 H16        -6.6682   -4.2278   -5.2936 H         1 <0>         0.1172
     43 H17        -7.1153   -3.2482   -3.8753 H         1 <0>         0.1007
     44 H18        -4.9714   -2.4731   -4.8530 H         1 <0>         0.1323
     45 H19        -4.2827   -4.0988   -4.6313 H         1 <0>         0.1348
     46 H20        -8.3992   -4.6406   -1.6536 H         1 <0>         0.1333
     47 H21       -10.6891   -5.5431   -1.5889 H         1 <0>         0.1408
     48 H22        -9.8335   -7.9539   -5.0040 H         1 <0>         0.1414
     49 H23        -7.5474   -7.0422   -5.0736 H         1 <0>         0.1323
     50 H24        -5.7714   -6.4850   -4.8561 H         1 <0>         0.3907
     51 H25        -0.4692   -2.5262    0.6060 H         1 <0>         0.3775
     52 H26        -5.3210   -2.3985   -2.4776 H         1 <0>         0.4206
@<TRIPOS>BOND
     1    1    6 ar
     2    1    2 ar
     3    1   28 1
     4    2    3 ar
     5    2   29 1
     6    3    4 ar
     7    3   27 1
     8    4    5 ar
     9    4   30 1
    10    5    6 ar
    11    5   31 1
    12    6    7 1
    13    7    8 1
    14    7    9 1
    15    7   26 1
    16    9   10 1
    17    9   32 1
    18    9   33 1
    19   10   11 1
    20   10   34 1
    21   10   35 1
    22   11   12 1
    23   11   36 1
    24   11   37 1
    25   12   17 1
    26   12   13 1
    27   12   52 1
    28   13   14 1
    29   13   38 1
    30   13   39 1
    31   14   15 1
    32   14   40 1
    33   14   41 1
    34   15   16 1
    35   15   18 1
    36   15   25 1
    37   16   17 1
    38   16   42 1
    39   16   43 1
    40   17   44 1
    41   17   45 1
    42   18   23 ar
    43   18   19 ar
    44   19   20 ar
    45   19   46 1
    46   20   21 ar
    47   20   47 1
    48   21   22 ar
    49   21   24 1
    50   22   23 ar
    51   22   48 1
    52   23   49 1
    53   25   50 1
    54   26   51 1
@<TRIPOS>MOLECULE
ZINC00020245
   46    48     0     0     0
SMALL
USER_CHARGES

@<TRIPOS>ATOM
      1 C1         -5.6836    1.3838    0.0162 C.3       1 <0>        -0.0473
      2 N1         -5.6620   -0.0833   -0.0564 N.4       1 <0>        -0.3868
      3 C2         -6.3713   -0.5242   -1.2649 C.3       1 <0>        -0.0522
      4 C3         -4.2702   -0.5505   -0.1076 C.3       1 <0>        -0.0086
      5 C4         -4.2434   -2.0795   -0.0575 C.3       1 <0>        -0.1781
      6 C5         -2.7938   -2.5661   -0.1108 C.3       1 <0>         0.1490
      7 N2         -2.7704   -4.0309   -0.1190 N.pl3     1 <0>        -0.6108
      8 C6         -2.7295   -4.7451   -1.3212 C.ar      1 <0>         0.1758
      9 C7         -1.6865   -4.4783   -2.2022 C.ar      1 <0>        -0.1411
     10 C8         -1.5734   -5.1772   -3.3856 C.ar      1 <0>        -0.1022
     11 C9         -2.5089   -6.1508   -3.6854 C.ar      1 <0>        -0.1266
     12 C10        -3.5489   -6.4041   -2.8209 C.ar      1 <0>        -0.1101
     13 C11        -3.6933   -5.6947   -1.6266 C.ar      1 <0>        -0.0998
     14 C12        -4.9357   -6.0340   -0.8354 C.3       1 <0>        -0.0687
     15 C13        -5.1005   -5.1892    0.4158 C.3       1 <0>        -0.0773
     16 C14        -3.9592   -5.4030    1.3779 C.ar      1 <0>        -0.0996
     17 C15        -2.7824   -4.7590    1.0748 C.ar      1 <0>         0.1523
     18 C16        -1.6837   -4.8488    1.9126 C.ar      1 <0>        -0.1184
     19 C17        -1.7825   -5.6251    3.0560 C.ar      1 <0>        -0.1094
     20 C18        -2.9565   -6.2950    3.3488 C.ar      1 <0>        -0.1165
     21 C19        -4.0679   -6.1865    2.5030 C.ar      1 <0>        -0.1028
     22 H1         -6.7163    1.7305    0.0542 H         1 <0>         0.1245
     23 H2         -5.1573    1.7109    0.9129 H         1 <0>         0.1235
     24 H3         -5.1933    1.7984   -0.8646 H         1 <0>         0.1221
     25 H4         -6.3552   -1.6128   -1.3188 H         1 <0>         0.1231
     26 H5         -7.4040   -0.1775   -1.2269 H         1 <0>         0.1246
     27 H6         -5.8810   -0.1096   -2.1457 H         1 <0>         0.1227
     28 H7         -3.8061   -0.2091   -1.0329 H         1 <0>         0.1308
     29 H8         -3.7207   -0.1494    0.7440 H         1 <0>         0.1320
     30 H9         -4.7075   -2.4209    0.8678 H         1 <0>         0.0908
     31 H10        -4.7929   -2.4806   -0.9091 H         1 <0>         0.0915
     32 H11        -2.3174   -2.1901   -1.0161 H         1 <0>         0.0824
     33 H12        -2.2550   -2.1990    0.7627 H         1 <0>         0.0801
     34 H13        -0.9599   -3.7176   -1.9576 H         1 <0>         0.1215
     35 H14        -0.7646   -4.9667   -4.0697 H         1 <0>         0.1276
     36 H15        -2.4229   -6.7145   -4.6025 H         1 <0>         0.1250
     37 H16        -4.2693   -7.1687   -3.0712 H         1 <0>         0.1222
     38 H17        -5.8074   -5.8880   -1.4734 H         1 <0>         0.0793
     39 H18        -4.8898   -7.0837   -0.5452 H         1 <0>         0.0765
     40 H19        -5.1365   -4.1371    0.1334 H         1 <0>         0.0724
     41 H20        -6.0358   -5.4578    0.9068 H         1 <0>         0.0709
     42 H21        -0.7686   -4.3248    1.6795 H         1 <0>         0.1257
     43 H22        -0.9372   -5.7074    3.7231 H         1 <0>         0.1275
     44 H23        -3.0178   -6.9071    4.2365 H         1 <0>         0.1269
     45 H24        -4.9880   -6.7067    2.7249 H         1 <0>         0.1290
     46 H25        -6.1159   -0.4671    0.7589 H         1 <0>         0.4268
@<TRIPOS>BOND
     1    1    2 1
     2    1   22 1
     3    1   23 1
     4    1   24 1
     5    2    3 1
     6    2    4 1
     7    2   46 1
     8    3   25 1
     9    3   26 1
    10    3   27 1
    11    4    5 1
    12    4   28 1
    13    4   29 1
    14    5    6 1
    15    5   30 1
    16    5   31 1
    17    6    7 1
    18    6   32 1
    19    6   33 1
    20    7   17 1
    21    7    8 1
    22    8   13 ar
    23    8    9 ar
    24    9   10 ar
    25    9   34 1
    26   10   11 ar
    27   10   35 1
    28   11   12 ar
    29   11   36 1
    30   12   13 ar
    31   12   37 1
    32   13   14 1
    33   14   15 1
    34   14   38 1
    35   14   39 1
    36   15   16 1
    37   15   40 1
    38   15   41 1
    39   16   21 ar
    40   16   17 ar
    41   17   18 ar
    42   18   19 ar
    43   18   42 1
    44   19   20 ar
    45   19   43 1
    46   20   21 ar
    47   20   44 1
    48   21   45 1
@<TRIPOS>MOLECULE
ZINC05832987
   45    46     0     0     0
SMALL
USER_CHARGES
6-dipropylaminotetralin-1,2-diol
@<TRIPOS>ATOM
      1 C1          4.0838    6.1486    0.2579 C.3       1 <0>        -0.1561
      2 C2          2.6904    5.5655    0.0144 C.3       1 <0>        -0.1487
      3 C3          2.7901    4.0445   -0.1183 C.3       1 <0>        -0.0174
      4 C4          0.8291    3.7966   -1.5167 C.3       1 <0>        -0.0132
      5 C5          1.5485    3.0281   -2.6270 C.3       1 <0>        -0.1475
      6 C6          1.0032    3.4676   -3.9873 C.3       1 <0>        -0.1559
      7 C7          1.4665    2.0205    0.0004 C.3       1 <0>         0.0259
      8 H1          2.0682    1.5414   -0.7718 H         1 <0>         0.1445
      9 C8          0.0373    1.4667   -0.0408 C.3       1 <0>        -0.1393
     10 C9          0.1120   -0.0588   -0.0496 C.3       1 <0>        -0.0726
     11 C10         0.9935   -0.5526    1.0676 C.ar      1 <0>        -0.0931
     12 C11         1.8938    0.2626    1.7174 C.ar      1 <0>        -0.0866
     13 C12         2.6841   -0.2556    2.7351 C.ar      1 <0>        -0.1013
     14 C13         2.5748   -1.5798    3.1076 C.ar      1 <0>        -0.1245
     15 C14         1.6679   -2.4036    2.4612 C.ar      1 <0>         0.0981
     16 C15         0.8781   -1.8882    1.4413 C.ar      1 <0>         0.0855
     17 O1         -0.0129   -2.6939    0.8037 O.3       1 <0>        -0.4823
     18 O2          1.5511   -3.7093    2.8234 O.3       1 <0>        -0.4841
     19 C16         2.0600    1.7204    1.3753 C.3       1 <0>        -0.0917
     20 H2          4.0128    7.2322    0.3524 H         1 <0>         0.0774
     21 H3          4.4975    5.7302    1.1754 H         1 <0>         0.0668
     22 H4          4.7338    5.8989   -0.5807 H         1 <0>         0.0668
     23 H5          2.2766    5.9839   -0.9031 H         1 <0>         0.0857
     24 H6          2.0404    5.8152    0.8530 H         1 <0>         0.0847
     25 H7          3.2923    3.6355    0.7584 H         1 <0>         0.1312
     26 H8          3.3600    3.7945   -1.0131 H         1 <0>         0.1325
     27 H9         -0.2235    3.5139   -1.5024 H         1 <0>         0.1303
     28 H10         0.9152    4.8674   -1.7014 H         1 <0>         0.1313
     29 H11         2.6173    3.2367   -2.5795 H         1 <0>         0.0836
     30 H12         1.3807    1.9591   -2.4965 H         1 <0>         0.0861
     31 H13         1.5157    2.9201   -4.7783 H         1 <0>         0.0768
     32 H14        -0.0656    3.2591   -4.0349 H         1 <0>         0.0674
     33 H15         1.1710    4.5366   -4.1179 H         1 <0>         0.0665
     34 H16        -0.4655    1.8149   -0.9430 H         1 <0>         0.0950
     35 H17        -0.5119    1.8023    0.8389 H         1 <0>         0.0932
     36 H18        -0.8903   -0.4684    0.0755 H         1 <0>         0.1038
     37 H19         0.5197   -0.3931   -1.0036 H         1 <0>         0.0867
     38 H20         3.3924    0.3846    3.2400 H         1 <0>         0.1339
     39 H21         3.1940   -1.9725    3.9007 H         1 <0>         0.1418
     40 H22         0.3494   -3.1455    0.0292 H         1 <0>         0.3916
     41 H23         2.1368   -4.3061    2.3377 H         1 <0>         0.3954
     42 H24         1.5521    2.3259    2.1260 H         1 <0>         0.0977
     43 H25         3.1210    1.9699    1.3710 H         1 <0>         0.1003
     44 N1          1.4248    3.4843   -0.2006 N.4       1 <0>        -0.3928
     45 H26         0.8464    3.9057    0.5357 H         1 <0>         0.4265
@<TRIPOS>BOND
     1    1    2 1
     2    1   20 1
     3    1   21 1
     4    1   22 1
     5    2    3 1
     6    2   23 1
     7    2   24 1
     8    3   25 1
     9    3   26 1
    10    3   44 1
    11    4    5 1
    12    4   27 1
    13    4   28 1
    14    4   44 1
    15    5    6 1
    16    5   29 1
    17    5   30 1
    18    6   31 1
    19    6   32 1
    20    6   33 1
    21    7    8 1
    22    7   19 1
    23    7    9 1
    24    7   44 1
    25    9   10 1
    26    9   34 1
    27    9   35 1
    28   10   11 1
    29   10   36 1
    30   10   37 1
    31   11   16 ar
    32   11   12 ar
    33   12   13 ar
    34   12   19 1
    35   13   14 ar
    36   13   38 1
    37   14   15 ar
    38   14   39 1
    39   15   16 ar
    40   15   18 1
    41   16   17 1
    42   17   40 1
    43   18   41 1
    44   19   42 1
    45   19   43 1
    46   44   45 1
@<TRIPOS>MOLECULE
ZINC05833076
   45    46     0     0     0
SMALL
USER_CHARGES
6-dipropylaminotetralin-1,2-diol
@<TRIPOS>ATOM
      1 C1         -0.1778    6.7385   -1.2871 C.3       1 <0>        -0.1561
      2 C2          0.7374    5.9534   -0.3453 C.3       1 <0>        -0.1504
      3 C3          0.6496    4.4619   -0.6748 C.3       1 <0>        -0.0141
      4 C4          1.0503    3.7883    1.6161 C.3       1 <0>        -0.0141
      5 C5          2.1955    3.4456    2.5710 C.3       1 <0>        -0.1499
      6 C6          1.7348    3.6532    4.0152 C.3       1 <0>        -0.1558
      7 C7          1.6549    2.3101   -0.2037 C.3       1 <0>         0.0261
      8 H1          2.1625    1.7308    0.5675 H         1 <0>         0.1420
      9 C8          0.2628    1.7208   -0.4599 C.3       1 <0>        -0.1333
     10 C9          0.4086    0.2153   -0.6716 C.3       1 <0>        -0.0702
     11 C10         1.4632   -0.0744   -1.7074 C.ar      1 <0>        -0.0927
     12 C11         2.4072    0.8552   -2.0847 C.ar      1 <0>        -0.0865
     13 C12         3.3585    0.5236   -3.0407 C.ar      1 <0>        -0.1009
     14 C13         3.3670   -0.7278   -3.6222 C.ar      1 <0>        -0.1247
     15 C14         2.4176   -1.6656   -3.2504 C.ar      1 <0>         0.0985
     16 C15         1.4667   -1.3372   -2.2924 C.ar      1 <0>         0.0851
     17 O1          0.5337   -2.2554   -1.9237 O.3       1 <0>        -0.4820
     18 O2          2.4163   -2.9004   -3.8201 O.3       1 <0>        -0.4843
     19 C16         2.4526    2.2448   -1.5044 C.3       1 <0>        -0.0930
     20 H2         -0.1153    7.8011   -1.0523 H         1 <0>         0.0775
     21 H3          0.1357    6.5751   -2.3182 H         1 <0>         0.0669
     22 H4         -1.2058    6.3986   -1.1617 H         1 <0>         0.0667
     23 H5          0.4239    6.1167    0.6858 H         1 <0>         0.0858
     24 H6          1.7654    6.2933   -0.4707 H         1 <0>         0.0856
     25 H7          0.9631    4.2985   -1.7059 H         1 <0>         0.1296
     26 H8         -0.3784    4.1220   -0.5494 H         1 <0>         0.1325
     27 H9          0.6967    4.7989    1.8207 H         1 <0>         0.1328
     28 H10         0.2332    3.0814    1.7602 H         1 <0>         0.1317
     29 H11         2.4880    2.4053    2.4290 H         1 <0>         0.0850
     30 H12         3.0471    4.0940    2.3645 H         1 <0>         0.0849
     31 H13         2.5507    3.4091    4.6955 H         1 <0>         0.0774
     32 H14         1.4423    4.6936    4.1572 H         1 <0>         0.0668
     33 H15         0.8833    3.0049    4.2217 H         1 <0>         0.0671
     34 H16        -0.1707    2.1765   -1.3501 H         1 <0>         0.0924
     35 H17        -0.3799    1.9101    0.4000 H         1 <0>         0.0917
     36 H18         0.6914   -0.2544    0.2704 H         1 <0>         0.0919
     37 H19        -0.5448   -0.1947   -1.0050 H         1 <0>         0.0965
     38 H20         4.1001    1.2528   -3.3316 H         1 <0>         0.1342
     39 H21         4.1109   -0.9750   -4.3650 H         1 <0>         0.1418
     40 H22        -0.2754   -2.2280   -2.4525 H         1 <0>         0.3912
     41 H23         1.8772   -2.9638   -4.6204 H         1 <0>         0.3956
     42 H24         3.4889    2.5171   -1.3044 H         1 <0>         0.1005
     43 H25         2.0289    2.9478   -2.2216 H         1 <0>         0.0975
     44 N1          1.5544    3.7200    0.2284 N.4       1 <0>        -0.3932
     45 H26         2.4871    4.1476    0.1910 H         1 <0>         0.4261
@<TRIPOS>BOND
     1    1    2 1
     2    1   20 1
     3    1   21 1
     4    1   22 1
     5    2    3 1
     6    2   23 1
     7    2   24 1
     8    3   25 1
     9    3   26 1
    10    3   44 1
    11    4    5 1
    12    4   27 1
    13    4   28 1
    14    4   44 1
    15    5    6 1
    16    5   29 1
    17    5   30 1
    18    6   31 1
    19    6   32 1
    20    6   33 1
    21    7    8 1
    22    7   19 1
    23    7    9 1
    24    7   44 1
    25    9   10 1
    26    9   34 1
    27    9   35 1
    28   10   11 1
    29   10   36 1
    30   10   37 1
    31   11   16 ar
    32   11   12 ar
    33   12   13 ar
    34   12   19 1
    35   13   14 ar
    36   13   38 1
    37   14   15 ar
    38   14   39 1
    39   15   16 ar
    40   15   18 1
    41   16   17 1
    42   17   40 1
    43   18   41 1
    44   19   42 1
    45   19   43 1
    46   44   45 1
@<TRIPOS>MOLECULE
ZINC01915508
   64    68     0     0     0
SMALL
USER_CHARGES
8-[4-[4-(9-thia-8-azabicyclo[4.3.0]nona-2,4,7,10-tetraen-7-yl)piperazin-1-yl]butyl]-8-azaspiro[4.5]decane-7,9-dione
@<TRIPOS>ATOM
      1 C1         -0.1854    3.0363    3.0585 C.ar      1 <0>        -0.1227
      2 C2          0.9702    2.2871    2.8731 C.ar      1 <0>        -0.0631
      3 C3          1.7797    2.5384    1.7969 C.ar      1 <0>        -0.0775
      4 C4          1.4398    3.5390    0.9109 C.ar      1 <0>        -0.1195
      5 C5          0.2738    4.3208    1.0775 C.ar      1 <0>        -0.1259
      6 C6         -0.5340    4.0311    2.1987 C.ar      1 <0>        -0.0351
      7 C7          0.1089    5.3174    0.0302 C.2       1 <0>         0.2965
      8 N1          0.9929    5.4074   -0.9213 N.2       1 <0>        -0.4531
      9 S1          2.1517    4.2026   -0.5700 S.3       1 <0>         0.2239
     10 N2         -0.9928    6.1742    0.0458 N.pl3     1 <0>        -0.4740
     11 C8         -1.8260    5.9826   -1.1494 C.3       1 <0>         0.0288
     12 C9         -3.0618    6.8807   -1.0559 C.3       1 <0>         0.0019
     13 C10        -1.8041    8.4738    0.2628 C.3       1 <0>         0.0063
     14 C11        -0.5684    7.5757    0.1693 C.3       1 <0>         0.0281
     15 C12        -3.7969    9.1840   -0.9159 C.3       1 <0>        -0.0018
     16 C13        -4.4982    9.1379   -2.2750 C.3       1 <0>        -0.1459
     17 C14        -5.7059   10.0771   -2.2578 C.3       1 <0>        -0.1286
     18 C15        -6.4072   10.0310   -3.6168 C.3       1 <0>         0.0907
     19 N3         -7.5636   10.9302   -3.6003 N.am      1 <0>        -0.5674
     20 C16        -8.7518   10.4404   -3.2171 C.2       1 <0>         0.5275
     21 O1         -8.8357    9.2783   -2.8824 O.2       1 <0>        -0.4991
     22 C17        -9.9833   11.3079   -3.1892 C.3       1 <0>        -0.1340
     23 C18        -9.5725   12.7603   -2.9521 C.3       1 <0>        -0.0662
     24 C19       -10.8015   13.6767   -3.0258 C.3       1 <0>        -0.1145
     25 C20       -10.9201   14.3606   -1.6469 C.3       1 <0>        -0.1263
     26 C21        -9.4840   14.3020   -1.0687 C.3       1 <0>        -0.1244
     27 C22        -8.9806   12.9141   -1.5400 C.3       1 <0>        -0.1218
     28 C23        -8.5400   13.1786   -3.9978 C.3       1 <0>        -0.1329
     29 C24        -7.3893   12.2063   -3.9743 C.2       1 <0>         0.5269
     30 O2         -6.2846   12.5847   -4.3000 O.2       1 <0>        -0.4987
     31 H1         -0.8189    2.8271    3.9078 H         1 <0>         0.1379
     32 H2          1.2271    1.5059    3.5731 H         1 <0>         0.1446
     33 H3          2.6772    1.9577    1.6438 H         1 <0>         0.1426
     34 H4         -1.4362    4.5989    2.3719 H         1 <0>         0.1355
     35 H5         -1.2524    6.2448   -2.0384 H         1 <0>         0.0752
     36 H6         -2.1380    4.9401   -1.2119 H         1 <0>         0.1258
     37 H7         -3.6497    6.6005   -0.1819 H         1 <0>         0.1430
     38 H8         -3.6669    6.7619   -1.9547 H         1 <0>         0.1398
     39 H9         -2.3778    8.2117    1.1518 H         1 <0>         0.1425
     40 H10        -1.4921    9.5163    0.3257 H         1 <0>         0.1394
     41 H11         0.0365    7.6946    1.0683 H         1 <0>         0.1260
     42 H12         0.0195    7.8560   -0.7047 H         1 <0>         0.0753
     43 H13        -4.4917    8.8682   -0.1377 H         1 <0>         0.1343
     44 H14        -3.4629   10.2016   -0.7137 H         1 <0>         0.1317
     45 H15        -3.8034    9.4537   -3.0532 H         1 <0>         0.0910
     46 H16        -4.8321    8.1202   -2.4772 H         1 <0>         0.0910
     47 H17        -6.4007    9.7613   -1.4795 H         1 <0>         0.0800
     48 H18        -5.3719   11.0947   -2.0556 H         1 <0>         0.0795
     49 H19        -5.7124   10.3468   -4.3951 H         1 <0>         0.0985
     50 H20        -6.7411    9.0133   -3.8190 H         1 <0>         0.0987
     51 H21       -10.6438   10.9805   -2.3863 H         1 <0>         0.1190
     52 H22       -10.5031   11.2276   -4.1439 H         1 <0>         0.1155
     53 H23       -10.6624   14.4268   -3.8044 H         1 <0>         0.0769
     54 H24       -11.6956   13.0875   -3.2291 H         1 <0>         0.0769
     55 H25       -11.6116   13.8121   -1.0073 H         1 <0>         0.0700
     56 H26       -11.2444   15.3952   -1.7587 H         1 <0>         0.0725
     57 H27        -9.5035   14.3564    0.0198 H         1 <0>         0.0709
     58 H28        -8.8653   15.0981   -1.4826 H         1 <0>         0.0705
     59 H29        -9.3535   12.1291   -0.8821 H         1 <0>         0.0742
     60 H30        -7.8914   12.8959   -1.5784 H         1 <0>         0.0612
     61 H31        -8.1754   14.1800   -3.7693 H         1 <0>         0.1185
     62 H32        -9.0001   13.1744   -4.9859 H         1 <0>         0.1158
     63 N4         -2.6214    8.2879   -0.9547 N.4       1 <0>        -0.3991
     64 H33        -2.0524    8.5196   -1.7774 H         1 <0>         0.4266
@<TRIPOS>BOND
     1    1    6 ar
     2    1    2 ar
     3    1   31 1
     4    2    3 ar
     5    2   32 1
     6    3    4 ar
     7    3   33 1
     8    4    9 1
     9    4    5 ar
    10    5    6 ar
    11    5    7 1
    12    6   34 1
    13    7    8 2
    14    7   10 1
    15    8    9 1
    16   10   14 1
    17   10   11 1
    18   11   12 1
    19   11   35 1
    20   11   36 1
    21   12   37 1
    22   12   38 1
    23   12   63 1
    24   13   14 1
    25   13   39 1
    26   13   40 1
    27   13   63 1
    28   14   41 1
    29   14   42 1
    30   15   16 1
    31   15   43 1
    32   15   44 1
    33   15   63 1
    34   16   17 1
    35   16   45 1
    36   16   46 1
    37   17   18 1
    38   17   47 1
    39   17   48 1
    40   18   19 1
    41   18   49 1
    42   18   50 1
    43   19   29 am
    44   19   20 am
    45   20   21 2
    46   20   22 1
    47   22   23 1
    48   22   51 1
    49   22   52 1
    50   23   27 1
    51   23   24 1
    52   23   28 1
    53   24   25 1
    54   24   53 1
    55   24   54 1
    56   25   26 1
    57   25   55 1
    58   25   56 1
    59   26   27 1
    60   26   57 1
    61   26   58 1
    62   27   59 1
    63   27   60 1
    64   28   29 1
    65   28   61 1
    66   28   62 1
    67   29   30 2
    68   63   64 1
@<TRIPOS>MOLECULE
ZINC56965850
   56    59     0     0     0
SMALL
USER_CHARGES

@<TRIPOS>ATOM
      1 C1         -0.0173    1.4248    0.0099 C.3       1 <0>         0.0251
      2 O1          0.0021   -0.0041    0.0020 O.3       1 <0>        -0.3038
      3 C2         -1.2013   -0.6380    0.0101 C.ar      1 <0>         0.1201
      4 C3         -2.3740    0.0989    0.0195 C.ar      1 <0>        -0.2065
      5 C4         -3.5967   -0.5469    0.0283 C.ar      1 <0>        -0.0833
      6 C5         -3.6532   -1.9283    0.0271 C.ar      1 <0>        -0.1524
      7 C6         -2.4875   -2.6710    0.0173 C.ar      1 <0>        -0.0880
      8 C7         -1.2572   -2.0300    0.0032 C.ar      1 <0>         0.1385
      9 N1         -0.0754   -2.7797   -0.0127 N.pl3     1 <0>        -0.6683
     10 C8          0.5713   -3.1961    1.2410 C.3       1 <0>         0.1532
     11 C9          0.8354   -4.7041    1.1750 C.3       1 <0>         0.0428
     12 N2          1.5913   -5.0126   -0.0462 N.3       1 <0>        -0.5298
     13 C10         0.8175   -4.6811   -1.2500 C.3       1 <0>         0.0354
     14 C11         0.5494   -3.1773   -1.2834 C.3       1 <0>         0.1531
     15 C12         2.0135   -6.4196   -0.0626 C.3       1 <0>         0.0450
     16 C13         2.9994   -6.6428   -1.2111 C.3       1 <0>         0.1217
     17 N3          3.4204   -8.0459   -1.2276 N.am      1 <0>        -0.7270
     18 C14         4.2932   -8.4767   -2.1598 C.2       1 <0>         0.5607
     19 O2          4.7311   -7.7010   -2.9870 O.2       1 <0>        -0.5331
     20 C15         4.7179   -9.8920   -2.1764 C.ar      1 <0>        -0.1389
     21 C16         4.2035  -10.7862   -1.2203 C.ar      1 <0>        -0.0930
     22 C17         4.5782  -12.0907   -1.2150 C.ar      1 <0>        -0.1082
     23 C18         5.4927  -12.5644   -2.1737 C.ar      1 <0>        -0.0338
     24 C19         5.8953  -13.9102   -2.1881 C.ar      1 <0>        -0.1133
     25 C20         6.7814  -14.3396   -3.1282 C.ar      1 <0>        -0.1033
     26 C21         7.2988  -13.4634   -4.0805 C.ar      1 <0>        -0.1183
     27 C22         6.9324  -12.1529   -4.0981 C.ar      1 <0>        -0.0954
     28 C23         6.0185  -11.6727   -3.1428 C.ar      1 <0>        -0.0640
     29 C24         5.6150  -10.3291   -3.1366 C.ar      1 <0>        -0.0299
     30 H1          1.0053    1.8021    0.0021 H         1 <0>         0.0994
     31 H2         -0.5445    1.7859   -0.8732 H         1 <0>         0.0538
     32 H3         -0.5275    1.7763    0.9067 H         1 <0>         0.0537
     33 H4         -2.3335    1.1781    0.0204 H         1 <0>         0.1277
     34 H5         -4.5101    0.0293    0.0363 H         1 <0>         0.1245
     35 H6         -4.6104   -2.4284    0.0343 H         1 <0>         0.1238
     36 H7         -2.5344   -3.7500    0.0168 H         1 <0>         0.1250
     37 H8          1.5150   -2.6639    1.3604 H         1 <0>         0.0593
     38 H9         -0.0855   -2.9758    2.0825 H         1 <0>         0.0705
     39 H10         1.4125   -5.0108    2.0473 H         1 <0>         0.0812
     40 H11        -0.1140   -5.2393    1.1600 H         1 <0>         0.0363
     41 H12         1.3817   -4.9710   -2.1364 H         1 <0>         0.0843
     42 H13        -0.1317   -5.2166   -1.2312 H         1 <0>         0.0364
     43 H14        -0.1219   -2.9447   -2.1101 H         1 <0>         0.0703
     44 H15         1.4910   -2.6433   -1.4113 H         1 <0>         0.0593
     45 H16         2.4960   -6.6652    0.8834 H         1 <0>         0.0821
     46 H17         1.1418   -7.0588   -0.2026 H         1 <0>         0.0399
     47 H18         2.5169   -6.3971   -2.1571 H         1 <0>         0.0703
     48 H19         3.8711   -6.0035   -1.0711 H         1 <0>         0.0802
     49 H20         3.0710   -8.6649   -0.5675 H         1 <0>         0.3994
     50 H21         3.5016  -10.4302   -0.4807 H         1 <0>         0.1250
     51 H22         4.1745  -12.7653   -0.4744 H         1 <0>         0.1335
     52 H23         5.5038  -14.6013   -1.4563 H         1 <0>         0.1303
     53 H24         7.0884  -15.3750   -3.1360 H         1 <0>         0.1265
     54 H25         8.0009  -13.8296   -4.8149 H         1 <0>         0.1272
     55 H26         7.3415  -11.4849   -4.8416 H         1 <0>         0.1319
     56 H27         6.0043   -9.6402   -3.8717 H         1 <0>         0.1431
@<TRIPOS>BOND
     1    1    2 1
     2    1   30 1
     3    1   31 1
     4    1   32 1
     5    2    3 1
     6    3    8 ar
     7    3    4 ar
     8    4    5 ar
     9    4   33 1
    10    5    6 ar
    11    5   34 1
    12    6    7 ar
    13    6   35 1
    14    7    8 ar
    15    7   36 1
    16    8    9 1
    17    9   14 1
    18    9   10 1
    19   10   11 1
    20   10   37 1
    21   10   38 1
    22   11   12 1
    23   11   39 1
    24   11   40 1
    25   12   13 1
    26   12   15 1
    27   13   14 1
    28   13   41 1
    29   13   42 1
    30   14   43 1
    31   14   44 1
    32   15   16 1
    33   15   45 1
    34   15   46 1
    35   16   17 1
    36   16   47 1
    37   16   48 1
    38   17   18 am
    39   17   49 1
    40   18   19 2
    41   18   20 1
    42   20   29 ar
    43   20   21 ar
    44   21   22 ar
    45   21   50 1
    46   22   23 ar
    47   22   51 1
    48   23   28 ar
    49   23   24 ar
    50   24   25 ar
    51   24   52 1
    52   25   26 ar
    53   25   53 1
    54   26   27 ar
    55   26   54 1
    56   27   28 ar
    57   27   55 1
    58   28   29 ar
    59   29   56 1
@<TRIPOS>MOLECULE
ZINC56966182
   57    60     0     0     0
SMALL
USER_CHARGES

@<TRIPOS>ATOM
      1 C1         -0.0173    1.4248    0.0099 C.3       1 <0>         0.0252
      2 O1          0.0021   -0.0041    0.0020 O.3       1 <0>        -0.3041
      3 C2          0.6263   -0.6189    1.0423 C.ar      1 <0>         0.1199
      4 C3          1.2020    0.1362    2.0507 C.ar      1 <0>        -0.2066
      5 C4          1.8368   -0.4902    3.1075 C.ar      1 <0>        -0.0833
      6 C5          1.8987   -1.8703    3.1618 C.ar      1 <0>        -0.1520
      7 C6          1.3263   -2.6311    2.1598 C.ar      1 <0>        -0.0877
      8 C7          0.6832   -2.0097    1.0992 C.ar      1 <0>         0.1384
      9 N1          0.0978   -2.7779    0.0862 N.pl3     1 <0>        -0.6683
     10 C8          0.8705   -3.1791   -1.0992 C.3       1 <0>         0.1535
     11 C9          0.7192   -4.6921   -1.2897 C.3       1 <0>         0.0422
     12 N2         -0.7081   -5.0367   -1.3328 N.3       1 <0>        -0.5318
     13 C10        -1.3720   -4.7173   -0.0619 C.3       1 <0>         0.0326
     14 C11        -1.3047   -3.2105    0.1818 C.3       1 <0>         0.1531
     15 C12        -0.8980   -6.4501   -1.6852 C.3       1 <0>         0.0493
     16 C13        -2.3795   -6.7116   -1.9641 C.3       1 <0>         0.1171
     17 N3         -2.5689   -8.1211   -2.3156 N.pl3     1 <0>        -1.1169
     18 S1         -4.0882   -8.7799   -2.3064 S.o2      1 <0>         2.6961
     19 O2         -3.9460  -10.1344   -2.7117 O.2       1 <0>        -0.9569
     20 O3         -4.6823   -8.4133   -1.0687 O.2       1 <0>        -0.9519
     21 C14        -5.0143   -7.9711   -3.5686 C.ar      1 <0>        -0.6726
     22 C15        -5.7290   -6.8147   -3.2615 C.ar      1 <0>        -0.0454
     23 C16        -6.4547   -6.1660   -4.2127 C.ar      1 <0>        -0.1156
     24 C17        -6.4855   -6.6668   -5.5255 C.ar      1 <0>        -0.0115
     25 C18        -7.2230   -6.0243   -6.5346 C.ar      1 <0>        -0.1193
     26 C19        -7.2292   -6.5379   -7.7949 C.ar      1 <0>        -0.0930
     27 C20        -6.5142   -7.6942   -8.1020 C.ar      1 <0>        -0.1217
     28 C21        -5.7889   -8.3431   -7.1507 C.ar      1 <0>        -0.0902
     29 C22        -5.7584   -7.8425   -5.8378 C.ar      1 <0>        -0.0800
     30 C23        -5.0164   -8.4819   -4.8300 C.ar      1 <0>         0.0203
     31 H1          1.0053    1.8021    0.0021 H         1 <0>         0.0536
     32 H2         -0.5445    1.7859   -0.8732 H         1 <0>         0.0991
     33 H3         -0.5275    1.7763    0.9067 H         1 <0>         0.0538
     34 H4          1.1555    1.2145    2.0114 H         1 <0>         0.1275
     35 H5          2.2858    0.1003    3.8925 H         1 <0>         0.1244
     36 H6          2.3959   -2.3551    3.9890 H         1 <0>         0.1239
     37 H7          1.3765   -3.7090    2.2044 H         1 <0>         0.1254
     38 H8          0.4889   -2.6595   -1.9781 H         1 <0>         0.0587
     39 H9          1.9218   -2.9319   -0.9519 H         1 <0>         0.0701
     40 H10         1.1938   -4.9902   -2.2246 H         1 <0>         0.0811
     41 H11         1.1942   -5.2127   -0.4581 H         1 <0>         0.0371
     42 H12        -2.4141   -5.0337   -0.1064 H         1 <0>         0.0849
     43 H13        -0.8680   -5.2375    0.7526 H         1 <0>         0.0384
     44 H14        -1.6908   -2.9840    1.1756 H         1 <0>         0.0706
     45 H15        -1.8994   -2.6939   -0.5716 H         1 <0>         0.0586
     46 H16        -0.3139   -6.6843   -2.5752 H         1 <0>         0.0835
     47 H17        -0.5676   -7.0784   -0.8581 H         1 <0>         0.0441
     48 H18        -2.9636   -6.4774   -1.0741 H         1 <0>         0.0816
     49 H19        -2.7099   -6.0833   -2.7912 H         1 <0>         0.0774
     50 H20        -1.8043   -8.6686   -2.5536 H         1 <0>         0.4193
     51 H21        -5.7070   -6.4278   -2.2534 H         1 <0>         0.1396
     52 H22        -7.0043   -5.2713   -3.9599 H         1 <0>         0.1370
     53 H23        -7.7821   -5.1277   -6.3111 H         1 <0>         0.1331
     54 H24        -7.7970   -6.0424   -8.5684 H         1 <0>         0.1289
     55 H25        -6.5362   -8.0812   -9.1101 H         1 <0>         0.1292
     56 H26        -5.2400   -9.2382   -7.4032 H         1 <0>         0.1338
     57 H27        -4.4540   -9.3762   -5.0545 H         1 <0>         0.1460
@<TRIPOS>BOND
     1    1    2 1
     2    1   31 1
     3    1   32 1
     4    1   33 1
     5    2    3 1
     6    3    8 ar
     7    3    4 ar
     8    4    5 ar
     9    4   34 1
    10    5    6 ar
    11    5   35 1
    12    6    7 ar
    13    6   36 1
    14    7    8 ar
    15    7   37 1
    16    8    9 1
    17    9   14 1
    18    9   10 1
    19   10   11 1
    20   10   38 1
    21   10   39 1
    22   11   12 1
    23   11   40 1
    24   11   41 1
    25   12   13 1
    26   12   15 1
    27   13   14 1
    28   13   42 1
    29   13   43 1
    30   14   44 1
    31   14   45 1
    32   15   16 1
    33   15   46 1
    34   15   47 1
    35   16   17 1
    36   16   48 1
    37   16   49 1
    38   17   18 1
    39   17   50 1
    40   18   19 2
    41   18   20 2
    42   18   21 1
    43   21   30 ar
    44   21   22 ar
    45   22   23 ar
    46   22   51 1
    47   23   24 ar
    48   23   52 1
    49   24   29 ar
    50   24   25 ar
    51   25   26 ar
    52   25   53 1
    53   26   27 ar
    54   26   54 1
    55   27   28 ar
    56   27   55 1
    57   28   29 ar
    58   28   56 1
    59   29   30 ar
    60   30   57 1
@<TRIPOS>MOLECULE
ZINC11909404
   60    63     0     0     0
SMALL
USER_CHARGES

@<TRIPOS>ATOM
      1 C1         -0.0173    1.4248    0.0099 C.3       1 <0>         0.0228
      2 O1          0.0021   -0.0041    0.0020 O.3       1 <0>        -0.3113
      3 C2         -1.2013   -0.6380    0.0101 C.ar      1 <0>         0.1289
      4 C3         -2.3740    0.0989    0.0195 C.ar      1 <0>        -0.2022
      5 C4         -3.5967   -0.5469    0.0283 C.ar      1 <0>        -0.0668
      6 C5         -3.6532   -1.9283    0.0271 C.ar      1 <0>        -0.1489
      7 C6         -2.4875   -2.6710    0.0173 C.ar      1 <0>        -0.0820
      8 C7         -1.2572   -2.0300    0.0032 C.ar      1 <0>         0.1085
      9 N1         -0.0754   -2.7797   -0.0127 N.pl3     1 <0>        -0.6634
     10 C8          0.5725   -3.1969    1.2404 C.3       1 <0>         0.1218
     11 C9          0.8530   -4.7014    1.1647 C.3       1 <0>        -0.0224
     12 N2          1.6309   -4.9929   -0.0461 N.4       1 <0>        -0.3796
     13 C10         0.8351   -4.6789   -1.2395 C.3       1 <0>        -0.0281
     14 C11         0.5506   -3.1781   -1.2829 C.3       1 <0>         0.1223
     15 C12         1.9935   -6.4164   -0.0621 C.3       1 <0>        -0.0057
     16 C13         2.9078   -6.6964   -1.2565 C.3       1 <0>        -0.1633
     17 C14         3.2853   -8.1790   -1.2732 C.3       1 <0>         0.1246
     18 N3          4.1608   -8.4471   -2.4169 N.am      1 <0>        -0.7346
     19 C15         4.6224   -9.6945   -2.6343 C.2       1 <0>         0.5667
     20 O2          4.3124  -10.5972   -1.8814 O.2       1 <0>        -0.5275
     21 C16         5.5055   -9.9650   -3.7879 C.ar      1 <0>        -0.1507
     22 C17         5.8655   -8.9154   -4.6523 C.ar      1 <0>        -0.0976
     23 C18         6.6753   -9.1386   -5.7184 C.ar      1 <0>        -0.1042
     24 C19         7.1657  -10.4330   -5.9711 C.ar      1 <0>        -0.0313
     25 C20         8.0053  -10.6884   -7.0682 C.ar      1 <0>        -0.1152
     26 C21         8.4646  -11.9512   -7.2870 C.ar      1 <0>        -0.0969
     27 C22         8.1147  -12.9997   -6.4382 C.ar      1 <0>        -0.1134
     28 C23         7.3037  -12.7910   -5.3655 C.ar      1 <0>        -0.0961
     29 C24         6.8099  -11.4995   -5.1070 C.ar      1 <0>        -0.0654
     30 C25         5.9768  -11.2487   -4.0064 C.ar      1 <0>        -0.0222
     31 H1          1.0053    1.8021    0.0021 H         1 <0>         0.1035
     32 H2         -0.5445    1.7859   -0.8732 H         1 <0>         0.0589
     33 H3         -0.5275    1.7763    0.9067 H         1 <0>         0.0590
     34 H4         -2.3335    1.1781    0.0204 H         1 <0>         0.1341
     35 H5         -4.5101    0.0293    0.0363 H         1 <0>         0.1320
     36 H6         -4.6104   -2.4284    0.0343 H         1 <0>         0.1307
     37 H7         -2.5344   -3.7500    0.0168 H         1 <0>         0.1267
     38 H8          1.5101   -2.6554    1.3659 H         1 <0>         0.0780
     39 H9         -0.0891   -2.9896    2.0815 H         1 <0>         0.1145
     40 H10         1.4191   -5.0102    2.0435 H         1 <0>         0.1370
     41 H11        -0.0906   -5.2458    1.1302 H         1 <0>         0.1307
     42 H12         1.3880   -4.9711   -2.1323 H         1 <0>         0.1363
     43 H13        -0.1080   -5.2240   -1.2012 H         1 <0>         0.1309
     44 H14        -0.1254   -2.9583   -2.1092 H         1 <0>         0.1138
     45 H15         1.4860   -2.6346   -1.4165 H         1 <0>         0.0770
     46 H16         2.5145   -6.6690    0.8613 H         1 <0>         0.1361
     47 H17         1.0901   -7.0204   -0.1466 H         1 <0>         0.1337
     48 H18         2.3868   -6.4437   -2.1800 H         1 <0>         0.0948
     49 H19         3.8111   -6.0923   -1.1721 H         1 <0>         0.0955
     50 H20         3.8063   -8.4316   -0.3497 H         1 <0>         0.0798
     51 H21         2.3820   -8.7830   -1.3577 H         1 <0>         0.0794
     52 H22         4.4082   -7.7268   -3.0176 H         1 <0>         0.4028
     53 H23         5.4926   -7.9192   -4.4655 H         1 <0>         0.1212
     54 H24         6.9429   -8.3226   -6.3733 H         1 <0>         0.1345
     55 H25         8.2848   -9.8865   -7.7354 H         1 <0>         0.1324
     56 H26         9.1098  -12.1434   -8.1315 H         1 <0>         0.1299
     57 H27         8.4923  -13.9922   -6.6348 H         1 <0>         0.1305
     58 H28         7.0403  -13.6128   -4.7162 H         1 <0>         0.1336
     59 H29         5.7016  -12.0509   -3.3377 H         1 <0>         0.1434
     60 H30         2.4712   -4.4343   -0.0471 H         1 <0>         0.4224
@<TRIPOS>BOND
     1    1    2 1
     2    1   31 1
     3    1   32 1
     4    1   33 1
     5    2    3 1
     6    3    8 ar
     7    3    4 ar
     8    4    5 ar
     9    4   34 1
    10    5    6 ar
    11    5   35 1
    12    6    7 ar
    13    6   36 1
    14    7    8 ar
    15    7   37 1
    16    8    9 1
    17    9   14 1
    18    9   10 1
    19   10   11 1
    20   10   38 1
    21   10   39 1
    22   11   12 1
    23   11   40 1
    24   11   41 1
    25   12   13 1
    26   12   15 1
    27   12   60 1
    28   13   14 1
    29   13   42 1
    30   13   43 1
    31   14   44 1
    32   14   45 1
    33   15   16 1
    34   15   46 1
    35   15   47 1
    36   16   17 1
    37   16   48 1
    38   16   49 1
    39   17   18 1
    40   17   50 1
    41   17   51 1
    42   18   19 am
    43   18   52 1
    44   19   20 2
    45   19   21 1
    46   21   30 ar
    47   21   22 ar
    48   22   23 ar
    49   22   53 1
    50   23   24 ar
    51   23   54 1
    52   24   29 ar
    53   24   25 ar
    54   25   26 ar
    55   25   55 1
    56   26   27 ar
    57   26   56 1
    58   27   28 ar
    59   27   57 1
    60   28   29 ar
    61   28   58 1
    62   29   30 ar
    63   30   59 1
@<TRIPOS>MOLECULE
ZINC11909404
   59    62     0     0     0
SMALL
USER_CHARGES

@<TRIPOS>ATOM
      1 C1         -0.0173    1.4248    0.0099 C.3       1 <0>         0.0251
      2 O1          0.0021   -0.0041    0.0020 O.3       1 <0>        -0.3041
      3 C2         -1.2013   -0.6380    0.0101 C.ar      1 <0>         0.1196
      4 C3         -2.3740    0.0989    0.0195 C.ar      1 <0>        -0.2065
      5 C4         -3.5967   -0.5469    0.0283 C.ar      1 <0>        -0.0835
      6 C5         -3.6532   -1.9283    0.0271 C.ar      1 <0>        -0.1520
      7 C6         -2.4875   -2.6710    0.0173 C.ar      1 <0>        -0.0881
      8 C7         -1.2572   -2.0300    0.0032 C.ar      1 <0>         0.1386
      9 N1         -0.0754   -2.7797   -0.0127 N.pl3     1 <0>        -0.6682
     10 C8          0.5713   -3.1961    1.2410 C.3       1 <0>         0.1533
     11 C9          0.8354   -4.7041    1.1750 C.3       1 <0>         0.0412
     12 N2          1.5913   -5.0126   -0.0462 N.3       1 <0>        -0.5339
     13 C10         0.8175   -4.6811   -1.2500 C.3       1 <0>         0.0372
     14 C11         0.5494   -3.1773   -1.2834 C.3       1 <0>         0.1535
     15 C12         2.0135   -6.4196   -0.0626 C.3       1 <0>         0.0591
     16 C13         2.9994   -6.6428   -1.2111 C.3       1 <0>        -0.1286
     17 C14         3.4391   -8.1081   -1.2283 C.3       1 <0>         0.1202
     18 N3          4.3831   -8.3219   -2.3280 N.am      1 <0>        -0.7261
     19 C15         4.9072   -9.5457   -2.5380 C.2       1 <0>         0.5593
     20 O2          4.5966  -10.4722   -1.8148 O.2       1 <0>        -0.5359
     21 C16         5.8594   -9.7613   -3.6473 C.ar      1 <0>        -0.1393
     22 C17         6.2196   -8.6843   -4.4772 C.ar      1 <0>        -0.0928
     23 C18         7.0921   -8.8571   -5.5023 C.ar      1 <0>        -0.1081
     24 C19         7.6488  -10.1261   -5.7466 C.ar      1 <0>        -0.0338
     25 C20         8.5540  -10.3293   -6.8015 C.ar      1 <0>        -0.1131
     26 C21         9.0765  -11.5685   -7.0132 C.ar      1 <0>        -0.1035
     27 C22         8.7273  -12.6438   -6.1984 C.ar      1 <0>        -0.1183
     28 C23         7.8537  -12.4857   -5.1669 C.ar      1 <0>        -0.0956
     29 C24         7.2936  -11.2199   -4.9170 C.ar      1 <0>        -0.0641
     30 C25         6.3948  -11.0209   -3.8583 C.ar      1 <0>        -0.0304
     31 H1          1.0053    1.8021    0.0021 H         1 <0>         0.0992
     32 H2         -0.5445    1.7859   -0.8732 H         1 <0>         0.0537
     33 H3         -0.5275    1.7763    0.9067 H         1 <0>         0.0538
     34 H4         -2.3335    1.1781    0.0204 H         1 <0>         0.1277
     35 H5         -4.5101    0.0293    0.0363 H         1 <0>         0.1245
     36 H6         -4.6104   -2.4284    0.0343 H         1 <0>         0.1239
     37 H7         -2.5344   -3.7500    0.0168 H         1 <0>         0.1252
     38 H8          1.5150   -2.6639    1.3604 H         1 <0>         0.0583
     39 H9         -0.0855   -2.9758    2.0825 H         1 <0>         0.0696
     40 H10         1.4125   -5.0108    2.0473 H         1 <0>         0.0806
     41 H11        -0.1140   -5.2393    1.1600 H         1 <0>         0.0354
     42 H12         1.3817   -4.9710   -2.1364 H         1 <0>         0.0818
     43 H13        -0.1317   -5.2166   -1.2312 H         1 <0>         0.0346
     44 H14        -0.1219   -2.9447   -2.1101 H         1 <0>         0.0686
     45 H15         1.4910   -2.6433   -1.4113 H         1 <0>         0.0573
     46 H16         2.4960   -6.6652    0.8834 H         1 <0>         0.0791
     47 H17         1.1418   -7.0588   -0.2026 H         1 <0>         0.0367
     48 H18         2.5169   -6.3971   -2.1571 H         1 <0>         0.0704
     49 H19         3.8711   -6.0035   -1.0711 H         1 <0>         0.0803
     50 H20         3.9216   -8.3538   -0.2823 H         1 <0>         0.0711
     51 H21         2.5674   -8.7474   -1.3683 H         1 <0>         0.0685
     52 H22         4.6310   -7.5826   -2.9050 H         1 <0>         0.4009
     53 H23         5.7960   -7.7074   -4.2966 H         1 <0>         0.1256
     54 H24         7.3589   -8.0204   -6.1309 H         1 <0>         0.1337
     55 H25         8.8339   -9.5061   -7.4421 H         1 <0>         0.1304
     56 H26         9.7721  -11.7206   -7.8252 H         1 <0>         0.1265
     57 H27         9.1558  -13.6168   -6.3885 H         1 <0>         0.1271
     58 H28         7.5917  -13.3278   -4.5436 H         1 <0>         0.1317
     59 H29         6.1191  -11.8443   -3.2160 H         1 <0>         0.1427
@<TRIPOS>BOND
     1    1    2 1
     2    1   31 1
     3    1   32 1
     4    1   33 1
     5    2    3 1
     6    3    8 ar
     7    3    4 ar
     8    4    5 ar
     9    4   34 1
    10    5    6 ar
    11    5   35 1
    12    6    7 ar
    13    6   36 1
    14    7    8 ar
    15    7   37 1
    16    8    9 1
    17    9   14 1
    18    9   10 1
    19   10   11 1
    20   10   38 1
    21   10   39 1
    22   11   12 1
    23   11   40 1
    24   11   41 1
    25   12   13 1
    26   12   15 1
    27   13   14 1
    28   13   42 1
    29   13   43 1
    30   14   44 1
    31   14   45 1
    32   15   16 1
    33   15   46 1
    34   15   47 1
    35   16   17 1
    36   16   48 1
    37   16   49 1
    38   17   18 1
    39   17   50 1
    40   17   51 1
    41   18   19 am
    42   18   52 1
    43   19   20 2
    44   19   21 1
    45   21   30 ar
    46   21   22 ar
    47   22   23 ar
    48   22   53 1
    49   23   24 ar
    50   23   54 1
    51   24   29 ar
    52   24   25 ar
    53   25   26 ar
    54   25   55 1
    55   26   27 ar
    56   26   56 1
    57   27   28 ar
    58   27   57 1
    59   28   29 ar
    60   28   58 1
    61   29   30 ar
    62   30   59 1
@<TRIPOS>MOLECULE
ZINC01481744
   59    63     0     0     0
SMALL
USER_CHARGES
tert-butylBLAHol
@<TRIPOS>ATOM
      1 C1          7.4021    8.7034   -0.7443 C.3       1 <0>        -0.1466
      2 C2          7.5600    7.3733   -0.0048 C.3       1 <0>        -0.0472
      3 C3          8.5881    6.5044   -0.7320 C.3       1 <0>        -0.1553
      4 C4          8.0362    7.6381    1.4249 C.3       1 <0>        -0.1470
      5 C5          6.2137    6.6474    0.0323 C.3       1 <0>         0.1386
      6 C6          5.7356    6.3816   -1.3980 C.3       1 <0>        -0.1808
      7 C7          4.4166    5.6077   -1.3542 C.3       1 <0>        -0.0052
      8 C8          3.3652    3.5592   -0.6154 C.3       1 <0>        -0.0027
      9 C9          3.6680    2.1410   -0.1452 C.3       1 <0>        -0.0191
     10 H1          4.2105    1.6604   -0.9594 H         1 <0>         0.1021
     11 C10         2.3734    1.3946   -0.0260 C.ar      1 <0>        -0.0842
     12 C11         1.1723    2.0854    0.0021 C.ar      1 <0>        -0.1223
     13 C12        -0.0167    1.3784    0.0096 C.ar      1 <0>        -0.1108
     14 C13         0.0021   -0.0041    0.0020 C.ar      1 <0>        -0.1048
     15 C14         1.2071   -0.6813    0.0133 C.ar      1 <0>        -0.1051
     16 C15         2.3948    0.0364    0.0071 C.ar      1 <0>        -0.0695
     17 C16         3.7024   -0.6896    0.1021 C.3       1 <0>        -0.0845
     18 C17         4.3272   -0.4713    1.4512 C.3       1 <0>        -0.0850
     19 C18         4.8103    0.9217    1.7463 C.ar      1 <0>        -0.0444
     20 C19         4.5590    2.0827    1.0479 C.ar      1 <0>        -0.0603
     21 C20         5.1779    3.2568    1.4753 C.ar      1 <0>        -0.1299
     22 C21         5.9679    3.2844    2.6137 C.ar      1 <0>        -0.0975
     23 C22         6.1786    2.1330    3.3379 C.ar      1 <0>        -0.0990
     24 C23         5.6072    0.9672    2.8970 C.ar      1 <0>        -0.1046
     25 C24         5.0337    4.5665    0.7444 C.3       1 <0>         0.0810
     26 H2          4.2805    5.1671    1.2544 H         1 <0>         0.1391
     27 C25         6.3702    5.3111    0.7637 C.3       1 <0>        -0.1720
     28 O1          5.2533    7.4561    0.7147 O.3       1 <0>        -0.5331
     29 H3          6.6697    9.3225   -0.2261 H         1 <0>         0.0690
     30 H4          8.3612    9.2205   -0.7707 H         1 <0>         0.0638
     31 H5          7.0629    8.5148   -1.7628 H         1 <0>         0.0556
     32 H6          8.2488    6.3158   -1.7506 H         1 <0>         0.0600
     33 H7          9.5472    7.0215   -0.7584 H         1 <0>         0.0731
     34 H8          8.7006    5.5568   -0.2052 H         1 <0>         0.0598
     35 H9          8.1487    6.6905    1.9518 H         1 <0>         0.0543
     36 H10         8.9953    8.1552    1.3985 H         1 <0>         0.0641
     37 H11         7.3038    8.2571    1.9431 H         1 <0>         0.0692
     38 H12         6.4847    5.7942   -1.9288 H         1 <0>         0.1035
     39 H13         5.5840    7.3302   -1.9132 H         1 <0>         0.1274
     40 H14         4.0813    5.4044   -2.3713 H         1 <0>         0.1398
     41 H15         3.6639    6.2024   -0.8366 H         1 <0>         0.1295
     42 H16         2.9358    3.5269   -1.6168 H         1 <0>         0.1429
     43 H17         2.6573    4.0264    0.0692 H         1 <0>         0.1364
     44 H18         1.1646    3.1652    0.0175 H         1 <0>         0.1229
     45 H19        -0.9590    1.9060    0.0169 H         1 <0>         0.1296
     46 H20        -0.9263   -0.5557   -0.0124 H         1 <0>         0.1306
     47 H21         1.2241   -1.7611    0.0273 H         1 <0>         0.1320
     48 H22         3.5343   -1.7559   -0.0490 H         1 <0>         0.0895
     49 H23         4.3776   -0.3184   -0.6689 H         1 <0>         0.0749
     50 H24         3.5946   -0.7431    2.2111 H         1 <0>         0.0852
     51 H25         5.1749   -1.1501    1.5451 H         1 <0>         0.0900
     52 H26         6.4197    4.2119    2.9332 H         1 <0>         0.1353
     53 H27         6.7814    2.1475    4.2340 H         1 <0>         0.1400
     54 H28         5.7764    0.0573    3.4536 H         1 <0>         0.1328
     55 H29         7.1294    4.7094    0.2640 H         1 <0>         0.1055
     56 H30         6.6704    5.4938    1.7955 H         1 <0>         0.1265
     57 H31         4.3755    7.0555    0.7778 H         1 <0>         0.3658
     58 N1          4.6164    4.3231   -0.6385 N.4       1 <0>        -0.3871
     59 H32         5.3405    3.7791   -1.1223 H         1 <0>         0.4282
@<TRIPOS>BOND
     1    1    2 1
     2    1   29 1
     3    1   30 1
     4    1   31 1
     5    2    3 1
     6    2    4 1
     7    2    5 1
     8    3   32 1
     9    3   33 1
    10    3   34 1
    11    4   35 1
    12    4   36 1
    13    4   37 1
    14    5   27 1
    15    5    6 1
    16    5   28 1
    17    6    7 1
    18    6   38 1
    19    6   39 1
    20    7   40 1
    21    7   41 1
    22    7   58 1
    23    8    9 1
    24    8   42 1
    25    8   43 1
    26    8   58 1
    27    9   10 1
    28    9   20 1
    29    9   11 1
    30   11   16 ar
    31   11   12 ar
    32   12   13 ar
    33   12   44 1
    34   13   14 ar
    35   13   45 1
    36   14   15 ar
    37   14   46 1
    38   15   16 ar
    39   15   47 1
    40   16   17 1
    41   17   18 1
    42   17   48 1
    43   17   49 1
    44   18   19 1
    45   18   50 1
    46   18   51 1
    47   19   24 ar
    48   19   20 ar
    49   20   21 ar
    50   21   22 ar
    51   21   25 1
    52   22   23 ar
    53   22   52 1
    54   23   24 ar
    55   23   53 1
    56   24   54 1
    57   25   26 1
    58   25   27 1
    59   25   58 1
    60   27   55 1
    61   27   56 1
    62   28   57 1
    63   58   59 1
@<TRIPOS>MOLECULE
ZINC22463345
   54    57     0     0     0
SMALL
USER_CHARGES
2-[4-[(1R,3S)-3-(4-fluorophenyl)-6-(trifluoromethyl)indan-1-yl]piperazin-1-yl]ethanol
@<TRIPOS>ATOM
      1 C1         -0.4317   -7.2518   -3.5141 C.ar      1 <0>        -0.0795
      2 C2         -0.2506   -8.3222   -4.3693 C.ar      1 <0>        -0.1489
      3 C3         -0.4902   -8.1728   -5.7248 C.ar      1 <0>         0.1151
      4 C4         -0.9167   -6.9525   -6.2210 C.ar      1 <0>        -0.1491
      5 C5         -1.1029   -5.8853   -5.3630 C.ar      1 <0>        -0.0776
      6 C6         -0.8630   -6.0355   -4.0098 C.ar      1 <0>        -0.1134
      7 C7         -1.0660   -4.8708   -3.0753 C.3       1 <0>        -0.0239
      8 H1         -1.4064   -4.0308   -3.6986 H         1 <0>         0.1155
      9 C8          0.2397   -4.5683   -2.3046 C.3       1 <0>        -0.1302
     10 C9         -0.2897   -4.1132   -0.9280 C.3       1 <0>         0.0949
     11 H2          0.3887   -4.3445   -0.0935 H         1 <0>         0.1442
     12 C10        -1.6365   -4.7872   -0.7764 C.ar      1 <0>        -0.1605
     13 C11        -2.0826   -5.2228   -2.0105 C.ar      1 <0>        -0.0272
     14 C12        -3.3011   -5.8720   -2.1130 C.ar      1 <0>        -0.0928
     15 C13        -4.0718   -6.0859   -0.9866 C.ar      1 <0>        -0.0339
     16 C14        -3.6260   -5.6504    0.2470 C.ar      1 <0>        -0.1742
     17 C15        -2.4105   -5.0021    0.3513 C.ar      1 <0>        -0.0334
     18 C16        -4.4649   -5.8826    1.4772 C.3       1 <0>         0.5081
     19 F1         -5.6404   -6.5520    1.1204 F         1 <0>        -0.1687
     20 F2         -3.7457   -6.6587    2.3924 F         1 <0>        -0.1698
     21 F3         -4.7874   -4.6527    2.0607 F         1 <0>        -0.1732
     22 N1         -0.4445   -2.6526   -0.8989 N.4       1 <0>        -0.4018
     23 C17        -1.1751   -2.2243    0.3021 C.3       1 <0>        -0.0047
     24 C18        -1.3844   -0.7089    0.2552 C.3       1 <0>         0.0249
     25 N2         -0.0792   -0.0391    0.1695 N.3       1 <0>        -0.5286
     26 C19         0.6515   -0.4675   -1.0315 C.3       1 <0>         0.0269
     27 C20         0.8608   -1.9829   -0.9846 C.3       1 <0>        -0.0015
     28 C21        -0.2340    1.4214    0.1986 C.3       1 <0>         0.0527
     29 C22        -0.5431    1.8731    1.6274 C.3       1 <0>         0.0888
     30 O1          0.5720    1.5796    2.4715 O.3       1 <0>        -0.5933
     31 F4         -0.3074   -9.2167   -6.5627 F         1 <0>        -0.1307
     32 H3         -0.2400   -7.3667   -2.4574 H         1 <0>         0.1306
     33 H4          0.0824   -9.2734   -3.9812 H         1 <0>         0.1411
     34 H5         -1.1035   -6.8347   -7.2782 H         1 <0>         0.1423
     35 H6         -1.4356   -4.9334   -5.7498 H         1 <0>         0.1352
     36 H7          0.8519   -5.4804   -2.2483 H         1 <0>         0.1277
     37 H8          0.8014   -3.7815   -2.8294 H         1 <0>         0.1103
     38 H9         -3.6501   -6.2126   -3.0766 H         1 <0>         0.1466
     39 H10        -5.0219   -6.5926   -1.0699 H         1 <0>         0.1549
     40 H11        -2.0628   -4.6621    1.3156 H         1 <0>         0.1428
     41 H12        -2.1516   -2.7294    0.3368 H         1 <0>         0.1337
     42 H13        -0.5940   -2.4877    1.1982 H         1 <0>         0.1375
     43 H14        -1.9893   -0.4494   -0.6261 H         1 <0>         0.0595
     44 H15        -1.9060   -0.3824    1.1670 H         1 <0>         0.1226
     45 H16         0.0704   -0.2042   -1.9276 H         1 <0>         0.0592
     46 H17         1.6281    0.0376   -1.0662 H         1 <0>         0.1254
     47 H18         1.4652   -2.2435   -0.1032 H         1 <0>         0.1390
     48 H19         1.3818   -2.3105   -1.8963 H         1 <0>         0.1377
     49 H20         0.6980    1.8958   -0.1424 H         1 <0>         0.0946
     50 H21        -1.0597    1.7159   -0.4658 H         1 <0>         0.0631
     51 H22        -0.7346    2.9563    1.6362 H         1 <0>         0.0538
     52 H23        -1.4322    1.3406    1.9961 H         1 <0>         0.0407
     53 H24         0.5342    1.8341    3.5410 H         1 <0>         0.4149
     54 H25        -1.0355   -2.3588   -1.7789 H         1 <0>         0.4323
@<TRIPOS>BOND
     1    1    6 ar
     2    1    2 ar
     3    1   32 1
     4    2    3 ar
     5    2   33 1
     6    3    4 ar
     7    3   31 1
     8    4    5 ar
     9    4   34 1
    10    5    6 ar
    11    5   35 1
    12    6    7 1
    13    7    8 1
    14    7   13 1
    15    7    9 1
    16    9   10 1
    17    9   36 1
    18    9   37 1
    19   10   11 1
    20   10   12 1
    21   10   22 1
    22   12   17 ar
    23   12   13 ar
    24   13   14 ar
    25   14   15 ar
    26   14   38 1
    27   15   16 ar
    28   15   39 1
    29   16   17 ar
    30   16   18 1
    31   17   40 1
    32   18   19 1
    33   18   20 1
    34   18   21 1
    35   22   27 1
    36   22   23 1
    37   22   54 1
    38   23   24 1
    39   23   41 1
    40   23   42 1
    41   24   25 1
    42   24   43 1
    43   24   44 1
    44   25   26 1
    45   25   28 1
    46   26   27 1
    47   26   45 1
    48   26   46 1
    49   27   47 1
    50   27   48 1
    51   28   29 1
    52   28   49 1
    53   28   50 1
    54   29   30 1
    55   29   51 1
    56   29   52 1
    57   30   53 1
@<TRIPOS>MOLECULE
ZINC22463345
   53    56     0     0     0
SMALL
USER_CHARGES
2-[4-[(1R,3S)-3-(4-fluorophenyl)-6-(trifluoromethyl)indan-1-yl]piperazin-1-yl]ethanol
@<TRIPOS>ATOM
      1 C1         -0.4317   -7.2518   -3.5141 C.ar      1 <0>        -0.0804
      2 C2         -0.2506   -8.3222   -4.3693 C.ar      1 <0>        -0.1507
      3 C3         -0.4902   -8.1728   -5.7248 C.ar      1 <0>         0.0982
      4 C4         -0.9167   -6.9525   -6.2210 C.ar      1 <0>        -0.1513
      5 C5         -1.1029   -5.8853   -5.3630 C.ar      1 <0>        -0.0833
      6 C6         -0.8630   -6.0355   -4.0098 C.ar      1 <0>        -0.0940
      7 C7         -1.0660   -4.8708   -3.0753 C.3       1 <0>        -0.0064
      8 H1         -1.4064   -4.0308   -3.6986 H         1 <0>         0.1064
      9 C8          0.2397   -4.5683   -2.3046 C.3       1 <0>        -0.1017
     10 C9         -0.2897   -4.1132   -0.9280 C.3       1 <0>         0.1294
     11 H2          0.3887   -4.3445   -0.0935 H         1 <0>         0.0598
     12 C10        -1.6365   -4.7872   -0.7764 C.ar      1 <0>        -0.0880
     13 C11        -2.0826   -5.2228   -2.0105 C.ar      1 <0>        -0.0359
     14 C12        -3.3011   -5.8720   -2.1130 C.ar      1 <0>        -0.1021
     15 C13        -4.0718   -6.0859   -0.9866 C.ar      1 <0>        -0.0650
     16 C14        -3.6260   -5.6504    0.2470 C.ar      1 <0>        -0.1829
     17 C15        -2.4105   -5.0021    0.3513 C.ar      1 <0>        -0.0510
     18 C16        -4.4649   -5.8826    1.4772 C.3       1 <0>         0.5095
     19 F1         -5.6404   -6.5520    1.1204 F         1 <0>        -0.1760
     20 F2         -3.7457   -6.6587    2.3924 F         1 <0>        -0.1760
     21 F3         -4.7874   -4.6527    2.0607 F         1 <0>        -0.1761
     22 N1         -0.4445   -2.6526   -0.8989 N.3       1 <0>        -0.5345
     23 C17        -1.1751   -2.2243    0.3021 C.3       1 <0>         0.0530
     24 C18        -1.3844   -0.7089    0.2552 C.3       1 <0>         0.0562
     25 N2         -0.0792   -0.0391    0.1695 N.3       1 <0>        -0.5290
     26 C19         0.6515   -0.4675   -1.0315 C.3       1 <0>         0.0579
     27 C20         0.8608   -1.9829   -0.9846 C.3       1 <0>         0.0559
     28 C21        -0.2340    1.4214    0.1986 C.3       1 <0>         0.0531
     29 C22        -0.5431    1.8731    1.6274 C.3       1 <0>         0.0918
     30 O1          0.5720    1.5796    2.4715 O.3       1 <0>        -0.5880
     31 F4         -0.3074   -9.2167   -6.5627 F         1 <0>        -0.1391
     32 H3         -0.2400   -7.3667   -2.4574 H         1 <0>         0.1309
     33 H4          0.0824   -9.2734   -3.9812 H         1 <0>         0.1358
     34 H5         -1.1035   -6.8347   -7.2782 H         1 <0>         0.1365
     35 H6         -1.4356   -4.9334   -5.7498 H         1 <0>         0.1338
     36 H7          0.8519   -5.4804   -2.2483 H         1 <0>         0.0858
     37 H8          0.8014   -3.7815   -2.8294 H         1 <0>         0.0919
     38 H9         -3.6501   -6.2126   -3.0766 H         1 <0>         0.1333
     39 H10        -5.0219   -6.5926   -1.0699 H         1 <0>         0.1415
     40 H11        -2.0628   -4.6621    1.3156 H         1 <0>         0.1310
     41 H12        -2.1516   -2.7294    0.3368 H         1 <0>         0.0835
     42 H13        -0.5940   -2.4877    1.1982 H         1 <0>         0.0442
     43 H14        -1.9893   -0.4494   -0.6261 H         1 <0>         0.0417
     44 H15        -1.9060   -0.3824    1.1670 H         1 <0>         0.0789
     45 H16         0.0704   -0.2042   -1.9276 H         1 <0>         0.0417
     46 H17         1.6281    0.0376   -1.0662 H         1 <0>         0.0814
     47 H18         1.4652   -2.2435   -0.1032 H         1 <0>         0.0460
     48 H19         1.3818   -2.3105   -1.8963 H         1 <0>         0.0843
     49 H20         0.6980    1.8958   -0.1424 H         1 <0>         0.0811
     50 H21        -1.0597    1.7159   -0.4658 H         1 <0>         0.0514
     51 H22        -0.7346    2.9563    1.6362 H         1 <0>         0.0432
     52 H23        -1.4322    1.3406    1.9961 H         1 <0>         0.0398
     53 H24         0.5342    1.8341    3.5410 H         1 <0>         0.4028
@<TRIPOS>BOND
     1    1    6 ar
     2    1    2 ar
     3    1   32 1
     4    2    3 ar
     5    2   33 1
     6    3    4 ar
     7    3   31 1
     8    4    5 ar
     9    4   34 1
    10    5    6 ar
    11    5   35 1
    12    6    7 1
    13    7    8 1
    14    7   13 1
    15    7    9 1
    16    9   10 1
    17    9   36 1
    18    9   37 1
    19   10   11 1
    20   10   12 1
    21   10   22 1
    22   12   17 ar
    23   12   13 ar
    24   13   14 ar
    25   14   15 ar
    26   14   38 1
    27   15   16 ar
    28   15   39 1
    29   16   17 ar
    30   16   18 1
    31   17   40 1
    32   18   19 1
    33   18   20 1
    34   18   21 1
    35   22   27 1
    36   22   23 1
    37   23   24 1
    38   23   41 1
    39   23   42 1
    40   24   25 1
    41   24   43 1
    42   24   44 1
    43   25   26 1
    44   25   28 1
    45   26   27 1
    46   26   45 1
    47   26   46 1
    48   27   47 1
    49   27   48 1
    50   28   29 1
    51   28   49 1
    52   28   50 1
    53   29   30 1
    54   29   51 1
    55   29   52 1
    56   30   53 1
@<TRIPOS>MOLECULE
ZINC22937852
   54    57     0     0     0
SMALL
USER_CHARGES
2-[4-[(1S,3S)-3-(4-fluorophenyl)-6-(trifluoromethyl)indan-1-yl]piperazin-1-yl]ethanol
@<TRIPOS>ATOM
      1 C1         -0.6994    2.2254   -1.0171 C.ar      1 <0>        -0.0841
      2 C2         -0.6562    3.5975   -1.1765 C.ar      1 <0>        -0.1493
      3 C3          0.5578    4.2329   -1.3756 C.ar      1 <0>         0.1140
      4 C4          1.7277    3.4932   -1.4094 C.ar      1 <0>        -0.1465
      5 C5          1.6826    2.1218   -1.2445 C.ar      1 <0>        -0.0752
      6 C6          0.4699    1.4885   -1.0458 C.ar      1 <0>        -0.1121
      7 C7          0.4219   -0.0070   -0.8665 C.3       1 <0>        -0.0110
      8 H1          1.4622   -0.3591   -0.9285 H         1 <0>         0.1232
      9 C8         -0.4986   -0.6445   -1.9289 C.3       1 <0>        -0.1345
     10 C9         -1.1351   -1.8181   -1.1545 C.3       1 <0>         0.1001
     11 H2         -0.6347   -2.7832   -1.3221 H         1 <0>         0.1522
     12 C10        -1.1030   -1.3974    0.2992 C.ar      1 <0>        -0.1590
     13 C11        -0.2081   -0.3565    0.4647 C.ar      1 <0>        -0.0217
     14 C12        -0.0135    0.1918    1.7210 C.ar      1 <0>        -0.0897
     15 C13        -0.7104   -0.2977    2.8088 C.ar      1 <0>        -0.0385
     16 C14        -1.6050   -1.3382    2.6433 C.ar      1 <0>        -0.1702
     17 C15        -1.8005   -1.8866    1.3905 C.ar      1 <0>        -0.0468
     18 C16        -2.3667   -1.8736    3.8283 C.3       1 <0>         0.5081
     19 F1         -2.0017   -1.1633    4.9769 F         1 <0>        -0.1682
     20 F2         -3.7399   -1.7260    3.6053 F         1 <0>        -0.1739
     21 F3         -2.0656   -3.2287    4.0026 F         1 <0>        -0.1708
     22 N1         -2.5210   -2.0290   -1.5936 N.4       1 <0>        -0.4042
     23 C17        -2.5661   -2.5157   -2.9795 C.3       1 <0>        -0.0003
     24 C18        -4.0185   -2.7979   -3.3712 C.3       1 <0>         0.0262
     25 N2         -4.8111   -1.5696   -3.2213 N.3       1 <0>        -0.5277
     26 C19        -4.7660   -1.0829   -1.8354 C.3       1 <0>         0.0246
     27 C20        -3.3137   -0.8006   -1.4437 C.3       1 <0>        -0.0083
     28 C21        -6.1970   -1.7805   -3.6604 C.3       1 <0>         0.0526
     29 C22        -6.8494   -0.4287   -3.9568 C.3       1 <0>         0.0890
     30 O1         -6.1670    0.2017   -5.0426 O.3       1 <0>        -0.5928
     31 F4          0.6007    5.5736   -1.5363 F         1 <0>        -0.1309
     32 H3         -1.6467    1.7291   -0.8659 H         1 <0>         0.1232
     33 H4         -1.5695    4.1735   -1.1499 H         1 <0>         0.1398
     34 H5          2.6752    3.9877   -1.5650 H         1 <0>         0.1432
     35 H6          2.5951    1.5447   -1.2705 H         1 <0>         0.1379
     36 H7         -1.2381    0.0969   -2.2657 H         1 <0>         0.1082
     37 H8          0.1055   -0.9755   -2.7865 H         1 <0>         0.1181
     38 H9          0.6851    1.0051    1.8510 H         1 <0>         0.1471
     39 H10        -0.5566    0.1324    3.7874 H         1 <0>         0.1546
     40 H11        -2.4999   -2.6994    1.2619 H         1 <0>         0.1355
     41 H12        -2.1462   -1.7516   -3.6503 H         1 <0>         0.1386
     42 H13        -1.9765   -3.4406   -3.0627 H         1 <0>         0.1384
     43 H14        -4.0572   -3.1350   -4.4176 H         1 <0>         0.1254
     44 H15        -4.4287   -3.5821   -2.7180 H         1 <0>         0.0597
     45 H16        -5.3556   -0.1580   -1.7522 H         1 <0>         0.1216
     46 H17        -5.1858   -1.8469   -1.1646 H         1 <0>         0.0600
     47 H18        -3.2739   -0.4640   -0.3972 H         1 <0>         0.1330
     48 H19        -2.9025   -0.0168   -2.0968 H         1 <0>         0.1383
     49 H20        -6.2033   -2.3981   -4.5706 H         1 <0>         0.0945
     50 H21        -6.7595   -2.2927   -2.8659 H         1 <0>         0.0634
     51 H22        -7.9047   -0.5822   -4.2266 H         1 <0>         0.0538
     52 H23        -6.7885    0.2114   -3.0643 H         1 <0>         0.0402
     53 H24        -6.4961    1.1885   -5.4003 H         1 <0>         0.4144
     54 H25        -2.9651   -2.8009   -0.9479 H         1 <0>         0.4369
@<TRIPOS>BOND
     1    1    6 ar
     2    1    2 ar
     3    1   32 1
     4    2    3 ar
     5    2   33 1
     6    3    4 ar
     7    3   31 1
     8    4    5 ar
     9    4   34 1
    10    5    6 ar
    11    5   35 1
    12    6    7 1
    13    7    8 1
    14    7   13 1
    15    7    9 1
    16    9   10 1
    17    9   36 1
    18    9   37 1
    19   10   11 1
    20   10   12 1
    21   10   22 1
    22   12   17 ar
    23   12   13 ar
    24   13   14 ar
    25   14   15 ar
    26   14   38 1
    27   15   16 ar
    28   15   39 1
    29   16   17 ar
    30   16   18 1
    31   17   40 1
    32   18   19 1
    33   18   20 1
    34   18   21 1
    35   22   27 1
    36   22   23 1
    37   22   54 1
    38   23   24 1
    39   23   41 1
    40   23   42 1
    41   24   25 1
    42   24   43 1
    43   24   44 1
    44   25   26 1
    45   25   28 1
    46   26   27 1
    47   26   45 1
    48   26   46 1
    49   27   47 1
    50   27   48 1
    51   28   29 1
    52   28   49 1
    53   28   50 1
    54   29   30 1
    55   29   51 1
    56   29   52 1
    57   30   53 1
@<TRIPOS>MOLECULE
ZINC22937852
   53    56     0     0     0
SMALL
USER_CHARGES
2-[4-[(1S,3S)-3-(4-fluorophenyl)-6-(trifluoromethyl)indan-1-yl]piperazin-1-yl]ethanol
@<TRIPOS>ATOM
      1 C1         -0.6994    2.2254   -1.0171 C.ar      1 <0>        -0.0792
      2 C2         -0.6562    3.5975   -1.1765 C.ar      1 <0>        -0.1500
      3 C3          0.5578    4.2329   -1.3756 C.ar      1 <0>         0.0989
      4 C4          1.7277    3.4932   -1.4094 C.ar      1 <0>        -0.1509
      5 C5          1.6826    2.1218   -1.2445 C.ar      1 <0>        -0.0841
      6 C6          0.4699    1.4885   -1.0458 C.ar      1 <0>        -0.0926
      7 C7          0.4219   -0.0070   -0.8665 C.3       1 <0>        -0.0117
      8 H1          1.4622   -0.3591   -0.9285 H         1 <0>         0.1049
      9 C8         -0.4986   -0.6445   -1.9289 C.3       1 <0>        -0.1444
     10 C9         -1.1351   -1.8181   -1.1545 C.3       1 <0>         0.1286
     11 H2         -0.6347   -2.7832   -1.3221 H         1 <0>         0.1076
     12 C10        -1.1030   -1.3974    0.2992 C.ar      1 <0>        -0.0850
     13 C11        -0.2081   -0.3565    0.4647 C.ar      1 <0>        -0.0520
     14 C12        -0.0135    0.1918    1.7210 C.ar      1 <0>        -0.1016
     15 C13        -0.7104   -0.2977    2.8088 C.ar      1 <0>        -0.0677
     16 C14        -1.6050   -1.3382    2.6433 C.ar      1 <0>        -0.1843
     17 C15        -1.8005   -1.8866    1.3905 C.ar      1 <0>        -0.0361
     18 C16        -2.3667   -1.8736    3.8283 C.3       1 <0>         0.5096
     19 F1         -2.0017   -1.1633    4.9769 F         1 <0>        -0.1770
     20 F2         -3.7399   -1.7260    3.6053 F         1 <0>        -0.1761
     21 F3         -2.0656   -3.2287    4.0026 F         1 <0>        -0.1758
     22 N1         -2.5210   -2.0290   -1.5936 N.3       1 <0>        -0.5312
     23 C17        -2.5661   -2.5157   -2.9795 C.3       1 <0>         0.0556
     24 C18        -4.0185   -2.7979   -3.3712 C.3       1 <0>         0.0566
     25 N2         -4.8111   -1.5696   -3.2213 N.3       1 <0>        -0.5277
     26 C19        -4.7660   -1.0829   -1.8354 C.3       1 <0>         0.0545
     27 C20        -3.3137   -0.8006   -1.4437 C.3       1 <0>         0.0510
     28 C21        -6.1970   -1.7805   -3.6604 C.3       1 <0>         0.0528
     29 C22        -6.8494   -0.4287   -3.9568 C.3       1 <0>         0.0921
     30 O1         -6.1670    0.2017   -5.0426 O.3       1 <0>        -0.5874
     31 F4          0.6007    5.5736   -1.5363 F         1 <0>        -0.1387
     32 H3         -1.6467    1.7291   -0.8659 H         1 <0>         0.1285
     33 H4         -1.5695    4.1735   -1.1499 H         1 <0>         0.1358
     34 H5          2.6752    3.9877   -1.5650 H         1 <0>         0.1369
     35 H6          2.5951    1.5447   -1.2705 H         1 <0>         0.1339
     36 H7         -1.2381    0.0969   -2.2657 H         1 <0>         0.0914
     37 H8          0.1055   -0.9755   -2.7865 H         1 <0>         0.0861
     38 H9          0.6851    1.0051    1.8510 H         1 <0>         0.1323
     39 H10        -0.5566    0.1324    3.7874 H         1 <0>         0.1406
     40 H11        -2.4999   -2.6994    1.2619 H         1 <0>         0.1364
     41 H12        -2.1462   -1.7516   -3.6503 H         1 <0>         0.0491
     42 H13        -1.9765   -3.4406   -3.0627 H         1 <0>         0.0822
     43 H14        -4.0572   -3.1350   -4.4176 H         1 <0>         0.0813
     44 H15        -4.4287   -3.5821   -2.7180 H         1 <0>         0.0418
     45 H16        -5.3556   -0.1580   -1.7522 H         1 <0>         0.0777
     46 H17        -5.1858   -1.8469   -1.1646 H         1 <0>         0.0416
     47 H18        -3.2739   -0.4640   -0.3972 H         1 <0>         0.0790
     48 H19        -2.9025   -0.0168   -2.0968 H         1 <0>         0.0498
     49 H20        -6.2033   -2.3981   -4.5706 H         1 <0>         0.0810
     50 H21        -6.7595   -2.2927   -2.8659 H         1 <0>         0.0516
     51 H22        -7.9047   -0.5822   -4.2266 H         1 <0>         0.0431
     52 H23        -6.7885    0.2114   -3.0643 H         1 <0>         0.0392
     53 H24        -6.4961    1.1885   -5.4003 H         1 <0>         0.4023
@<TRIPOS>BOND
     1    1    6 ar
     2    1    2 ar
     3    1   32 1
     4    2    3 ar
     5    2   33 1
     6    3    4 ar
     7    3   31 1
     8    4    5 ar
     9    4   34 1
    10    5    6 ar
    11    5   35 1
    12    6    7 1
    13    7    8 1
    14    7   13 1
    15    7    9 1
    16    9   10 1
    17    9   36 1
    18    9   37 1
    19   10   11 1
    20   10   12 1
    21   10   22 1
    22   12   17 ar
    23   12   13 ar
    24   13   14 ar
    25   14   15 ar
    26   14   38 1
    27   15   16 ar
    28   15   39 1
    29   16   17 ar
    30   16   18 1
    31   17   40 1
    32   18   19 1
    33   18   20 1
    34   18   21 1
    35   22   27 1
    36   22   23 1
    37   23   24 1
    38   23   41 1
    39   23   42 1
    40   24   25 1
    41   24   43 1
    42   24   44 1
    43   25   26 1
    44   25   28 1
    45   26   27 1
    46   26   45 1
    47   26   46 1
    48   27   47 1
    49   27   48 1
    50   28   29 1
    51   28   49 1
    52   28   50 1
    53   29   30 1
    54   29   51 1
    55   29   52 1
    56   30   53 1
@<TRIPOS>MOLECULE
ZINC22937855
   54    57     0     0     0
SMALL
USER_CHARGES
2-[4-[(1R,3R)-3-(4-fluorophenyl)-6-(trifluoromethyl)indan-1-yl]piperazin-1-yl]ethanol
@<TRIPOS>ATOM
      1 C1         -0.5753    4.7457    2.8158 C.ar      1 <0>        -0.0838
      2 C2         -0.9754    5.8159    3.5933 C.ar      1 <0>        -0.1492
      3 C3         -0.9811    5.7045    4.9734 C.ar      1 <0>         0.1141
      4 C4         -0.5917    4.5186    5.5727 C.ar      1 <0>        -0.1467
      5 C5         -0.1978    3.4477    4.7929 C.ar      1 <0>        -0.0754
      6 C6         -0.1921    3.5603    3.4151 C.ar      1 <0>        -0.1125
      7 C7          0.2381    2.3920    2.5660 C.3       1 <0>        -0.0108
      8 H1          0.4988    1.5825    3.2637 H         1 <0>         0.1230
      9 C8         -0.8842    2.0048    1.5797 C.3       1 <0>        -0.1340
     10 C9         -0.0906    1.5546    0.3348 C.3       1 <0>         0.1002
     11 H2          0.0480    0.4654    0.2673 H         1 <0>         0.1520
     12 C10         1.2251    2.2990    0.4131 C.ar      1 <0>        -0.1590
     13 C11         1.4140    2.7803    1.6954 C.ar      1 <0>        -0.0217
     14 C12         2.5586    3.4969    2.0009 C.ar      1 <0>        -0.0896
     15 C13         3.5116    3.7322    1.0289 C.ar      1 <0>        -0.0364
     16 C14         3.3228    3.2511   -0.2529 C.ar      1 <0>        -0.1702
     17 C15         2.1814    2.5358   -0.5597 C.ar      1 <0>        -0.0484
     18 C16         4.3612    3.5060   -1.3149 C.3       1 <0>         0.5081
     19 F1          4.0695    4.7050   -1.9740 F         1 <0>        -0.1709
     20 F2          5.6242    3.5963   -0.7199 F         1 <0>        -0.1677
     21 F3          4.3540    2.4535   -2.2364 F         1 <0>        -0.1743
     22 N1         -0.8113    1.9211   -0.8917 N.4       1 <0>        -0.4042
     23 C17        -1.0422    3.3711   -0.9535 C.3       1 <0>        -0.0090
     24 C18        -1.7226    3.7206   -2.2791 C.3       1 <0>         0.0284
     25 N2         -2.9895    2.9835   -2.3857 N.3       1 <0>        -0.5277
     26 C19        -2.7587    1.5335   -2.3238 C.3       1 <0>         0.0223
     27 C20        -2.0782    1.1840   -0.9982 C.3       1 <0>         0.0006
     28 C21        -3.7103    3.3500   -3.6121 C.3       1 <0>         0.0524
     29 C22        -5.1857    2.9711   -3.4691 C.3       1 <0>         0.0894
     30 O1         -5.7717    3.7295   -2.4091 O.3       1 <0>        -0.5930
     31 F4         -1.3659    6.7521    5.7346 F         1 <0>        -0.1308
     32 H3         -0.5659    4.8341    1.7395 H         1 <0>         0.1236
     33 H4         -1.2786    6.7405    3.1247 H         1 <0>         0.1401
     34 H5         -0.5954    4.4306    6.6491 H         1 <0>         0.1430
     35 H6          0.1060    2.5226    5.2602 H         1 <0>         0.1377
     36 H7         -1.4920    1.1976    2.0144 H         1 <0>         0.1178
     37 H8         -1.5214    2.8805    1.3871 H         1 <0>         0.1081
     38 H9          2.7070    3.8729    3.0024 H         1 <0>         0.1471
     39 H10         4.4035    4.2912    1.2705 H         1 <0>         0.1523
     40 H11         2.0344    2.1605   -1.5616 H         1 <0>         0.1375
     41 H12        -1.6885    3.6754   -0.1171 H         1 <0>         0.1380
     42 H13        -0.0796    3.8990   -0.8839 H         1 <0>         0.1335
     43 H14        -1.9221    4.8018   -2.3149 H         1 <0>         0.1236
     44 H15        -1.0635    3.4415   -3.1144 H         1 <0>         0.0594
     45 H16        -3.7213    1.0057   -2.3932 H         1 <0>         0.1233
     46 H17        -2.1125    1.2290   -3.1603 H         1 <0>         0.0603
     47 H18        -1.8777    0.1031   -0.9616 H         1 <0>         0.1379
     48 H19        -2.7363    1.4633   -0.1622 H         1 <0>         0.1382
     49 H20        -3.6245    4.4341   -3.7777 H         1 <0>         0.0941
     50 H21        -3.2750    2.8128   -4.4677 H         1 <0>         0.0635
     51 H22        -5.7128    3.1879   -4.4099 H         1 <0>         0.0537
     52 H23        -5.2683    1.8981   -3.2414 H         1 <0>         0.0406
     53 H24        -6.8335    3.5924   -2.1565 H         1 <0>         0.4145
     54 H25        -0.1818    1.6405   -1.7490 H         1 <0>         0.4372
@<TRIPOS>BOND
     1    1    6 ar
     2    1    2 ar
     3    1   32 1
     4    2    3 ar
     5    2   33 1
     6    3    4 ar
     7    3   31 1
     8    4    5 ar
     9    4   34 1
    10    5    6 ar
    11    5   35 1
    12    6    7 1
    13    7    8 1
    14    7   13 1
    15    7    9 1
    16    9   10 1
    17    9   36 1
    18    9   37 1
    19   10   11 1
    20   10   12 1
    21   10   22 1
    22   12   17 ar
    23   12   13 ar
    24   13   14 ar
    25   14   15 ar
    26   14   38 1
    27   15   16 ar
    28   15   39 1
    29   16   17 ar
    30   16   18 1
    31   17   40 1
    32   18   19 1
    33   18   20 1
    34   18   21 1
    35   22   27 1
    36   22   23 1
    37   22   54 1
    38   23   24 1
    39   23   41 1
    40   23   42 1
    41   24   25 1
    42   24   43 1
    43   24   44 1
    44   25   26 1
    45   25   28 1
    46   26   27 1
    47   26   45 1
    48   26   46 1
    49   27   47 1
    50   27   48 1
    51   28   29 1
    52   28   49 1
    53   28   50 1
    54   29   30 1
    55   29   51 1
    56   29   52 1
    57   30   53 1
@<TRIPOS>MOLECULE
ZINC22937855
   53    56     0     0     0
SMALL
USER_CHARGES
2-[4-[(1R,3R)-3-(4-fluorophenyl)-6-(trifluoromethyl)indan-1-yl]piperazin-1-yl]ethanol
@<TRIPOS>ATOM
      1 C1         -0.5753    4.7457    2.8158 C.ar      1 <0>        -0.0789
      2 C2         -0.9754    5.8159    3.5933 C.ar      1 <0>        -0.1497
      3 C3         -0.9811    5.7045    4.9734 C.ar      1 <0>         0.0990
      4 C4         -0.5917    4.5186    5.5727 C.ar      1 <0>        -0.1511
      5 C5         -0.1978    3.4477    4.7929 C.ar      1 <0>        -0.0844
      6 C6         -0.1921    3.5603    3.4151 C.ar      1 <0>        -0.0930
      7 C7          0.2381    2.3920    2.5660 C.3       1 <0>        -0.0116
      8 H1          0.4988    1.5825    3.2637 H         1 <0>         0.1049
      9 C8         -0.8842    2.0048    1.5797 C.3       1 <0>        -0.1437
     10 C9         -0.0906    1.5546    0.3348 C.3       1 <0>         0.1287
     11 H2          0.0480    0.4654    0.2673 H         1 <0>         0.1076
     12 C10         1.2251    2.2990    0.4131 C.ar      1 <0>        -0.0856
     13 C11         1.4140    2.7803    1.6954 C.ar      1 <0>        -0.0519
     14 C12         2.5586    3.4969    2.0009 C.ar      1 <0>        -0.1014
     15 C13         3.5116    3.7322    1.0289 C.ar      1 <0>        -0.0654
     16 C14         3.3228    3.2511   -0.2529 C.ar      1 <0>        -0.1841
     17 C15         2.1814    2.5358   -0.5597 C.ar      1 <0>        -0.0382
     18 C16         4.3612    3.5060   -1.3149 C.3       1 <0>         0.5095
     19 F1          4.0695    4.7050   -1.9740 F         1 <0>        -0.1762
     20 F2          5.6242    3.5963   -0.7199 F         1 <0>        -0.1767
     21 F3          4.3540    2.4535   -2.2364 F         1 <0>        -0.1760
     22 N1         -0.8113    1.9211   -0.8917 N.3       1 <0>        -0.5310
     23 C17        -1.0422    3.3711   -0.9535 C.3       1 <0>         0.0502
     24 C18        -1.7226    3.7206   -2.2791 C.3       1 <0>         0.0568
     25 N2         -2.9895    2.9835   -2.3857 N.3       1 <0>        -0.5277
     26 C19        -2.7587    1.5335   -2.3238 C.3       1 <0>         0.0542
     27 C20        -2.0782    1.1840   -0.9982 C.3       1 <0>         0.0562
     28 C21        -3.7103    3.3500   -3.6121 C.3       1 <0>         0.0526
     29 C22        -5.1857    2.9711   -3.4691 C.3       1 <0>         0.0924
     30 O1         -5.7717    3.7295   -2.4091 O.3       1 <0>        -0.5876
     31 F4         -1.3659    6.7521    5.7346 F         1 <0>        -0.1386
     32 H3         -0.5659    4.8341    1.7395 H         1 <0>         0.1288
     33 H4         -1.2786    6.7405    3.1247 H         1 <0>         0.1361
     34 H5         -0.5954    4.4306    6.6491 H         1 <0>         0.1368
     35 H6          0.1060    2.5226    5.2602 H         1 <0>         0.1338
     36 H7         -1.4920    1.1976    2.0144 H         1 <0>         0.0859
     37 H8         -1.5214    2.8805    1.3871 H         1 <0>         0.0908
     38 H9          2.7070    3.8729    3.0024 H         1 <0>         0.1324
     39 H10         4.4035    4.2912    1.2705 H         1 <0>         0.1381
     40 H11         2.0344    2.1605   -1.5616 H         1 <0>         0.1388
     41 H12        -1.6885    3.6754   -0.1171 H         1 <0>         0.0494
     42 H13        -0.0796    3.8990   -0.8839 H         1 <0>         0.0798
     43 H14        -1.9221    4.8018   -2.3149 H         1 <0>         0.0796
     44 H15        -1.0635    3.4415   -3.1144 H         1 <0>         0.0413
     45 H16        -3.7213    1.0057   -2.3932 H         1 <0>         0.0793
     46 H17        -2.1125    1.2290   -3.1603 H         1 <0>         0.0421
     47 H18        -1.8777    0.1031   -0.9616 H         1 <0>         0.0816
     48 H19        -2.7363    1.4633   -0.1622 H         1 <0>         0.0489
     49 H20        -3.6245    4.4341   -3.7777 H         1 <0>         0.0806
     50 H21        -3.2750    2.8128   -4.4677 H         1 <0>         0.0517
     51 H22        -5.7128    3.1879   -4.4099 H         1 <0>         0.0430
     52 H23        -5.2683    1.8981   -3.2414 H         1 <0>         0.0395
     53 H24        -6.8335    3.5924   -2.1565 H         1 <0>         0.4024
@<TRIPOS>BOND
     1    1    6 ar
     2    1    2 ar
     3    1   32 1
     4    2    3 ar
     5    2   33 1
     6    3    4 ar
     7    3   31 1
     8    4    5 ar
     9    4   34 1
    10    5    6 ar
    11    5   35 1
    12    6    7 1
    13    7    8 1
    14    7   13 1
    15    7    9 1
    16    9   10 1
    17    9   36 1
    18    9   37 1
    19   10   11 1
    20   10   12 1
    21   10   22 1
    22   12   17 ar
    23   12   13 ar
    24   13   14 ar
    25   14   15 ar
    26   14   38 1
    27   15   16 ar
    28   15   39 1
    29   16   17 ar
    30   16   18 1
    31   17   40 1
    32   18   19 1
    33   18   20 1
    34   18   21 1
    35   22   27 1
    36   22   23 1
    37   23   24 1
    38   23   41 1
    39   23   42 1
    40   24   25 1
    41   24   43 1
    42   24   44 1
    43   25   26 1
    44   25   28 1
    45   26   27 1
    46   26   45 1
    47   26   46 1
    48   27   47 1
    49   27   48 1
    50   28   29 1
    51   28   49 1
    52   28   50 1
    53   29   30 1
    54   29   51 1
    55   29   52 1
    56   30   53 1
@<TRIPOS>MOLECULE
ZINC22937858
   54    57     0     0     0
SMALL
USER_CHARGES
2-[4-[(1S,3R)-3-(4-fluorophenyl)-6-(trifluoromethyl)indan-1-yl]piperazin-1-yl]ethanol
@<TRIPOS>ATOM
      1 C1          0.1870    2.1606   -4.1297 C.ar      1 <0>        -0.0795
      2 C2          0.2538    2.3564   -5.4961 C.ar      1 <0>        -0.1490
      3 C3         -0.2299    3.5289   -6.0514 C.ar      1 <0>         0.1149
      4 C4         -0.7856    4.5014   -5.2374 C.ar      1 <0>        -0.1491
      5 C5         -0.8568    4.3008   -3.8720 C.ar      1 <0>        -0.0775
      6 C6         -0.3732    3.1299   -3.3186 C.ar      1 <0>        -0.1131
      7 C7         -0.4510    2.9126   -1.8294 C.3       1 <0>        -0.0235
      8 H1         -0.9211    3.8142   -1.4098 H         1 <0>         0.1155
      9 C8         -1.2333    1.6192   -1.5171 C.3       1 <0>        -0.1298
     10 C9         -0.5057    1.0861   -0.2646 C.3       1 <0>         0.0942
     11 H2         -0.5210   -0.0102   -0.1759 H         1 <0>         0.1435
     12 C10         0.9011    1.6367   -0.3592 C.ar      1 <0>        -0.1598
     13 C11         0.9325    2.6864   -1.2586 C.ar      1 <0>        -0.0272
     14 C12         2.1241    3.3465   -1.5059 C.ar      1 <0>        -0.0931
     15 C13         3.2809    2.9595   -0.8574 C.ar      1 <0>        -0.0344
     16 C14         3.2495    1.9103    0.0417 C.ar      1 <0>        -0.1744
     17 C15         2.0615    1.2503    0.2898 C.ar      1 <0>        -0.0337
     18 C16         4.5101    1.4860    0.7500 C.3       1 <0>         0.5081
     19 F1          5.5728    2.2966    0.3365 F         1 <0>        -0.1688
     20 F2          4.3349    1.6159    2.1319 F         1 <0>        -0.1732
     21 F3          4.7931    0.1516    0.4392 F         1 <0>        -0.1699
     22 N1         -1.1630    1.5739    0.9553 N.4       1 <0>        -0.4004
     23 C17        -0.3115    1.3599    2.1338 C.3       1 <0>        -0.0057
     24 C18        -0.9958    1.9516    3.3684 C.3       1 <0>         0.0223
     25 N2         -2.3089    1.3170    3.5488 N.3       1 <0>        -0.5323
     26 C19        -3.1604    1.5310    2.3703 C.3       1 <0>         0.0202
     27 C20        -2.4762    0.9393    1.1357 C.3       1 <0>        -0.0030
     28 C21        -2.9662    1.8047    4.7686 C.3       1 <0>         0.0524
     29 C22        -2.8880    3.3321    4.8143 C.3       1 <0>         0.0399
     30 O1         -3.6742    3.8812    3.7549 O.3       1 <0>        -0.6058
     31 F4         -0.1593    3.7241   -7.3864 F         1 <0>        -0.1308
     32 H3          0.5688    1.2483   -3.6958 H         1 <0>         0.1305
     33 H4          0.6877    1.5973   -6.1301 H         1 <0>         0.1410
     34 H5         -1.1635    5.4163   -5.6695 H         1 <0>         0.1423
     35 H6         -1.2902    5.0592   -3.2368 H         1 <0>         0.1353
     36 H7         -2.2882    1.8658   -1.3265 H         1 <0>         0.1102
     37 H8         -1.1662    0.9339   -2.3749 H         1 <0>         0.1272
     38 H9          2.1494    4.1665   -2.2084 H         1 <0>         0.1465
     39 H10         4.2088    3.4765   -1.0525 H         1 <0>         0.1548
     40 H11         2.0377    0.4305    0.9924 H         1 <0>         0.1427
     41 H12        -0.1547    0.2812    2.2818 H         1 <0>         0.1355
     42 H13         0.6592    1.8537    1.9794 H         1 <0>         0.1332
     43 H14        -0.3733    1.7672    4.2564 H         1 <0>         0.1213
     44 H15        -1.1269    3.0351    3.2311 H         1 <0>         0.0655
     45 H16        -4.1311    1.0372    2.5248 H         1 <0>         0.1189
     46 H17        -3.3172    2.6096    2.2222 H         1 <0>         0.0900
     47 H18        -3.0977    1.1238    0.2471 H         1 <0>         0.1355
     48 H19        -2.3442   -0.1442    1.2723 H         1 <0>         0.1342
     49 H20        -4.0206    1.4914    4.7672 H         1 <0>         0.0958
     50 H21        -2.4602    1.3851    5.6506 H         1 <0>         0.1063
     51 H22        -3.2732    3.6902    5.7804 H         1 <0>         0.0589
     52 H23        -1.8413    3.6494    4.6966 H         1 <0>         0.0486
     53 H24        -3.7399    4.9718    3.6270 H         1 <0>         0.4159
     54 H25        -1.3215    2.6566    0.8427 H         1 <0>         0.4327
@<TRIPOS>BOND
     1    1    6 ar
     2    1    2 ar
     3    1   32 1
     4    2    3 ar
     5    2   33 1
     6    3    4 ar
     7    3   31 1
     8    4    5 ar
     9    4   34 1
    10    5    6 ar
    11    5   35 1
    12    6    7 1
    13    7    8 1
    14    7   13 1
    15    7    9 1
    16    9   10 1
    17    9   36 1
    18    9   37 1
    19   10   11 1
    20   10   12 1
    21   10   22 1
    22   12   17 ar
    23   12   13 ar
    24   13   14 ar
    25   14   15 ar
    26   14   38 1
    27   15   16 ar
    28   15   39 1
    29   16   17 ar
    30   16   18 1
    31   17   40 1
    32   18   19 1
    33   18   20 1
    34   18   21 1
    35   22   27 1
    36   22   23 1
    37   22   54 1
    38   23   24 1
    39   23   41 1
    40   23   42 1
    41   24   25 1
    42   24   43 1
    43   24   44 1
    44   25   26 1
    45   25   28 1
    46   26   27 1
    47   26   45 1
    48   26   46 1
    49   27   47 1
    50   27   48 1
    51   28   29 1
    52   28   49 1
    53   28   50 1
    54   29   30 1
    55   29   51 1
    56   29   52 1
    57   30   53 1
@<TRIPOS>MOLECULE
ZINC22937858
   53    56     0     0     0
SMALL
USER_CHARGES
2-[4-[(1S,3R)-3-(4-fluorophenyl)-6-(trifluoromethyl)indan-1-yl]piperazin-1-yl]ethanol
@<TRIPOS>ATOM
      1 C1          0.1870    2.1606   -4.1297 C.ar      1 <0>        -0.0805
      2 C2          0.2538    2.3564   -5.4961 C.ar      1 <0>        -0.1508
      3 C3         -0.2299    3.5289   -6.0514 C.ar      1 <0>         0.0980
      4 C4         -0.7856    4.5014   -5.2374 C.ar      1 <0>        -0.1513
      5 C5         -0.8568    4.3008   -3.8720 C.ar      1 <0>        -0.0832
      6 C6         -0.3732    3.1299   -3.3186 C.ar      1 <0>        -0.0937
      7 C7         -0.4510    2.9126   -1.8294 C.3       1 <0>        -0.0059
      8 H1         -0.9211    3.8142   -1.4098 H         1 <0>         0.1065
      9 C8         -1.2333    1.6192   -1.5171 C.3       1 <0>        -0.1003
     10 C9         -0.5057    1.0861   -0.2646 C.3       1 <0>         0.1287
     11 H2         -0.5210   -0.0102   -0.1759 H         1 <0>         0.0592
     12 C10         0.9011    1.6367   -0.3592 C.ar      1 <0>        -0.0889
     13 C11         0.9325    2.6864   -1.2586 C.ar      1 <0>        -0.0357
     14 C12         2.1241    3.3465   -1.5059 C.ar      1 <0>        -0.1024
     15 C13         3.2809    2.9595   -0.8574 C.ar      1 <0>        -0.0653
     16 C14         3.2495    1.9103    0.0417 C.ar      1 <0>        -0.1831
     17 C15         2.0615    1.2503    0.2898 C.ar      1 <0>        -0.0510
     18 C16         4.5101    1.4860    0.7500 C.3       1 <0>         0.5095
     19 F1          5.5728    2.2966    0.3365 F         1 <0>        -0.1761
     20 F2          4.3349    1.6159    2.1319 F         1 <0>        -0.1760
     21 F3          4.7931    0.1516    0.4392 F         1 <0>        -0.1760
     22 N1         -1.1630    1.5739    0.9553 N.3       1 <0>        -0.5316
     23 C17        -0.3115    1.3599    2.1338 C.3       1 <0>         0.0525
     24 C18        -0.9958    1.9516    3.3684 C.3       1 <0>         0.0535
     25 N2         -2.3089    1.3170    3.5488 N.3       1 <0>        -0.5346
     26 C19        -3.1604    1.5310    2.3703 C.3       1 <0>         0.0518
     27 C20        -2.4762    0.9393    1.1357 C.3       1 <0>         0.0551
     28 C21        -2.9662    1.8047    4.7686 C.3       1 <0>         0.0533
     29 C22        -2.8880    3.3321    4.8143 C.3       1 <0>         0.0447
     30 O1         -3.6742    3.8812    3.7549 O.3       1 <0>        -0.5935
     31 F4         -0.1593    3.7241   -7.3864 F         1 <0>        -0.1392
     32 H3          0.5688    1.2483   -3.6958 H         1 <0>         0.1307
     33 H4          0.6877    1.5973   -6.1301 H         1 <0>         0.1356
     34 H5         -1.1635    5.4163   -5.6695 H         1 <0>         0.1364
     35 H6         -1.2902    5.0592   -3.2368 H         1 <0>         0.1339
     36 H7         -2.2882    1.8658   -1.3265 H         1 <0>         0.0916
     37 H8         -1.1662    0.9339   -2.3749 H         1 <0>         0.0847
     38 H9          2.1494    4.1665   -2.2084 H         1 <0>         0.1333
     39 H10         4.2088    3.4765   -1.0525 H         1 <0>         0.1413
     40 H11         2.0377    0.4305    0.9924 H         1 <0>         0.1308
     41 H12        -0.1547    0.2812    2.2818 H         1 <0>         0.0413
     42 H13         0.6592    1.8537    1.9794 H         1 <0>         0.0830
     43 H14        -0.3733    1.7672    4.2564 H         1 <0>         0.0762
     44 H15        -1.1269    3.0351    3.2311 H         1 <0>         0.0499
     45 H16        -4.1311    1.0372    2.5248 H         1 <0>         0.0733
     46 H17        -3.3172    2.6096    2.2222 H         1 <0>         0.0758
     47 H18        -3.0977    1.1238    0.2471 H         1 <0>         0.0817
     48 H19        -2.3442   -0.1442    1.2723 H         1 <0>         0.0402
     49 H20        -4.0206    1.4914    4.7672 H         1 <0>         0.0815
     50 H21        -2.4602    1.3851    5.6506 H         1 <0>         0.0909
     51 H22        -3.2732    3.6902    5.7804 H         1 <0>         0.0433
     52 H23        -1.8413    3.6494    4.6966 H         1 <0>         0.0477
     53 H24        -3.7399    4.9718    3.6270 H         1 <0>         0.4030
@<TRIPOS>BOND
     1    1    6 ar
     2    1    2 ar
     3    1   32 1
     4    2    3 ar
     5    2   33 1
     6    3    4 ar
     7    3   31 1
     8    4    5 ar
     9    4   34 1
    10    5    6 ar
    11    5   35 1
    12    6    7 1
    13    7    8 1
    14    7   13 1
    15    7    9 1
    16    9   10 1
    17    9   36 1
    18    9   37 1
    19   10   11 1
    20   10   12 1
    21   10   22 1
    22   12   17 ar
    23   12   13 ar
    24   13   14 ar
    25   14   15 ar
    26   14   38 1
    27   15   16 ar
    28   15   39 1
    29   16   17 ar
    30   16   18 1
    31   17   40 1
    32   18   19 1
    33   18   20 1
    34   18   21 1
    35   22   27 1
    36   22   23 1
    37   23   24 1
    38   23   41 1
    39   23   42 1
    40   24   25 1
    41   24   43 1
    42   24   44 1
    43   25   26 1
    44   25   28 1
    45   26   27 1
    46   26   45 1
    47   26   46 1
    48   27   47 1
    49   27   48 1
    50   28   29 1
    51   28   49 1
    52   28   50 1
    53   29   30 1
    54   29   51 1
    55   29   52 1
    56   30   53 1
@<TRIPOS>MOLECULE
ZINC03786466
   49    52     0     0     0
SMALL
USER_CHARGES

@<TRIPOS>ATOM
      1 C1         -0.0187    1.5258    0.0104 C.3       1 <0>        -0.1558
      2 C2          0.0021   -0.0041    0.0020 C.3       1 <0>        -0.1498
      3 C3          0.7421   -0.5109    1.2415 C.3       1 <0>        -0.0188
      4 N1          0.7620   -1.9797    1.2335 N.4       1 <0>        -0.3806
      5 C4         -0.6101   -2.4861    1.3521 C.3       1 <0>        -0.0057
      6 C5         -0.6004   -4.0136    1.2571 C.3       1 <0>        -0.0898
      7 H1         -0.1781   -4.3164    0.2989 H         1 <0>         0.1056
      8 C6          0.2521   -4.5820    2.3946 C.3       1 <0>        -0.1280
      9 C7          1.6621   -3.9884    2.3134 C.3       1 <0>        -0.0374
     10 H2          2.1261   -4.2935    1.3755 H         1 <0>         0.1035
     11 C8          1.5740   -2.4625    2.3580 C.3       1 <0>         0.0403
     12 H3          1.0792   -2.1743    3.2855 H         1 <0>         0.1338
     13 C9          2.9415   -1.7644    2.3169 C.3       1 <0>        -0.0487
     14 C10         3.7806   -2.3188    3.4398 C.2       1 <0>        -0.2002
     15 C11         4.7972   -1.8861    4.1694 C.2       1 <0>         0.0906
     16 N2          5.1731   -2.8522    5.0907 N.pl3     1 <0>        -0.5885
     17 H4          5.8954   -2.7557    5.7308 H         1 <0>         0.4238
     18 C12         4.3837   -3.9557    4.9695 C.ar      1 <0>         0.1146
     19 C13         3.4898   -3.6653    3.9323 C.ar      1 <0>        -0.1355
     20 C14         2.4854   -4.4951    3.4586 C.ar      1 <0>        -0.0472
     21 C15         2.3923   -5.6916    4.0965 C.ar      1 <0>        -0.1170
     22 C16         3.2547   -5.9991    5.1479 C.ar      1 <0>        -0.0959
     23 C17         4.2659   -5.2011    5.5842 C.ar      1 <0>        -0.1047
     24 C18        -2.0313   -4.5424    1.3751 C.3       1 <0>        -0.0921
     25 S1         -2.0359   -6.3376    1.1149 S.3       1 <0>        -0.2398
     26 C19        -3.7814   -6.8013    1.2853 C.3       1 <0>        -0.1232
     27 H5          1.0039    1.9031    0.0027 H         1 <0>         0.0674
     28 H6         -0.5459    1.8868   -0.8726 H         1 <0>         0.0771
     29 H7         -0.5289    1.8773    0.9072 H         1 <0>         0.0665
     30 H8         -1.0205   -0.3814    0.0098 H         1 <0>         0.0853
     31 H9          0.5123   -0.3556   -0.8948 H         1 <0>         0.0868
     32 H10         1.7647   -0.1336    1.2338 H         1 <0>         0.1371
     33 H11         0.2319   -0.1594    2.1383 H         1 <0>         0.1304
     34 H12        -1.0268   -2.1845    2.3131 H         1 <0>         0.1316
     35 H13        -1.2196   -2.0759    0.5469 H         1 <0>         0.1362
     36 H14        -0.1981   -4.3211    3.3524 H         1 <0>         0.0877
     37 H15         0.3078   -5.6666    2.3010 H         1 <0>         0.1093
     38 H16         3.4275   -1.9619    1.3614 H         1 <0>         0.0928
     39 H17         2.8112   -0.6904    2.4498 H         1 <0>         0.0980
     40 H18         5.2667   -0.9194    4.0622 H         1 <0>         0.1734
     41 H19         1.6457   -6.4082    3.7873 H         1 <0>         0.1269
     42 H20         3.1443   -6.9607    5.6271 H         1 <0>         0.1259
     43 H21         4.9178   -5.4969    6.3928 H         1 <0>         0.1359
     44 H22        -2.4207   -4.3182    2.3682 H         1 <0>         0.0922
     45 H23        -2.6585   -4.0646    0.6225 H         1 <0>         0.0926
     46 H24        -4.3718   -6.2760    0.5346 H         1 <0>         0.0810
     47 H25        -3.8871   -7.8768    1.1435 H         1 <0>         0.1099
     48 H26        -4.1340   -6.5296    2.2803 H         1 <0>         0.0813
     49 H27         1.1636   -2.3045    0.3667 H         1 <0>         0.4212
@<TRIPOS>BOND
     1    1    2 1
     2    1   27 1
     3    1   28 1
     4    1   29 1
     5    2    3 1
     6    2   30 1
     7    2   31 1
     8    3    4 1
     9    3   32 1
    10    3   33 1
    11    4   11 1
    12    4    5 1
    13    4   49 1
    14    5    6 1
    15    5   34 1
    16    5   35 1
    17    6    7 1
    18    6    8 1
    19    6   24 1
    20    8    9 1
    21    8   36 1
    22    8   37 1
    23    9   10 1
    24    9   20 1
    25    9   11 1
    26   11   12 1
    27   11   13 1
    28   13   14 1
    29   13   38 1
    30   13   39 1
    31   14   19 1
    32   14   15 2
    33   15   16 1
    34   15   40 1
    35   16   17 1
    36   16   18 1
    37   18   23 ar
    38   18   19 ar
    39   19   20 ar
    40   20   21 ar
    41   21   22 ar
    42   21   41 1
    43   22   23 ar
    44   22   42 1
    45   23   43 1
    46   24   25 1
    47   24   44 1
    48   24   45 1
    49   25   26 1
    50   26   46 1
    51   26   47 1
    52   26   48 1
@<TRIPOS>MOLECULE
ZINC53064442
   59    62     0     0     0
SMALL
USER_CHARGES

@<TRIPOS>ATOM
      1 C1         -0.0173    1.4248    0.0099 C.3       1 <0>         0.0252
      2 O1          0.0021   -0.0041    0.0020 O.3       1 <0>        -0.3038
      3 C2          0.6063   -0.6076   -1.0566 C.ar      1 <0>         0.1200
      4 C3          1.1727    0.1584   -2.0619 C.ar      1 <0>        -0.2067
      5 C4          1.7862   -0.4565   -3.1379 C.ar      1 <0>        -0.0837
      6 C5          1.8369   -1.8361   -3.2138 C.ar      1 <0>        -0.1522
      7 C6          1.2745   -2.6077   -2.2144 C.ar      1 <0>        -0.0880
      8 C7          0.6620   -1.9977   -1.1294 C.ar      1 <0>         0.1392
      9 N1          0.0968   -2.7768   -0.1132 N.pl3     1 <0>        -0.6682
     10 C8         -1.3056   -3.2137   -0.1884 C.3       1 <0>         0.1543
     11 C9         -1.3570   -4.7276    0.0431 C.3       1 <0>         0.0432
     12 N2         -0.6724   -5.0507    1.3020 N.3       1 <0>        -0.5286
     13 C10         0.7517   -4.6956    1.2405 C.3       1 <0>         0.0373
     14 C11         0.8913   -3.1855    1.0551 C.3       1 <0>         0.1540
     15 C12        -0.8472   -6.4678    1.6476 C.3       1 <0>         0.0496
     16 C13        -0.3417   -6.7116    3.0710 C.3       1 <0>         0.0947
     17 N3         -0.5160   -8.1248    3.4157 N.am      1 <0>        -0.5648
     18 C14        -1.6686   -8.5092    3.9834 C.2       1 <0>         0.5224
     19 O2         -2.5368   -7.6868    4.1818 O.2       1 <0>        -0.4928
     20 C15        -1.9055   -9.9436    4.3791 C.3       1 <0>        -0.1313
     21 C16        -1.0927  -10.8580    3.4640 C.3       1 <0>        -0.0666
     22 C17        -1.2370  -12.3190    3.9117 C.3       1 <0>        -0.1127
     23 C18        -1.8643  -13.0802    2.7242 C.3       1 <0>        -0.1253
     24 C19        -1.5011  -12.2210    1.4873 C.3       1 <0>        -0.1236
     25 C20        -1.6310  -10.7733    2.0249 C.3       1 <0>        -0.1241
     26 C21         0.3768  -10.4406    3.4955 C.3       1 <0>        -0.1304
     27 C22         0.4818   -8.9790    3.1448 C.2       1 <0>         0.5233
     28 O3          1.4894   -8.5664    2.6118 O.2       1 <0>        -0.4984
     29 H1          1.0053    1.8021    0.0021 H         1 <0>         0.0536
     30 H2         -0.5445    1.7859   -0.8732 H         1 <0>         0.0536
     31 H3         -0.5275    1.7763    0.9067 H         1 <0>         0.0992
     32 H4          1.1348    1.2363   -2.0057 H         1 <0>         0.1276
     33 H5          2.2267    0.1425   -3.9212 H         1 <0>         0.1244
     34 H6          2.3168   -2.3119   -4.0562 H         1 <0>         0.1237
     35 H7          1.3151   -3.6852   -2.2764 H         1 <0>         0.1250
     36 H8         -1.8890   -2.7058    0.5796 H         1 <0>         0.0594
     37 H9         -1.7097   -2.9800   -1.1734 H         1 <0>         0.0701
     38 H10        -2.3961   -5.0517    0.1006 H         1 <0>         0.0801
     39 H11        -0.8612   -5.2388   -0.7821 H         1 <0>         0.0352
     40 H12         1.2419   -4.9966    2.1663 H         1 <0>         0.0816
     41 H13         1.2181   -5.2073    0.3986 H         1 <0>         0.0367
     42 H14         1.9390   -2.9332    0.8918 H         1 <0>         0.0699
     43 H15         0.5231   -2.6749    1.9450 H         1 <0>         0.0584
     44 H16        -1.9037   -6.7288    1.5875 H         1 <0>         0.0781
     45 H17        -0.2804   -7.0845    0.9501 H         1 <0>         0.0366
     46 H18         0.7149   -6.4507    3.1310 H         1 <0>         0.0953
     47 H19        -0.9085   -6.0950    3.7685 H         1 <0>         0.1048
     48 H20        -1.5937  -10.0924    5.4129 H         1 <0>         0.1126
     49 H21        -2.9654  -10.1783    4.2802 H         1 <0>         0.1162
     50 H22        -0.2581  -12.7361    4.1480 H         1 <0>         0.0750
     51 H23        -1.8902  -12.3805    4.7822 H         1 <0>         0.0752
     52 H24        -1.4301  -14.0763    2.6375 H         1 <0>         0.0698
     53 H25        -2.9462  -13.1434    2.8404 H         1 <0>         0.0689
     54 H26        -0.4799  -12.4224    1.1636 H         1 <0>         0.0695
     55 H27        -2.2064  -12.3960    0.6750 H         1 <0>         0.0702
     56 H28        -2.6746  -10.4585    2.0255 H         1 <0>         0.0752
     57 H29        -1.0253  -10.0894    1.4303 H         1 <0>         0.0639
     58 H30         0.7821  -10.6095    4.4932 H         1 <0>         0.1130
     59 H31         0.9381  -11.0285    2.7693 H         1 <0>         0.1151
@<TRIPOS>BOND
     1    1    2 1
     2    1   29 1
     3    1   30 1
     4    1   31 1
     5    2    3 1
     6    3    8 ar
     7    3    4 ar
     8    4    5 ar
     9    4   32 1
    10    5    6 ar
    11    5   33 1
    12    6    7 ar
    13    6   34 1
    14    7    8 ar
    15    7   35 1
    16    8    9 1
    17    9   14 1
    18    9   10 1
    19   10   11 1
    20   10   36 1
    21   10   37 1
    22   11   12 1
    23   11   38 1
    24   11   39 1
    25   12   13 1
    26   12   15 1
    27   13   14 1
    28   13   40 1
    29   13   41 1
    30   14   42 1
    31   14   43 1
    32   15   16 1
    33   15   44 1
    34   15   45 1
    35   16   17 1
    36   16   46 1
    37   16   47 1
    38   17   27 am
    39   17   18 am
    40   18   19 2
    41   18   20 1
    42   20   21 1
    43   20   48 1
    44   20   49 1
    45   21   25 1
    46   21   22 1
    47   21   26 1
    48   22   23 1
    49   22   50 1
    50   22   51 1
    51   23   24 1
    52   23   52 1
    53   23   53 1
    54   24   25 1
    55   24   54 1
    56   24   55 1
    57   25   56 1
    58   25   57 1
    59   26   27 1
    60   26   58 1
    61   26   59 1
    62   27   28 2
@<TRIPOS>MOLECULE
ZINC19796084
   64    68     0     0     0
SMALL
USER_CHARGES

@<TRIPOS>ATOM
      1 C1         -0.2663   -0.3620    5.4641 C.ar      1 <0>        -0.0986
      2 C2          0.6994    0.5149    5.0004 C.ar      1 <0>        -0.1026
      3 C3          1.8638    0.0332    4.4352 C.ar      1 <0>        -0.1044
      4 C4          2.0664   -1.3346    4.3318 C.ar      1 <0>         0.0788
      5 C5          1.0924   -2.2191    4.7995 C.ar      1 <0>         0.0916
      6 C6         -0.0735   -1.7260    5.3654 C.ar      1 <0>        -0.0998
      7 N1          1.5706   -3.5059    4.5639 N.am      1 <0>        -0.6391
      8 H1          1.1107   -4.3313    4.7830 H         1 <0>         0.4399
      9 C7          2.7798   -3.4086    3.9799 C.2       1 <0>         0.6857
     10 O1          3.4724   -4.3503    3.6415 O.2       1 <0>        -0.5583
     11 N2          3.1062   -2.1115    3.8266 N.am      1 <0>        -0.5378
     12 C8          4.3442   -1.6036    3.2301 C.3       1 <0>         0.1610
     13 C9          4.4622   -2.1072    1.7886 C.3       1 <0>        -0.1674
     14 C10         5.7941   -1.6393    1.1981 C.3       1 <0>         0.0018
     15 N3          6.9027   -2.1747    1.9974 N.4       1 <0>        -0.3868
     16 C11         6.8368   -1.6390    3.3624 C.3       1 <0>        -0.0033
     17 C12         5.5451   -2.1068    4.0361 C.3       1 <0>        -0.1667
     18 C13         8.1794   -1.7878    1.3822 C.3       1 <0>        -0.0099
     19 C14         9.3321   -2.4478    2.1415 C.3       1 <0>        -0.1521
     20 C15        10.6618   -2.0449    1.5008 C.3       1 <0>        -0.1087
     21 C16        11.8145   -2.7048    2.2601 C.3       1 <0>         0.0020
     22 C17        11.7312   -4.2008    2.0984 C.ar      1 <0>        -0.0960
     23 C18        11.6406   -4.7550    0.8351 C.ar      1 <0>        -0.0887
     24 C19        11.5647   -6.1268    0.6856 C.ar      1 <0>        -0.1502
     25 C20        11.5793   -6.9462    1.8016 C.ar      1 <0>         0.1040
     26 C21        11.6701   -6.3900    3.0664 C.ar      1 <0>        -0.1491
     27 C22        11.7512   -5.0182    3.2131 C.ar      1 <0>        -0.0845
     28 F1         11.5046   -8.2873    1.6567 F         1 <0>        -0.1345
     29 C23        13.1272   -2.2122    1.7076 C.ar      1 <0>        -0.0972
     30 C24        13.3682   -2.2667    0.3474 C.ar      1 <0>        -0.0865
     31 C25        14.5714   -1.8148   -0.1604 C.ar      1 <0>        -0.1502
     32 C26        15.5358   -1.3073    0.6937 C.ar      1 <0>         0.1057
     33 C27        15.2933   -1.2531    2.0559 C.ar      1 <0>        -0.1489
     34 C28        14.0872   -1.7008    2.5608 C.ar      1 <0>        -0.0812
     35 F2         16.7126   -0.8656    0.1985 F         1 <0>        -0.1344
     36 H2         -1.1724    0.0221    5.9090 H         1 <0>         0.1403
     37 H3          0.5414    1.5802    5.0807 H         1 <0>         0.1389
     38 H4          2.6148    0.7203    4.0743 H         1 <0>         0.1287
     39 H5         -0.8291   -2.4070    5.7282 H         1 <0>         0.1370
     40 H6          4.3316   -0.5137    3.2367 H         1 <0>         0.1148
     41 H7          4.4224   -3.1964    1.7792 H         1 <0>         0.1076
     42 H8          3.6403   -1.7072    1.1949 H         1 <0>         0.1178
     43 H9          5.8813   -1.9960    0.1718 H         1 <0>         0.1377
     44 H10         5.8327   -0.5501    1.2078 H         1 <0>         0.1327
     45 H11         7.6939   -1.9955    3.9338 H         1 <0>         0.1389
     46 H12         6.8532   -0.5498    3.3259 H         1 <0>         0.1330
     47 H13         5.4972   -1.7066    5.0489 H         1 <0>         0.1174
     48 H14         5.5278   -3.1961    4.0734 H         1 <0>         0.1073
     49 H15         8.1953   -2.1141    0.3423 H         1 <0>         0.1326
     50 H16         8.2896   -0.7042    1.4247 H         1 <0>         0.1320
     51 H17         9.3162   -2.1215    3.1814 H         1 <0>         0.0898
     52 H18         9.2220   -3.5314    2.0990 H         1 <0>         0.0914
     53 H19        10.6777   -2.3712    0.4609 H         1 <0>         0.0799
     54 H20        10.7720   -0.9613    1.5433 H         1 <0>         0.0841
     55 H21        11.7465   -2.4493    3.3175 H         1 <0>         0.0944
     56 H22        11.6289   -4.1157   -0.0352 H         1 <0>         0.1319
     57 H23        11.4935   -6.5595   -0.3014 H         1 <0>         0.1380
     58 H24        11.6812   -7.0281    3.9376 H         1 <0>         0.1387
     59 H25        11.8265   -4.5844    4.1993 H         1 <0>         0.1333
     60 H26        12.6160   -2.6630   -0.3186 H         1 <0>         0.1302
     61 H27        14.7596   -1.8579   -1.2230 H         1 <0>         0.1383
     62 H28        16.0449   -0.8577    2.7231 H         1 <0>         0.1395
     63 H29        13.8961   -1.6545    3.6228 H         1 <0>         0.1335
     64 H30         6.8381   -3.1812    2.0286 H         1 <0>         0.4267
@<TRIPOS>BOND
     1    1    6 ar
     2    1    2 ar
     3    1   36 1
     4    2    3 ar
     5    2   37 1
     6    3    4 ar
     7    3   38 1
     8    4   11 1
     9    4    5 ar
    10    5    6 ar
    11    5    7 1
    12    6   39 1
    13    7    8 1
    14    7    9 am
    15    9   10 2
    16    9   11 am
    17   11   12 1
    18   12   17 1
    19   12   13 1
    20   12   40 1
    21   13   14 1
    22   13   41 1
    23   13   42 1
    24   14   15 1
    25   14   43 1
    26   14   44 1
    27   15   16 1
    28   15   18 1
    29   15   64 1
    30   16   17 1
    31   16   45 1
    32   16   46 1
    33   17   47 1
    34   17   48 1
    35   18   19 1
    36   18   49 1
    37   18   50 1
    38   19   20 1
    39   19   51 1
    40   19   52 1
    41   20   21 1
    42   20   53 1
    43   20   54 1
    44   21   22 1
    45   21   29 1
    46   21   55 1
    47   22   27 ar
    48   22   23 ar
    49   23   24 ar
    50   23   56 1
    51   24   25 ar
    52   24   57 1
    53   25   26 ar
    54   25   28 1
    55   26   27 ar
    56   26   58 1
    57   27   59 1
    58   29   34 ar
    59   29   30 ar
    60   30   31 ar
    61   30   60 1
    62   31   32 ar
    63   31   61 1
    64   32   33 ar
    65   32   35 1
    66   33   34 ar
    67   33   62 1
    68   34   63 1
@<TRIPOS>MOLECULE
ZINC03860825
   53    57     0     0     0
SMALL
USER_CHARGES

@<TRIPOS>ATOM
      1 C1         -0.0173    1.4248    0.0099 C.3       1 <0>         0.0327
      2 O1          0.0021   -0.0041    0.0020 O.3       1 <0>        -0.3479
      3 C2          0.5984   -0.5997   -1.0427 C.2       1 <0>         0.4737
      4 O2          1.0877    0.0699   -1.9214 O.2       1 <0>        -0.5039
      5 C3          0.6575   -2.1036   -1.1196 C.3       1 <0>        -0.0650
      6 H1          1.1947   -2.4917   -0.2542 H         1 <0>         0.1260
      7 C4         -0.7643   -2.6714   -1.1364 C.3       1 <0>         0.1104
      8 H2         -1.2823   -2.3789   -0.2230 H         1 <0>         0.0803
      9 C5         -0.7098   -4.1973   -1.2238 C.3       1 <0>        -0.1531
     10 C6          0.0283   -4.6160   -2.4980 C.3       1 <0>        -0.1090
     11 C7          1.4478   -4.0496   -2.4652 C.3       1 <0>        -0.1066
     12 H3          1.9678   -4.4265   -1.5844 H         1 <0>         0.0984
     13 C8          1.3811   -2.5214   -2.3995 C.3       1 <0>        -0.0762
     14 H4          0.8340   -2.1460   -3.2643 H         1 <0>         0.1112
     15 C9          2.8021   -1.9525   -2.4146 C.3       1 <0>        -0.1520
     16 C10         3.5142   -2.4494   -3.6743 C.3       1 <0>         0.1158
     17 H5          2.9655   -2.1183   -4.5560 H         1 <0>         0.1480
     18 C11         4.9207   -1.9091   -3.7260 C.2       1 <0>         0.0226
     19 C12         5.9775   -2.6629   -4.1115 C.2       1 <0>        -0.1599
     20 C13         7.1508   -1.8219   -4.0411 C.ar      1 <0>        -0.1001
     21 C14         8.5026   -2.0504   -4.3178 C.ar      1 <0>        -0.0652
     22 C15         9.3608   -0.9941   -4.1376 C.ar      1 <0>        -0.1357
     23 C16         8.9212    0.2451   -3.7015 C.ar      1 <0>        -0.0818
     24 C17         7.5903    0.4991   -3.4190 C.ar      1 <0>        -0.1277
     25 C18         6.6952   -0.5542   -3.5938 C.ar      1 <0>         0.1109
     26 N1          5.3444   -0.6471   -3.4127 N.pl3     1 <0>        -0.5612
     27 H6          4.7717    0.0739   -3.1078 H         1 <0>         0.4234
     28 C19         5.8580   -4.1083   -4.5249 C.3       1 <0>        -0.0677
     29 C20         4.3745   -4.4075   -4.7852 C.3       1 <0>        -0.0061
     30 N2          3.5745   -3.9171   -3.6582 N.4       1 <0>        -0.3774
     31 C21         2.2119   -4.4657   -3.7230 C.3       1 <0>         0.0006
     32 O3         -1.4686   -2.1563   -2.2680 O.3       1 <0>        -0.5638
     33 H7          1.0053    1.8021    0.0021 H         1 <0>         0.0628
     34 H8         -0.5445    1.7859   -0.8732 H         1 <0>         0.0656
     35 H9         -0.5275    1.7763    0.9067 H         1 <0>         0.1087
     36 H10        -0.1842   -4.5917   -0.3542 H         1 <0>         0.0829
     37 H11        -1.7242   -4.5957   -1.2448 H         1 <0>         0.0871
     38 H12         0.0713   -5.7038   -2.5532 H         1 <0>         0.0818
     39 H13        -0.4991   -4.2269   -3.3690 H         1 <0>         0.0847
     40 H14         2.7600   -0.8634   -2.4237 H         1 <0>         0.1318
     41 H15         3.3419   -2.2929   -1.5309 H         1 <0>         0.0903
     42 H16         8.8550   -3.0132   -4.6571 H         1 <0>         0.1348
     43 H17        10.4120   -1.1338   -4.3420 H         1 <0>         0.1279
     44 H18         9.6417    1.0401   -3.5774 H         1 <0>         0.1311
     45 H19         7.2605    1.4697   -3.0791 H         1 <0>         0.1352
     46 H20         6.4334   -4.2800   -5.4346 H         1 <0>         0.1209
     47 H21         6.2289   -4.7515   -3.7269 H         1 <0>         0.0998
     48 H22         4.0584   -3.9085   -5.7013 H         1 <0>         0.1319
     49 H23         4.2337   -5.4833   -4.8902 H         1 <0>         0.1399
     50 H24         2.2638   -5.5532   -3.7749 H         1 <0>         0.1399
     51 H25         1.6991   -4.0815   -4.6048 H         1 <0>         0.1347
     52 H26        -2.3787   -2.4743   -2.3430 H         1 <0>         0.3915
     53 H27         4.0031   -4.2176   -2.7956 H         1 <0>         0.4231
@<TRIPOS>BOND
     1    1    2 1
     2    1   33 1
     3    1   34 1
     4    1   35 1
     5    2    3 1
     6    3    4 2
     7    3    5 1
     8    5    6 1
     9    5   13 1
    10    5    7 1
    11    7    8 1
    12    7    9 1
    13    7   32 1
    14    9   10 1
    15    9   36 1
    16    9   37 1
    17   10   11 1
    18   10   38 1
    19   10   39 1
    20   11   12 1
    21   11   31 1
    22   11   13 1
    23   13   14 1
    24   13   15 1
    25   15   16 1
    26   15   40 1
    27   15   41 1
    28   16   17 1
    29   16   30 1
    30   16   18 1
    31   18   26 1
    32   18   19 2
    33   19   20 1
    34   19   28 1
    35   20   25 ar
    36   20   21 ar
    37   21   22 ar
    38   21   42 1
    39   22   23 ar
    40   22   43 1
    41   23   24 ar
    42   23   44 1
    43   24   25 ar
    44   24   45 1
    45   25   26 1
    46   26   27 1
    47   28   29 1
    48   28   46 1
    49   28   47 1
    50   29   30 1
    51   29   48 1
    52   29   49 1
    53   30   31 1
    54   30   53 1
    55   31   50 1
    56   31   51 1
    57   32   52 1
@<TRIPOS>MOLECULE
ZINC00896218
   45    47     0     0     0
SMALL
USER_CHARGES
1-[(3-hydroxy-4-methoxy-phenyl)methyl]-6-methoxy-1,2,3,4-tetrahydroisoquinolin-7-ol
@<TRIPOS>ATOM
      1 C1          2.2215    5.3022    0.0079 C.3       1 <0>         0.0203
      2 O1          2.3211    3.8766   -0.0002 O.3       1 <0>        -0.3013
      3 C2          1.1554    3.1762    0.0076 C.ar      1 <0>         0.1211
      4 C3         -0.0572    3.8465    0.0223 C.ar      1 <0>        -0.1861
      5 C4         -1.2413    3.1330    0.0298 C.ar      1 <0>        -0.0688
      6 C5         -1.2190    1.7507    0.0173 C.ar      1 <0>        -0.1524
      7 C6         -0.0126    1.0758    0.0080 C.ar      1 <0>        -0.1272
      8 C7          1.1779    1.7849    0.0004 C.ar      1 <0>         0.0868
      9 O2          2.3655    1.1226   -0.0136 O.3       1 <0>        -0.4855
     10 C8         -2.5128    0.9779    0.0198 C.3       1 <0>        -0.0922
     11 C9         -2.9435    0.7090    1.4630 C.3       1 <0>         0.0966
     12 H1         -2.9983    1.6537    2.0040 H         1 <0>         0.1463
     13 C10        -4.3013    0.0564    1.4633 C.ar      1 <0>        -0.1517
     14 C11        -5.2657    0.5429    0.5919 C.ar      1 <0>        -0.0839
     15 C12        -6.5279   -0.0217    0.5585 C.ar      1 <0>         0.0935
     16 C13        -6.8311   -1.0842    1.4051 C.ar      1 <0>         0.1337
     17 C14        -5.8674   -1.5653    2.2708 C.ar      1 <0>        -0.1884
     18 C15        -4.6020   -0.9972    2.2992 C.ar      1 <0>        -0.0529
     19 C16        -3.5842   -1.5621    3.2570 C.3       1 <0>        -0.1073
     20 C17        -2.4327   -0.5729    3.4388 C.3       1 <0>         0.0007
     21 O3         -8.0698   -1.6450    1.3812 O.3       1 <0>        -0.2971
     22 C18        -8.3074   -2.7315    2.2785 C.3       1 <0>         0.0196
     23 O4         -7.4685    0.4589   -0.2981 O.3       1 <0>        -0.4794
     24 H2          1.6750    5.6332   -0.8752 H         1 <0>         0.0617
     25 H3          1.6923    5.6243    0.9047 H         1 <0>         0.0610
     26 H4          3.2213    5.7363    0.0004 H         1 <0>         0.1105
     27 H5         -0.0774    4.9263    0.0283 H         1 <0>         0.1423
     28 H6         -2.1858    3.6566    0.0409 H         1 <0>         0.1361
     29 H7          0.0021   -0.0041    0.0020 H         1 <0>         0.1348
     30 H8          2.7009    0.9351   -0.9010 H         1 <0>         0.3979
     31 H9         -3.2836    1.5582   -0.4873 H         1 <0>         0.1222
     32 H10        -2.3709    0.0301   -0.4996 H         1 <0>         0.1006
     33 H11        -5.0293    1.3677   -0.0639 H         1 <0>         0.1487
     34 H12        -6.1006   -2.3897    2.9284 H         1 <0>         0.1445
     35 H13        -3.1960   -2.5003    2.8605 H         1 <0>         0.1067
     36 H14        -4.0580   -1.7469    4.2210 H         1 <0>         0.1242
     37 H15        -1.6213   -1.0520    3.9866 H         1 <0>         0.1414
     38 H16        -2.7804    0.3011    3.9895 H         1 <0>         0.1346
     39 H17        -7.6141   -3.5432    2.0580 H         1 <0>         0.0612
     40 H18        -8.1581   -2.3948    3.3044 H         1 <0>         0.0618
     41 H19        -9.3313   -3.0853    2.1576 H         1 <0>         0.1122
     42 H20        -7.4692    0.0278   -1.1637 H         1 <0>         0.3981
     43 N1         -1.9514   -0.1631    2.1065 N.4       1 <0>        -0.5135
     44 H21        -1.0649    0.3452    2.2062 H         1 <0>         0.4375
     45 H22        -1.8042   -0.9974    1.5262 H         1 <0>         0.4310
@<TRIPOS>BOND
     1    1    2 1
     2    1   24 1
     3    1   25 1
     4    1   26 1
     5    2    3 1
     6    3    8 ar
     7    3    4 ar
     8    4    5 ar
     9    4   27 1
    10    5    6 ar
    11    5   28 1
    12    6    7 ar
    13    6   10 1
    14    7    8 ar
    15    7   29 1
    16    8    9 1
    17    9   30 1
    18   10   11 1
    19   10   31 1
    20   10   32 1
    21   11   12 1
    22   11   13 1
    23   11   43 1
    24   13   18 ar
    25   13   14 ar
    26   14   15 ar
    27   14   33 1
    28   15   16 ar
    29   15   23 1
    30   16   17 ar
    31   16   21 1
    32   17   18 ar
    33   17   34 1
    34   18   19 1
    35   19   20 1
    36   19   35 1
    37   19   36 1
    38   20   37 1
    39   20   38 1
    40   20   43 1
    41   21   22 1
    42   22   39 1
    43   22   40 1
    44   22   41 1
    45   23   42 1
    46   43   44 1
    47   43   45 1
@<TRIPOS>MOLECULE
ZINC00896220
   45    47     0     0     0
SMALL
USER_CHARGES
1-[(3-hydroxy-4-methoxy-phenyl)methyl]-6-methoxy-1,2,3,4-tetrahydroisoquinolin-7-ol
@<TRIPOS>ATOM
      1 C1          1.6300   -5.2215    1.9842 C.3       1 <0>         0.0210
      2 O1          2.6828   -4.4648    1.3833 O.3       1 <0>        -0.3005
      3 C2          2.5352   -3.1132    1.3586 C.ar      1 <0>         0.1202
      4 C3          1.4023   -2.5283    1.9012 C.ar      1 <0>        -0.1882
      5 C4          1.2567   -1.1537    1.8808 C.ar      1 <0>        -0.1048
      6 C5          2.2344   -0.3604    1.3096 C.ar      1 <0>        -0.1507
      7 C6          3.3671   -0.9375    0.7665 C.ar      1 <0>        -0.0925
      8 C7          3.5219   -2.3143    0.7888 C.ar      1 <0>         0.0900
      9 O2          4.6358   -2.8836    0.2553 O.3       1 <0>        -0.4838
     10 C8          2.0677    1.1371    1.2844 C.3       1 <0>        -0.0933
     11 C9          1.3499    1.5489   -0.0025 C.3       1 <0>         0.0968
     12 H1          1.8909    1.1485   -0.8599 H         1 <0>         0.1468
     13 C10         1.3169    3.0522   -0.0933 C.ar      1 <0>        -0.1519
     14 C11         2.4607    3.7581    0.2524 C.ar      1 <0>        -0.0838
     15 C12         2.4794    5.1393    0.1817 C.ar      1 <0>         0.0936
     16 C13         1.3430    5.8239   -0.2398 C.ar      1 <0>         0.1339
     17 C14         0.2049    5.1163   -0.5823 C.ar      1 <0>        -0.1884
     18 C15         0.1909    3.7311   -0.5077 C.ar      1 <0>        -0.0532
     19 C16        -1.0765    3.0060   -0.8823 C.3       1 <0>        -0.1074
     20 C17        -0.7775    1.5282   -1.1348 C.3       1 <0>         0.0009
     21 O3          1.3516    7.1818   -0.3140 O.3       1 <0>        -0.2970
     22 C18         0.1488    7.8150   -0.7549 C.3       1 <0>         0.0197
     23 O4          3.6029    5.8254    0.5227 O.3       1 <0>        -0.4798
     24 H2          1.5147   -4.9204    3.0254 H         1 <0>         0.0609
     25 H3          0.6989   -5.0383    1.4478 H         1 <0>         0.0596
     26 H4          1.8732   -6.2830    1.9377 H         1 <0>         0.1103
     27 H5          0.6350   -3.1461    2.3441 H         1 <0>         0.1414
     28 H6          0.3754   -0.6988    2.3083 H         1 <0>         0.1276
     29 H7          4.1312   -0.3153    0.3245 H         1 <0>         0.1431
     30 H8          5.3627   -2.9900    0.8841 H         1 <0>         0.3981
     31 H9          3.0479    1.6125    1.3218 H         1 <0>         0.1219
     32 H10         1.4783    1.4516    2.1457 H         1 <0>         0.1015
     33 H11         3.3417    3.2256    0.5792 H         1 <0>         0.1488
     34 H12        -0.6779    5.6452   -0.9098 H         1 <0>         0.1445
     35 H13        -1.7982    3.0955   -0.0703 H         1 <0>         0.1066
     36 H14        -1.4939    3.4503   -1.7860 H         1 <0>         0.1241
     37 H15        -0.1909    1.4241   -2.0476 H         1 <0>         0.1348
     38 H16        -1.7127    0.9767   -1.2322 H         1 <0>         0.1410
     39 H17        -0.0974    7.4684   -1.7585 H         1 <0>         0.0614
     40 H18        -0.6645    7.5641   -0.0740 H         1 <0>         0.0615
     41 H19         0.2910    8.8956   -0.7683 H         1 <0>         0.1121
     42 H20         4.2101    5.9772   -0.2144 H         1 <0>         0.3987
     43 N1         -0.0135    1.0014    0.0113 N.4       1 <0>        -0.5133
     44 H21        -0.4802    1.2720    0.8849 H         1 <0>         0.4310
     45 H22         0.0302   -0.0226   -0.0504 H         1 <0>         0.4366
@<TRIPOS>BOND
     1    1    2 1
     2    1   24 1
     3    1   25 1
     4    1   26 1
     5    2    3 1
     6    3    8 ar
     7    3    4 ar
     8    4    5 ar
     9    4   27 1
    10    5    6 ar
    11    5   28 1
    12    6    7 ar
    13    6   10 1
    14    7    8 ar
    15    7   29 1
    16    8    9 1
    17    9   30 1
    18   10   11 1
    19   10   31 1
    20   10   32 1
    21   11   12 1
    22   11   13 1
    23   11   43 1
    24   13   18 ar
    25   13   14 ar
    26   14   15 ar
    27   14   33 1
    28   15   16 ar
    29   15   23 1
    30   16   17 ar
    31   16   21 1
    32   17   18 ar
    33   17   34 1
    34   18   19 1
    35   19   20 1
    36   19   35 1
    37   19   36 1
    38   20   37 1
    39   20   38 1
    40   20   43 1
    41   21   22 1
    42   22   39 1
    43   22   40 1
    44   22   41 1
    45   23   42 1
    46   43   44 1
    47   43   45 1
@<TRIPOS>MOLECULE
ZINC00009073
   38    41     0     0     0
SMALL
USER_CHARGES

@<TRIPOS>ATOM
      1 C1         -0.0178    1.4648    0.0101 C.3       1 <0>        -0.0530
      2 N1          0.0021   -0.0041    0.0020 N.4       1 <0>        -0.3818
      3 C2         -1.3707   -0.5099    0.0093 C.3       1 <0>        -0.0045
      4 C3         -1.3945   -2.0165   -0.1908 C.3       1 <0>        -0.1054
      5 C4         -0.2778   -2.7021    0.5444 C.ar      1 <0>        -0.0840
      6 C5         -0.2629   -4.0910    0.5709 C.ar      1 <0>        -0.1053
      7 C6          0.7244   -4.7743    1.2518 C.ar      1 <0>        -0.0885
      8 C7          1.7146   -4.0754    1.9128 C.ar      1 <0>        -0.0992
      9 C8          1.7194   -2.6860    1.8733 C.ar      1 <0>        -0.0068
     10 C9          0.7130   -1.9965    1.1919 C.ar      1 <0>        -0.1248
     11 C10         0.7133   -0.4906    1.1934 C.3       1 <0>         0.0895
     12 H1          0.2077   -0.1297    2.0890 H         1 <0>         0.1464
     13 C11         2.1391    0.0560    1.1696 C.3       1 <0>        -0.0929
     14 C12         2.9742   -0.5785    2.2479 C.ar      1 <0>        -0.0798
     15 C13         2.7759   -1.9188    2.5745 C.ar      1 <0>        -0.0653
     16 C14         3.5639   -2.5230    3.5530 C.ar      1 <0>         0.1042
     17 C15         4.5367   -1.7751    4.2088 C.ar      1 <0>         0.0998
     18 C16         4.7147   -0.4388    3.8881 C.ar      1 <0>        -0.1167
     19 C17         3.9357    0.1560    2.9107 C.ar      1 <0>        -0.0938
     20 O1          5.3124   -2.3551    5.1634 O.3       1 <0>        -0.4826
     21 O2          3.3828   -3.8338    3.8646 O.3       1 <0>        -0.4754
     22 H2          1.0047    1.8421    0.0024 H         1 <0>         0.1274
     23 H3         -0.5450    1.8259   -0.8730 H         1 <0>         0.1292
     24 H4         -0.5280    1.8163    0.9069 H         1 <0>         0.1253
     25 H5         -1.8367   -0.2679    0.9645 H         1 <0>         0.1303
     26 H6         -1.9326   -0.0329   -0.7937 H         1 <0>         0.1395
     27 H7         -2.3469   -2.4064    0.1685 H         1 <0>         0.1232
     28 H8         -1.3037   -2.2338   -1.2551 H         1 <0>         0.1049
     29 H9         -1.0333   -4.6427    0.0527 H         1 <0>         0.1363
     30 H10         0.7220   -5.8542    1.2677 H         1 <0>         0.1404
     31 H11         2.4813   -4.6056    2.4582 H         1 <0>         0.1525
     32 H12         2.5874   -0.1542    0.1986 H         1 <0>         0.1009
     33 H13         2.1121    1.1345    1.3252 H         1 <0>         0.1081
     34 H14         5.4652    0.1418    4.4038 H         1 <0>         0.1453
     35 H15         4.0810    1.1979    2.6663 H         1 <0>         0.1401
     36 H16         6.1269   -2.7493    4.8224 H         1 <0>         0.3972
     37 H17         3.9208   -4.4411    3.3384 H         1 <0>         0.3936
     38 H18         0.4752   -0.3291   -0.8278 H         1 <0>         0.4258
@<TRIPOS>BOND
     1    1    2 1
     2    1   22 1
     3    1   23 1
     4    1   24 1
     5    2   11 1
     6    2    3 1
     7    2   38 1
     8    3    4 1
     9    3   25 1
    10    3   26 1
    11    4    5 1
    12    4   27 1
    13    4   28 1
    14    5   10 ar
    15    5    6 ar
    16    6    7 ar
    17    6   29 1
    18    7    8 ar
    19    7   30 1
    20    8    9 ar
    21    8   31 1
    22    9   15 1
    23    9   10 ar
    24   10   11 1
    25   11   12 1
    26   11   13 1
    27   13   14 1
    28   13   32 1
    29   13   33 1
    30   14   19 ar
    31   14   15 ar
    32   15   16 ar
    33   16   17 ar
    34   16   21 1
    35   17   18 ar
    36   17   20 1
    37   18   19 ar
    38   18   34 1
    39   19   35 1
    40   20   36 1
    41   21   37 1
@<TRIPOS>MOLECULE
ZINC00009073
   37    40     0     0     0
SMALL
USER_CHARGES

@<TRIPOS>ATOM
      1 C1         -0.0178    1.4648    0.0101 C.3       1 <0>         0.0190
      2 N1          0.0021   -0.0041    0.0020 N.3       1 <0>        -0.5347
      3 C2         -1.3554   -0.5468   -0.0771 C.3       1 <0>         0.0548
      4 C3         -1.3255   -2.0437   -0.3363 C.3       1 <0>        -0.0776
      5 C4         -0.2136   -2.7298    0.4050 C.ar      1 <0>        -0.0660
      6 C5         -0.1676   -4.1185    0.3764 C.ar      1 <0>        -0.1168
      7 C6          0.8160   -4.8083    1.0555 C.ar      1 <0>        -0.1183
      8 C7          1.7732   -4.1167    1.7707 C.ar      1 <0>        -0.1100
      9 C8          1.7473   -2.7271    1.7884 C.ar      1 <0>        -0.0402
     10 C9          0.7422   -2.0318    1.1101 C.ar      1 <0>        -0.0602
     11 C10         0.7070   -0.5281    1.1816 C.3       1 <0>         0.1292
     12 H1          0.1788   -0.2212    2.0843 H         1 <0>         0.0565
     13 C11         2.1199    0.0508    1.2084 C.3       1 <0>        -0.0723
     14 C12         2.9454   -0.6100    2.2786 C.ar      1 <0>        -0.0656
     15 C13         2.7694   -1.9666    2.5450 C.ar      1 <0>        -0.0523
     16 C14         3.5484   -2.5938    3.5165 C.ar      1 <0>         0.0945
     17 C15         4.4897   -1.8532    4.2246 C.ar      1 <0>         0.0806
     18 C16         4.6455   -0.5013    3.9627 C.ar      1 <0>        -0.1259
     19 C17         3.8757    0.1166    2.9923 C.ar      1 <0>        -0.1047
     20 O1          5.2558   -2.4554    5.1733 O.3       1 <0>        -0.4864
     21 O2          3.3897   -3.9199    3.7698 O.3       1 <0>        -0.4768
     22 H2          1.0047    1.8421    0.0024 H         1 <0>         0.0749
     23 H3         -0.5450    1.8259   -0.8730 H         1 <0>         0.0732
     24 H4         -0.5280    1.8163    0.9069 H         1 <0>         0.0286
     25 H5         -1.8730   -0.3560    0.8630 H         1 <0>         0.0357
     26 H6         -1.8920   -0.0533   -0.8874 H         1 <0>         0.0839
     27 H7         -2.2767   -2.4752   -0.0246 H         1 <0>         0.0807
     28 H8         -1.1956   -2.2145   -1.4050 H         1 <0>         0.0833
     29 H9         -0.9115   -4.6650   -0.1844 H         1 <0>         0.1227
     30 H10         0.8367   -5.8878    1.0279 H         1 <0>         0.1259
     31 H11         2.5378   -4.6525    2.3137 H         1 <0>         0.1407
     32 H12         2.5925   -0.1106    0.2395 H         1 <0>         0.0936
     33 H13         2.0656    1.1213    1.4066 H         1 <0>         0.0843
     34 H14         5.3712    0.0734    4.5190 H         1 <0>         0.1363
     35 H15         4.0042    1.1703    2.7931 H         1 <0>         0.1343
     36 H16         6.0862   -2.8185    4.8360 H         1 <0>         0.3882
     37 H17         3.9530   -4.4932    3.2322 H         1 <0>         0.3868
@<TRIPOS>BOND
     1    1    2 1
     2    1   22 1
     3    1   23 1
     4    1   24 1
     5    2   11 1
     6    2    3 1
     7    3    4 1
     8    3   25 1
     9    3   26 1
    10    4    5 1
    11    4   27 1
    12    4   28 1
    13    5   10 ar
    14    5    6 ar
    15    6    7 ar
    16    6   29 1
    17    7    8 ar
    18    7   30 1
    19    8    9 ar
    20    8   31 1
    21    9   15 1
    22    9   10 ar
    23   10   11 1
    24   11   12 1
    25   11   13 1
    26   13   14 1
    27   13   32 1
    28   13   33 1
    29   14   19 ar
    30   14   15 ar
    31   15   16 ar
    32   16   17 ar
    33   16   21 1
    34   17   18 ar
    35   17   20 1
    36   18   19 ar
    37   18   34 1
    38   19   35 1
    39   20   36 1
    40   21   37 1
@<TRIPOS>MOLECULE
ZINC00007459
   48    49     0     0     0
SMALL
USER_CHARGES

@<TRIPOS>ATOM
      1 C1          1.0648    1.3036   -2.5419 C.3       1 <0>        -0.1559
      2 C2          0.6280   -0.1614   -2.4806 C.3       1 <0>        -0.1510
      3 C3          0.9578   -0.7346   -1.1009 C.3       1 <0>        -0.0176
      4 N1          0.6536   -2.1717   -1.0823 N.4       1 <0>        -0.3787
      5 C4         -0.7694   -2.3750   -1.3849 C.3       1 <0>        -0.0190
      6 C5         -1.6200   -1.7777   -0.2622 C.3       1 <0>        -0.1482
      7 C6         -3.0943   -2.1023   -0.5114 C.3       1 <0>        -0.1559
      8 C7          1.4717   -2.8585   -2.0907 C.3       1 <0>         0.0181
      9 C8          1.3078   -4.3892   -1.9804 C.3       1 <0>        -0.0852
     10 C9          2.6703   -4.9586   -2.3142 C.ar      1 <0>        -0.1032
     11 C10         3.0394   -6.2434   -2.6786 C.ar      1 <0>        -0.1529
     12 C11         4.3656   -6.5399   -2.9406 C.ar      1 <0>         0.1178
     13 C12         5.3305   -5.5421   -2.8374 C.ar      1 <0>         0.1177
     14 C13         4.9574   -4.2600   -2.4735 C.ar      1 <0>        -0.1529
     15 C14         3.6286   -3.9677   -2.2117 C.ar      1 <0>        -0.1033
     16 C15         2.9754   -2.6648   -1.8020 C.3       1 <0>        -0.0847
     17 O1          6.6357   -5.8262   -3.0929 O.3       1 <0>        -0.2983
     18 C16         7.5701   -4.7523   -2.9669 C.3       1 <0>         0.0228
     19 O2          4.7249   -7.8021   -3.2972 O.3       1 <0>        -0.2983
     20 C17         3.6809   -8.7742   -3.3824 C.3       1 <0>         0.0228
     21 H1          0.5369    1.8724   -1.7765 H         1 <0>         0.0672
     22 H2          2.1387    1.3702   -2.3681 H         1 <0>         0.0667
     23 H3          0.8298    1.7120   -3.5249 H         1 <0>         0.0769
     24 H4         -0.4460   -0.2280   -2.6545 H         1 <0>         0.0877
     25 H5          1.1559   -0.7303   -3.2461 H         1 <0>         0.0853
     26 H6          2.0163   -0.5845   -0.8886 H         1 <0>         0.1313
     27 H7          0.3598   -0.2269   -0.3442 H         1 <0>         0.1336
     28 H8         -1.0143   -1.8841   -2.3268 H         1 <0>         0.1334
     29 H9         -0.9744   -3.4424   -1.4675 H         1 <0>         0.1310
     30 H10        -1.3109   -2.2022    0.6930 H         1 <0>         0.0847
     31 H11        -1.4848   -0.6963   -0.2399 H         1 <0>         0.0866
     32 H12        -3.4034   -1.6778   -1.4665 H         1 <0>         0.0669
     33 H13        -3.2294   -3.1837   -0.5336 H         1 <0>         0.0669
     34 H14        -3.7002   -1.6768    0.2885 H         1 <0>         0.0774
     35 H15         1.2216   -2.5102   -3.0929 H         1 <0>         0.1537
     36 H16         1.0200   -4.6666   -0.9664 H         1 <0>         0.0974
     37 H17         0.5648   -4.7425   -2.6954 H         1 <0>         0.1041
     38 H18         2.2894   -7.0164   -2.7582 H         1 <0>         0.1408
     39 H19         5.7048   -3.4846   -2.3930 H         1 <0>         0.1407
     40 H20         3.3713   -1.8403   -2.3951 H         1 <0>         0.1041
     41 H21         3.1357   -2.4788   -0.7400 H         1 <0>         0.0973
     42 H22         7.3027   -3.9549   -3.6603 H         1 <0>         0.0581
     43 H23         7.5480   -4.3693   -1.9467 H         1 <0>         0.0579
     44 H24         8.5722   -5.1137   -3.1977 H         1 <0>         0.1087
     45 H25         3.1948   -8.8713   -2.4116 H         1 <0>         0.0579
     46 H26         2.9489   -8.4571   -4.1252 H         1 <0>         0.0581
     47 H27         4.1027   -9.7357   -3.6753 H         1 <0>         0.1087
     48 H28         0.8603   -2.5474   -0.1689 H         1 <0>         0.4228
@<TRIPOS>BOND
     1    1    2 1
     2    1   21 1
     3    1   22 1
     4    1   23 1
     5    2    3 1
     6    2   24 1
     7    2   25 1
     8    3    4 1
     9    3   26 1
    10    3   27 1
    11    4    5 1
    12    4    8 1
    13    4   48 1
    14    5    6 1
    15    5   28 1
    16    5   29 1
    17    6    7 1
    18    6   30 1
    19    6   31 1
    20    7   32 1
    21    7   33 1
    22    7   34 1
    23    8   16 1
    24    8    9 1
    25    8   35 1
    26    9   10 1
    27    9   36 1
    28    9   37 1
    29   10   15 ar
    30   10   11 ar
    31   11   12 ar
    32   11   38 1
    33   12   13 ar
    34   12   19 1
    35   13   14 ar
    36   13   17 1
    37   14   15 ar
    38   14   39 1
    39   15   16 1
    40   16   40 1
    41   16   41 1
    42   17   18 1
    43   18   42 1
    44   18   43 1
    45   18   44 1
    46   19   20 1
    47   20   45 1
    48   20   46 1
    49   20   47 1
@<TRIPOS>MOLECULE
ZINC04040585
   46    49     0     0     0
SMALL
USER_CHARGES
phenethylBLAH
@<TRIPOS>ATOM
      1 C1         -0.0167    1.3781    0.0096 C.ar      1 <0>        -0.1041
      2 C2          1.1709    2.0855    0.0021 C.ar      1 <0>        -0.1137
      3 C3          2.3773    1.4107   -0.0136 C.ar      1 <0>        -0.1101
      4 C4          2.3960    0.0285   -0.0217 C.ar      1 <0>        -0.1085
      5 C5          1.2084   -0.6789   -0.0136 C.ar      1 <0>        -0.1101
      6 C6          0.0021   -0.0041    0.0020 C.ar      1 <0>        -0.1138
      7 C7          3.7112   -0.7071   -0.0387 C.3       1 <0>        -0.0993
      8 C8          4.1419   -0.9483   -1.4869 C.3       1 <0>        -0.0006
      9 C9          5.2766   -3.0226   -0.9511 C.3       1 <0>        -0.0012
     10 C10         6.5414   -3.8124   -1.2864 C.3       1 <0>        -0.1147
     11 C11         7.7666   -3.0211   -0.9092 C.2       1 <0>        -0.0488
     12 C12         7.7289   -1.7198   -0.6807 C.2       1 <0>        -0.1586
     13 C13         6.4467   -0.9300   -0.7552 C.3       1 <0>         0.0394
     14 C14         8.9945   -0.9739   -0.3247 C.3       1 <0>        -0.0757
     15 C15         9.8859   -1.8217    0.5791 C.3       1 <0>        -0.0837
     16 C16        10.0968   -3.1706   -0.0564 C.ar      1 <0>        -0.0651
     17 C17         9.0552   -3.7449   -0.7848 C.ar      1 <0>        -0.0764
     18 C18         9.2306   -4.9885   -1.3867 C.ar      1 <0>        -0.0981
     19 C19        10.4382   -5.6456   -1.2533 C.ar      1 <0>        -0.1213
     20 C20        11.4664   -5.0724   -0.5269 C.ar      1 <0>        -0.0963
     21 C21        11.2962   -3.8354    0.0720 C.ar      1 <0>        -0.1147
     22 H1         -0.9592    1.9054    0.0170 H         1 <0>         0.1298
     23 H2          1.1563    3.1654    0.0081 H         1 <0>         0.1295
     24 H3          3.3051    1.9634   -0.0195 H         1 <0>         0.1238
     25 H4          1.2231   -1.7587   -0.0199 H         1 <0>         0.1235
     26 H5         -0.9258   -0.5567    0.0079 H         1 <0>         0.1294
     27 H6          4.4678   -0.1105    0.4708 H         1 <0>         0.0947
     28 H7          3.5989   -1.6640    0.4711 H         1 <0>         0.0940
     29 H8          3.3852   -1.5449   -1.9964 H         1 <0>         0.1337
     30 H9          4.2541    0.0085   -1.9968 H         1 <0>         0.1325
     31 H10         5.1526   -2.9682    0.1304 H         1 <0>         0.1337
     32 H11         4.4095   -3.5095   -1.3975 H         1 <0>         0.1378
     33 H12         6.5358   -4.7533   -0.7361 H         1 <0>         0.1242
     34 H13         6.5641   -4.0202   -2.3562 H         1 <0>         0.1059
     35 H14         6.6397    0.0210   -1.2517 H         1 <0>         0.1382
     36 H15         6.0840   -0.7391    0.2548 H         1 <0>         0.1411
     37 H16         9.5371   -0.7312   -1.2383 H         1 <0>         0.0872
     38 H17         8.7334   -0.0507    0.1927 H         1 <0>         0.0854
     39 H18        10.8480   -1.3264    0.7097 H         1 <0>         0.0908
     40 H19         9.4057   -1.9476    1.5495 H         1 <0>         0.0836
     41 H20         8.4277   -5.4362   -1.9535 H         1 <0>         0.1257
     42 H21        10.5803   -6.6101   -1.7181 H         1 <0>         0.1300
     43 H22        12.4073   -5.5929   -0.4259 H         1 <0>         0.1306
     44 H23        12.1025   -3.3926    0.6380 H         1 <0>         0.1310
     45 N1          5.4348   -1.6707   -1.5225 N.4       1 <0>        -0.3935
     46 H24         5.7453   -1.7523   -2.4978 H         1 <0>         0.4326
@<TRIPOS>BOND
     1    1    6 ar
     2    1    2 ar
     3    1   22 1
     4    2    3 ar
     5    2   23 1
     6    3    4 ar
     7    3   24 1
     8    4    5 ar
     9    4    7 1
    10    5    6 ar
    11    5   25 1
    12    6   26 1
    13    7    8 1
    14    7   27 1
    15    7   28 1
    16    8   29 1
    17    8   30 1
    18    8   45 1
    19    9   10 1
    20    9   31 1
    21    9   32 1
    22    9   45 1
    23   10   11 1
    24   10   33 1
    25   10   34 1
    26   11   17 1
    27   11   12 2
    28   12   13 1
    29   12   14 1
    30   13   35 1
    31   13   36 1
    32   13   45 1
    33   14   15 1
    34   14   37 1
    35   14   38 1
    36   15   16 1
    37   15   39 1
    38   15   40 1
    39   16   21 ar
    40   16   17 ar
    41   17   18 ar
    42   18   19 ar
    43   18   41 1
    44   19   20 ar
    45   19   42 1
    46   20   21 ar
    47   20   43 1
    48   21   44 1
    49   45   46 1
@<TRIPOS>MOLECULE
ZINC00056583
   39    41     0     0     0
SMALL
USER_CHARGES
1-[(3,4-dihydroxyphenyl)methyl]-1,2,3,4-tetrahydroisoquinoline-6,7-diol
@<TRIPOS>ATOM
      1 C1         -1.2416    3.1328    0.0308 C.ar      1 <0>        -0.0950
      2 C2         -0.0572    3.8465    0.0234 C.ar      1 <0>        -0.1182
      3 C3          1.1551    3.1765    0.0081 C.ar      1 <0>         0.1003
      4 C4          1.1775    1.7847    0.0004 C.ar      1 <0>         0.0938
      5 C5         -0.0126    1.0758    0.0080 C.ar      1 <0>        -0.1517
      6 C6         -1.2194    1.7509    0.0173 C.ar      1 <0>        -0.1213
      7 C7         -2.5132    0.9781    0.0187 C.3       1 <0>        -0.0967
      8 C8         -2.9445    0.7082    1.4617 C.3       1 <0>         0.0925
      9 H1         -2.9995    1.6525    2.0033 H         1 <0>         0.1498
     10 C9         -4.3023    0.0556    1.4610 C.ar      1 <0>        -0.1207
     11 C10        -5.2663    0.5427    0.5895 C.ar      1 <0>        -0.1074
     12 C11        -6.5285   -0.0218    0.5552 C.ar      1 <0>         0.0986
     13 C12        -6.8320   -1.0850    1.4010 C.ar      1 <0>         0.1136
     14 C13        -5.8686   -1.5667    2.2667 C.ar      1 <0>        -0.1190
     15 C14        -4.6033   -0.9986    2.2960 C.ar      1 <0>        -0.0788
     16 C15        -3.5858   -1.5642    3.2537 C.3       1 <0>        -0.1063
     17 C16        -2.4344   -0.5751    3.4367 C.3       1 <0>        -0.0003
     18 O1         -8.0707   -1.6458    1.3762 O.3       1 <0>        -0.4815
     19 O2         -7.4688    0.4594   -0.3014 O.3       1 <0>        -0.4805
     20 O3          2.3652    1.1224   -0.0141 O.3       1 <0>        -0.4868
     21 O4          2.3208    3.8768    0.0003 O.3       1 <0>        -0.4852
     22 H2         -2.1861    3.6564    0.0427 H         1 <0>         0.1385
     23 H3         -0.0774    4.9263    0.0297 H         1 <0>         0.1442
     24 H4          0.0021   -0.0041    0.0020 H         1 <0>         0.1327
     25 H5         -3.2838    1.5588   -0.4882 H         1 <0>         0.1247
     26 H6         -2.3711    0.0307   -0.5013 H         1 <0>         0.1026
     27 H7         -5.0296    1.3680   -0.0656 H         1 <0>         0.1466
     28 H8         -6.1021   -2.3915    2.9236 H         1 <0>         0.1466
     29 H9         -3.1975   -2.5021    2.8567 H         1 <0>         0.1070
     30 H10        -4.0600   -1.7497    4.2175 H         1 <0>         0.1262
     31 H11        -1.6233   -1.0547    3.9845 H         1 <0>         0.1427
     32 H12        -2.7823    0.2985    3.9879 H         1 <0>         0.1355
     33 H13        -8.1587   -2.3775    0.7501 H         1 <0>         0.4006
     34 H14        -7.4691    0.0289   -1.1673 H         1 <0>         0.3988
     35 H15         2.7004    0.9353   -0.9016 H         1 <0>         0.3989
     36 H16         2.6491    4.0842   -0.8853 H         1 <0>         0.3996
     37 N1         -1.9526   -0.1644    2.1048 N.4       1 <0>        -0.5139
     38 H17        -1.0661    0.3438    2.2051 H         1 <0>         0.4381
     39 H18        -1.8053   -0.9982    1.5240 H         1 <0>         0.4312
@<TRIPOS>BOND
     1    1    6 ar
     2    1    2 ar
     3    1   22 1
     4    2    3 ar
     5    2   23 1
     6    3    4 ar
     7    3   21 1
     8    4    5 ar
     9    4   20 1
    10    5    6 ar
    11    5   24 1
    12    6    7 1
    13    7    8 1
    14    7   25 1
    15    7   26 1
    16    8    9 1
    17    8   10 1
    18    8   37 1
    19   10   15 ar
    20   10   11 ar
    21   11   12 ar
    22   11   27 1
    23   12   13 ar
    24   12   19 1
    25   13   14 ar
    26   13   18 1
    27   14   15 ar
    28   14   28 1
    29   15   16 1
    30   16   17 1
    31   16   29 1
    32   16   30 1
    33   17   31 1
    34   17   32 1
    35   17   37 1
    36   18   33 1
    37   19   34 1
    38   20   35 1
    39   21   36 1
    40   37   38 1
    41   37   39 1
@<TRIPOS>MOLECULE
ZINC00056584
   39    41     0     0     0
SMALL
USER_CHARGES

@<TRIPOS>ATOM
      1 C1         -0.0167    1.3779    0.0096 C.ar      1 <0>        -0.0949
      2 C2          1.1696    2.0886    0.0021 C.ar      1 <0>        -0.1186
      3 C3          2.3802    1.4154   -0.0130 C.ar      1 <0>         0.1002
      4 C4          2.3990    0.0236   -0.0206 C.ar      1 <0>         0.0940
      5 C5          1.2071   -0.6822   -0.0130 C.ar      1 <0>        -0.1515
      6 C6          0.0021   -0.0041    0.0020 C.ar      1 <0>        -0.1210
      7 C7         -1.2936   -0.7736    0.0102 C.3       1 <0>        -0.0983
      8 C8         -1.7458   -1.0263   -1.4294 C.3       1 <0>         0.0902
      9 H1         -1.8058   -0.0756   -1.9593 H         1 <0>         0.1504
     10 C9         -3.1055   -1.6742   -1.4164 C.ar      1 <0>        -0.1223
     11 C10        -4.0486   -1.2136   -0.5088 C.ar      1 <0>        -0.1063
     12 C11        -5.3108   -1.7777   -0.4645 C.ar      1 <0>         0.0982
     13 C12        -5.6353   -2.8134   -1.3361 C.ar      1 <0>         0.1143
     14 C13        -4.6912   -3.2704   -2.2384 C.ar      1 <0>        -0.1186
     15 C14        -3.4272   -2.7016   -2.2779 C.ar      1 <0>        -0.0788
     16 C15        -2.4271   -3.2355   -3.2719 C.3       1 <0>        -0.1067
     17 C16        -1.2761   -2.2418   -3.4332 C.3       1 <0>        -0.0036
     18 N1         -0.7695   -1.8912   -2.0978 N.4       1 <0>        -0.5057
     19 O1         -6.8742   -3.3731   -1.3012 O.3       1 <0>        -0.4819
     20 O2         -6.2313   -1.3220    0.4269 O.3       1 <0>        -0.4810
     21 O3          3.5850   -0.6417   -0.0359 O.3       1 <0>        -0.4868
     22 O4          3.5476    2.1129   -0.0209 O.3       1 <0>        -0.4853
     23 H2         -0.9598    1.9038    0.0259 H         1 <0>         0.1383
     24 H3          1.1522    3.1684    0.0077 H         1 <0>         0.1441
     25 H4          1.2190   -1.7621   -0.0189 H         1 <0>         0.1328
     26 H5         -1.1467   -1.7271    0.5175 H         1 <0>         0.1034
     27 H6         -2.0555   -0.1967    0.5344 H         1 <0>         0.1254
     28 H7         -3.7959   -0.4097    0.1667 H         1 <0>         0.1469
     29 H8         -4.9402   -4.0739   -2.9158 H         1 <0>         0.1470
     30 H9         -2.0359   -4.1886   -2.9160 H         1 <0>         0.1079
     31 H10        -2.9164   -3.3827   -4.2348 H         1 <0>         0.1267
     32 H11        -0.4783   -2.6979   -4.0194 H         1 <0>         0.1434
     33 H12        -1.6356   -1.3439   -3.9357 H         1 <0>         0.1363
     34 H13         0.1086   -1.4025   -2.1881 H         1 <0>         0.4340
     35 H14        -7.5153   -2.9459   -1.8857 H         1 <0>         0.4013
     36 H15        -6.7815   -0.6015    0.0904 H         1 <0>         0.3994
     37 H16         3.9367   -0.8389    0.8430 H         1 <0>         0.3991
     38 H17         3.8938    2.3101    0.8602 H         1 <0>         0.3997
     39 H18        -0.6357   -2.7315   -1.5555 H         1 <0>         0.4283
@<TRIPOS>BOND
     1    1    6 ar
     2    1    2 ar
     3    1   23 1
     4    2    3 ar
     5    2   24 1
     6    3    4 ar
     7    3   22 1
     8    4    5 ar
     9    4   21 1
    10    5    6 ar
    11    5   25 1
    12    6    7 1
    13    7    8 1
    14    7   26 1
    15    7   27 1
    16    8    9 1
    17    8   18 1
    18    8   10 1
    19   10   15 ar
    20   10   11 ar
    21   11   12 ar
    22   11   28 1
    23   12   13 ar
    24   12   20 1
    25   13   14 ar
    26   13   19 1
    27   14   15 ar
    28   14   29 1
    29   15   16 1
    30   16   17 1
    31   16   30 1
    32   16   31 1
    33   17   18 1
    34   17   32 1
    35   17   33 1
    36   18   34 1
    37   18   39 1
    38   19   35 1
    39   20   36 1
    40   21   37 1
    41   22   38 1
@<TRIPOS>MOLECULE
ZINC00056584
   38    40     0     0     0
SMALL
USER_CHARGES

@<TRIPOS>ATOM
      1 C1         -0.0167    1.3779    0.0096 C.ar      1 <0>        -0.1099
      2 C2          1.1696    2.0886    0.0021 C.ar      1 <0>        -0.1284
      3 C3          2.3802    1.4154   -0.0130 C.ar      1 <0>         0.0769
      4 C4          2.3990    0.0236   -0.0206 C.ar      1 <0>         0.0828
      5 C5          1.2071   -0.6822   -0.0130 C.ar      1 <0>        -0.1216
      6 C6          0.0021   -0.0041    0.0020 C.ar      1 <0>        -0.0784
      7 C7         -1.2936   -0.7736    0.0102 C.3       1 <0>        -0.0737
      8 C8         -1.7458   -1.0263   -1.4294 C.3       1 <0>         0.1353
      9 H1         -1.8059   -0.0758   -1.9596 H         1 <0>         0.0554
     10 C9         -3.1052   -1.6755   -1.4169 C.ar      1 <0>        -0.0674
     11 C10        -4.0541   -1.1991   -0.5232 C.ar      1 <0>        -0.1266
     12 C11        -5.3174   -1.7603   -0.4780 C.ar      1 <0>         0.0781
     13 C12        -5.6373   -2.8094   -1.3352 C.ar      1 <0>         0.0838
     14 C13        -4.6876   -3.2824   -2.2229 C.ar      1 <0>        -0.1322
     15 C14        -3.4212   -2.7172   -2.2627 C.ar      1 <0>        -0.0556
     16 C15        -2.4178   -3.2751   -3.2395 C.3       1 <0>        -0.0779
     17 C16        -1.2657   -2.2875   -3.4261 C.3       1 <0>         0.0533
     18 N1         -0.7700   -1.8926   -2.0982 N.3       1 <0>        -0.6791
     19 O1         -6.8774   -3.3663   -1.3005 O.3       1 <0>        -0.4877
     20 O2         -6.2428   -1.2896    0.4003 O.3       1 <0>        -0.4869
     21 O3          3.5850   -0.6417   -0.0359 O.3       1 <0>        -0.4877
     22 O4          3.5476    2.1129   -0.0209 O.3       1 <0>        -0.4888
     23 H2         -0.9598    1.9038    0.0259 H         1 <0>         0.1292
     24 H3          1.1522    3.1684    0.0077 H         1 <0>         0.1334
     25 H4          1.2190   -1.7621   -0.0189 H         1 <0>         0.1398
     26 H5         -1.1467   -1.7271    0.5175 H         1 <0>         0.0888
     27 H6         -2.0555   -0.1967    0.5344 H         1 <0>         0.0842
     28 H7         -3.8046   -0.3847    0.1409 H         1 <0>         0.1356
     29 H8         -4.9335   -4.0960   -2.8891 H         1 <0>         0.1339
     30 H9         -2.0274   -4.2186   -2.8581 H         1 <0>         0.0882
     31 H10        -2.9048   -3.4483   -4.1992 H         1 <0>         0.0801
     32 H11        -0.4633   -2.7633   -3.9900 H         1 <0>         0.0839
     33 H12        -1.6211   -1.4071   -3.9614 H         1 <0>         0.0381
     34 H13        -7.5134   -2.9476   -1.8965 H         1 <0>         0.3877
     35 H14        -6.7898   -0.5736    0.0493 H         1 <0>         0.3869
     36 H15         3.9367   -0.8389    0.8430 H         1 <0>         0.3885
     37 H16         3.8938    2.3101    0.8602 H         1 <0>         0.3879
     38 H17         0.1283   -1.4385   -2.1684 H         1 <0>         0.3504
@<TRIPOS>BOND
     1    1    6 ar
     2    1    2 ar
     3    1   23 1
     4    2    3 ar
     5    2   24 1
     6    3    4 ar
     7    3   22 1
     8    4    5 ar
     9    4   21 1
    10    5    6 ar
    11    5   25 1
    12    6    7 1
    13    7    8 1
    14    7   26 1
    15    7   27 1
    16    8    9 1
    17    8   18 1
    18    8   10 1
    19   10   15 ar
    20   10   11 ar
    21   11   12 ar
    22   11   28 1
    23   12   13 ar
    24   12   20 1
    25   13   14 ar
    26   13   19 1
    27   14   15 ar
    28   14   29 1
    29   15   16 1
    30   16   17 1
    31   16   30 1
    32   16   31 1
    33   17   18 1
    34   17   32 1
    35   17   33 1
    36   18   38 1
    37   19   34 1
    38   20   35 1
    39   21   36 1
    40   22   37 1
@<TRIPOS>MOLECULE
ZINC01561184
   39    42     0     0     0
SMALL
USER_CHARGES

@<TRIPOS>ATOM
      1 C1         -0.0178    1.4648    0.0101 C.3       1 <0>        -0.0532
      2 N1          0.0021   -0.0041    0.0020 N.4       1 <0>        -0.3820
      3 C2         -1.3708   -0.5099    0.0087 C.3       1 <0>        -0.0042
      4 C3         -1.3935   -2.0162   -0.1933 C.3       1 <0>        -0.1059
      5 C4         -0.2772   -2.7023    0.5426 C.ar      1 <0>        -0.0638
      6 C5         -0.2620   -4.0904    0.5658 C.ar      1 <0>        -0.1377
      7 C6          0.7274   -4.7767    1.2506 C.ar      1 <0>         0.1452
      8 C7          1.7173   -4.0729    1.9172 C.ar      1 <0>        -0.1298
      9 C8          1.7185   -2.6844    1.8776 C.ar      1 <0>         0.0131
     10 C9          0.7125   -1.9966    1.1928 C.ar      1 <0>        -0.1372
     11 C10         0.7132   -0.4905    1.1932 C.3       1 <0>         0.0911
     12 H1          0.2081   -0.1287    2.0889 H         1 <0>         0.1473
     13 C11         2.1396    0.0551    1.1685 C.3       1 <0>        -0.0934
     14 C12         2.9707   -0.5756    2.2523 C.ar      1 <0>        -0.0774
     15 C13         2.7710   -1.9147    2.5824 C.ar      1 <0>        -0.0682
     16 C14         3.5535   -2.5150    3.5677 C.ar      1 <0>         0.1062
     17 C15         4.5228   -1.7645    4.2256 C.ar      1 <0>         0.0996
     18 C16         4.7033   -0.4298    3.8999 C.ar      1 <0>        -0.1146
     19 C17         3.9295    0.1611    2.9162 C.ar      1 <0>        -0.0941
     20 O1          5.2923   -2.3402    5.1879 O.3       1 <0>        -0.4821
     21 O2          3.3704   -3.8244    3.8838 O.3       1 <0>        -0.4743
     22 O3          0.7268   -6.1356    1.2689 O.3       1 <0>        -0.4901
     23 H2          1.0047    1.8421    0.0024 H         1 <0>         0.1276
     24 H3         -0.5450    1.8259   -0.8730 H         1 <0>         0.1294
     25 H4         -0.5280    1.8163    0.9069 H         1 <0>         0.1256
     26 H5         -1.8368   -0.2692    0.9642 H         1 <0>         0.1312
     27 H6         -1.9327   -0.0321   -0.7938 H         1 <0>         0.1406
     28 H7         -2.3461   -2.4071    0.1643 H         1 <0>         0.1251
     29 H8         -1.3012   -2.2322   -1.2577 H         1 <0>         0.1067
     30 H9         -1.0306   -4.6414    0.0442 H         1 <0>         0.1426
     31 H10         2.4838   -4.6010    2.4650 H         1 <0>         0.1586
     32 H11         2.5897   -0.1611    0.1996 H         1 <0>         0.1017
     33 H12         2.1136    1.1344    1.3185 H         1 <0>         0.1090
     34 H13         5.4517    0.1527    4.4167 H         1 <0>         0.1459
     35 H14         4.0767    1.2018    2.6677 H         1 <0>         0.1409
     36 H15         6.1085   -2.7367    4.8538 H         1 <0>         0.3974
     37 H16         3.9112   -4.4340    3.3631 H         1 <0>         0.3937
     38 H17         1.2246   -6.5390    0.5447 H         1 <0>         0.4034
     39 H18         0.4753   -0.3290   -0.8278 H         1 <0>         0.4258
@<TRIPOS>BOND
     1    1    2 1
     2    1   23 1
     3    1   24 1
     4    1   25 1
     5    2   11 1
     6    2    3 1
     7    2   39 1
     8    3    4 1
     9    3   26 1
    10    3   27 1
    11    4    5 1
    12    4   28 1
    13    4   29 1
    14    5   10 ar
    15    5    6 ar
    16    6    7 ar
    17    6   30 1
    18    7    8 ar
    19    7   22 1
    20    8    9 ar
    21    8   31 1
    22    9   15 1
    23    9   10 ar
    24   10   11 1
    25   11   12 1
    26   11   13 1
    27   13   14 1
    28   13   32 1
    29   13   33 1
    30   14   19 ar
    31   14   15 ar
    32   15   16 ar
    33   16   17 ar
    34   16   21 1
    35   17   18 ar
    36   17   20 1
    37   18   19 ar
    38   18   34 1
    39   19   35 1
    40   20   36 1
    41   21   37 1
    42   22   38 1
@<TRIPOS>MOLECULE
ZINC01561184
   38    41     0     0     0
SMALL
USER_CHARGES

@<TRIPOS>ATOM
      1 C1         -0.0178    1.4648    0.0101 C.3       1 <0>         0.0189
      2 N1          0.0021   -0.0041    0.0020 N.3       1 <0>        -0.5348
      3 C2         -1.3553   -0.5467   -0.0778 C.3       1 <0>         0.0547
      4 C3         -1.3240   -2.0433   -0.3388 C.3       1 <0>        -0.0781
      5 C4         -0.2118   -2.7303    0.4016 C.ar      1 <0>        -0.0479
      6 C5         -0.1664   -4.1182    0.3703 C.ar      1 <0>        -0.1439
      7 C6          0.8210   -4.8108    1.0512 C.ar      1 <0>         0.1077
      8 C7          1.7794   -4.1145    1.7693 C.ar      1 <0>        -0.1363
      9 C8          1.7492   -2.7258    1.7874 C.ar      1 <0>        -0.0221
     10 C9          0.7432   -2.0320    1.1086 C.ar      1 <0>        -0.0689
     11 C10         0.7069   -0.5280    1.1814 C.3       1 <0>         0.1302
     12 H1          0.1781   -0.2223    2.0842 H         1 <0>         0.0580
     13 C11         2.1193    0.0523    1.2086 C.3       1 <0>        -0.0727
     14 C12         2.9447   -0.6077    2.2796 C.ar      1 <0>        -0.0631
     15 C13         2.7702   -1.9644    2.5457 C.ar      1 <0>        -0.0553
     16 C14         3.5495   -2.5910    3.5173 C.ar      1 <0>         0.0966
     17 C15         4.4883   -1.8490    4.2274 C.ar      1 <0>         0.0807
     18 C16         4.6425   -0.4968    3.9660 C.ar      1 <0>        -0.1236
     19 C17         3.8733    0.1200    2.9943 C.ar      1 <0>        -0.1049
     20 O1          5.2535   -2.4501    5.1776 O.3       1 <0>        -0.4859
     21 O2          3.3929   -3.9175    3.7695 O.3       1 <0>        -0.4757
     22 O3          0.8498   -6.1690    1.0146 O.3       1 <0>        -0.4963
     23 H2          1.0047    1.8421    0.0024 H         1 <0>         0.0752
     24 H3         -0.5450    1.8259   -0.8730 H         1 <0>         0.0735
     25 H4         -0.5280    1.8163    0.9069 H         1 <0>         0.0291
     26 H5         -1.8730   -0.3575    0.8626 H         1 <0>         0.0369
     27 H6         -1.8920   -0.0526   -0.8876 H         1 <0>         0.0852
     28 H7         -2.2750   -2.4759   -0.0280 H         1 <0>         0.0827
     29 H8         -1.1939   -2.2126   -1.4077 H         1 <0>         0.0853
     30 H9         -0.9096   -4.6638   -0.1921 H         1 <0>         0.1295
     31 H10         2.5453   -4.6482    2.3123 H         1 <0>         0.1478
     32 H11         2.5925   -0.1091    0.2400 H         1 <0>         0.0943
     33 H12         2.0639    1.1228    1.4065 H         1 <0>         0.0853
     34 H13         5.3670    0.0787    4.5230 H         1 <0>         0.1370
     35 H14         4.0008    1.1738    2.7951 H         1 <0>         0.1351
     36 H15         6.0851   -2.8119    4.8419 H         1 <0>         0.3884
     37 H16         3.9577   -4.4894    3.2319 H         1 <0>         0.3870
     38 H17         1.3736   -6.5319    0.2873 H         1 <0>         0.3906
@<TRIPOS>BOND
     1    1    2 1
     2    1   23 1
     3    1   24 1
     4    1   25 1
     5    2   11 1
     6    2    3 1
     7    3    4 1
     8    3   26 1
     9    3   27 1
    10    4    5 1
    11    4   28 1
    12    4   29 1
    13    5   10 ar
    14    5    6 ar
    15    6    7 ar
    16    6   30 1
    17    7    8 ar
    18    7   22 1
    19    8    9 ar
    20    8   31 1
    21    9   15 1
    22    9   10 ar
    23   10   11 1
    24   11   12 1
    25   11   13 1
    26   13   14 1
    27   13   32 1
    28   13   33 1
    29   14   19 ar
    30   14   15 ar
    31   15   16 ar
    32   16   17 ar
    33   16   21 1
    34   17   18 ar
    35   17   20 1
    36   18   19 ar
    37   18   34 1
    38   19   35 1
    39   20   36 1
    40   21   37 1
    41   22   38 1
@<TRIPOS>MOLECULE
ZINC19632603
   55    59     0     0     0
SMALL
USER_CHARGES

@<TRIPOS>ATOM
      1 C1         -0.0167    1.3768    0.0096 C.ar      1 <0>        -0.1006
      2 C2          1.1692    2.0911    0.0021 C.ar      1 <0>        -0.1048
      3 C3          2.3811    1.4289   -0.0130 C.ar      1 <0>        -0.1061
      4 C4          2.4100    0.0426   -0.0206 C.ar      1 <0>         0.0791
      5 C5          1.2139   -0.6778   -0.0131 C.ar      1 <0>         0.0918
      6 C6          0.0021   -0.0041    0.0020 C.ar      1 <0>        -0.1004
      7 N1          1.5570   -2.0277   -0.0228 N.am      1 <0>        -0.6409
      8 H1          0.9345   -2.7717   -0.0209 H         1 <0>         0.4394
      9 C7          2.8999   -2.1240   -0.0357 C.2       1 <0>         0.6833
     10 O1          3.5277   -3.1663   -0.0469 O.2       1 <0>        -0.5522
     11 N2          3.4427   -0.8919   -0.0347 N.am      1 <0>        -0.5413
     12 C8          4.8754   -0.5862   -0.0465 C.3       1 <0>         0.1396
     13 C9          5.3875   -0.4868    1.3919 C.3       1 <0>        -0.1738
     14 C10         6.8838   -0.1676    1.3796 C.3       1 <0>        -0.0048
     15 N3          7.3754   -0.0722    2.7606 N.4       1 <0>        -0.3856
     16 C11         7.2545   -1.3814    3.4130 C.3       1 <0>        -0.0050
     17 C12         7.6893   -1.2687    4.8758 C.3       1 <0>        -0.1661
     18 C13         9.1460   -0.7998    4.9349 C.3       1 <0>         0.1596
     19 C14         9.2745    0.5304    4.1871 C.3       1 <0>        -0.1674
     20 C15         8.7809    0.3510    2.7499 C.3       1 <0>         0.0017
     21 N4          9.5454   -0.6167    6.3325 N.am      1 <0>        -0.5364
     22 C16        10.5850   -1.2834    6.9776 C.ar      1 <0>         0.0842
     23 C17        11.4982   -2.2432    6.5685 C.ar      1 <0>        -0.0900
     24 C18        12.4350   -2.7258    7.4611 C.ar      1 <0>        -0.0930
     25 C19        12.4657   -2.2551    8.7638 C.ar      1 <0>        -0.0200
     26 C20        11.5591   -1.2988    9.1803 C.ar      1 <0>        -0.0931
     27 C21        10.6158   -0.8083    8.2902 C.ar      1 <0>         0.1062
     28 N5          9.5943    0.1320    8.4021 N.am      1 <0>        -0.6359
     29 H2          9.3704    0.6344    9.2010 H         1 <0>         0.4422
     30 C22         8.9742    0.2287    7.2110 C.2       1 <0>         0.6882
     31 O2          8.0375    0.9660    6.9664 O.2       1 <0>        -0.5530
     32 Cl1        13.6474   -2.8693    9.8774 Cl        1 <0>        -0.0412
     33 H3         -0.9604    1.9017    0.0259 H         1 <0>         0.1392
     34 H4          1.1466    3.1709    0.0077 H         1 <0>         0.1374
     35 H5          3.3041    1.9895   -0.0191 H         1 <0>         0.1279
     36 H6         -0.9251   -0.5579    0.0079 H         1 <0>         0.1363
     37 H7          5.4116   -1.3783   -0.5691 H         1 <0>         0.1050
     38 H8          5.0403    0.3625   -0.5572 H         1 <0>         0.1013
     39 H9          4.8513    0.3053    1.9145 H         1 <0>         0.0950
     40 H10         5.2225   -1.4355    1.9027 H         1 <0>         0.0958
     41 H11         7.4200   -0.9597    0.8570 H         1 <0>         0.1366
     42 H12         7.0487    0.7811    0.8688 H         1 <0>         0.1377
     43 H13         6.2179   -1.7153    3.3673 H         1 <0>         0.1382
     44 H14         7.8905   -2.1027    2.8999 H         1 <0>         0.1354
     45 H15         7.0537   -0.5478    5.3900 H         1 <0>         0.1075
     46 H16         7.6005   -2.2423    5.3580 H         1 <0>         0.1188
     47 H17         9.7882   -1.5452    4.4658 H         1 <0>         0.1171
     48 H18         8.6718    1.2887    4.6870 H         1 <0>         0.1082
     49 H19        10.3187    0.8429    4.1770 H         1 <0>         0.1195
     50 H20         9.3844   -0.4072    2.2509 H         1 <0>         0.1343
     51 H21         8.8712    1.2962    2.2145 H         1 <0>         0.1396
     52 H22        11.4767   -2.6129    5.5540 H         1 <0>         0.1400
     53 H23        13.1463   -3.4734    7.1425 H         1 <0>         0.1503
     54 H24        11.5856   -0.9339   10.1964 H         1 <0>         0.1482
     55 H25         6.8250    0.6055    3.2664 H         1 <0>         0.4269
@<TRIPOS>BOND
     1    1    6 ar
     2    1    2 ar
     3    1   33 1
     4    2    3 ar
     5    2   34 1
     6    3    4 ar
     7    3   35 1
     8    4   11 1
     9    4    5 ar
    10    5    6 ar
    11    5    7 1
    12    6   36 1
    13    7    8 1
    14    7    9 am
    15    9   10 2
    16    9   11 am
    17   11   12 1
    18   12   13 1
    19   12   37 1
    20   12   38 1
    21   13   14 1
    22   13   39 1
    23   13   40 1
    24   14   15 1
    25   14   41 1
    26   14   42 1
    27   15   20 1
    28   15   16 1
    29   15   55 1
    30   16   17 1
    31   16   43 1
    32   16   44 1
    33   17   18 1
    34   17   45 1
    35   17   46 1
    36   18   19 1
    37   18   21 1
    38   18   47 1
    39   19   20 1
    40   19   48 1
    41   19   49 1
    42   20   50 1
    43   20   51 1
    44   21   30 am
    45   21   22 1
    46   22   27 ar
    47   22   23 ar
    48   23   24 ar
    49   23   52 1
    50   24   25 ar
    51   24   53 1
    52   25   26 ar
    53   25   32 1
    54   26   27 ar
    55   26   54 1
    56   27   28 1
    57   28   29 1
    58   28   30 am
    59   30   31 2
@<TRIPOS>MOLECULE
ZINC28635561
   58    61     0     0     0
SMALL
USER_CHARGES
methyl (1S,2R)-2-[(4-hydroxy-4-phenyl-1-piperidyl)methyl]-1-(p-tolyl)cyclopropanecarboxylate
@<TRIPOS>ATOM
      1 C1         -8.8883   -3.1101   -7.6859 C.3       1 <0>        -0.1264
      2 C2         -8.7714   -2.4172   -6.3527 C.ar      1 <0>        -0.0684
      3 C3         -9.8392   -2.4227   -5.4749 C.ar      1 <0>        -0.1148
      4 C4         -9.7320   -1.7871   -4.2520 C.ar      1 <0>        -0.0961
      5 C5         -8.5566   -1.1468   -3.9066 C.ar      1 <0>        -0.0812
      6 C6         -7.4904   -1.1371   -4.7864 C.ar      1 <0>        -0.1058
      7 C7         -7.5962   -1.7764   -6.0075 C.ar      1 <0>        -0.1199
      8 C8         -8.4397   -0.4539   -2.5734 C.3       1 <0>        -0.0785
      9 C9         -8.3512    1.0743   -2.5766 C.3       1 <0>        -0.1212
     10 C10        -7.1133    0.2366   -2.2500 C.3       1 <0>        -0.1254
     11 H1         -6.0882    0.1764   -2.6445 H         1 <0>         0.1441
     12 C11        -6.6404    0.2122   -0.7951 C.3       1 <0>        -0.0033
     13 N1         -5.3045    0.8164   -0.7042 N.4       1 <0>        -0.3993
     14 C12        -4.9165    1.0272    0.6963 C.3       1 <0>         0.0036
     15 C13        -3.5894    1.7875    0.7504 C.3       1 <0>        -0.1333
     16 C14        -2.5137    0.9795    0.0193 C.3       1 <0>         0.1859
     17 C15        -2.9643    0.7323   -1.4231 C.3       1 <0>        -0.1685
     18 C16        -4.3095    0.0026   -1.4142 C.3       1 <0>        -0.0082
     19 C17        -1.2190    1.7506    0.0173 C.ar      1 <0>        -0.1263
     20 C18        -0.0126    1.0758    0.0080 C.ar      1 <0>        -0.1062
     21 C19         1.1750    1.7832    0.0004 C.ar      1 <0>        -0.1112
     22 C20         1.1563    3.1654    0.0081 C.ar      1 <0>        -0.1076
     23 C21        -0.0501    3.8402    0.0228 C.ar      1 <0>        -0.1129
     24 C22        -1.2377    3.1328    0.0294 C.ar      1 <0>        -0.1162
     25 O1         -2.3232   -0.2719    0.6825 O.3       1 <0>        -0.5789
     26 C23        -9.1805   -1.1060   -1.4346 C.2       1 <0>         0.5044
     27 O2         -8.7225   -1.0707   -0.3170 O.2       1 <0>        -0.5124
     28 O3        -10.3492   -1.7260   -1.6616 O.3       1 <0>        -0.3382
     29 C24       -11.0072   -2.3319   -0.5178 C.3       1 <0>         0.0257
     30 H2         -9.8884   -3.5585   -7.7796 H         1 <0>         0.0705
     31 H3         -8.1247   -3.8986   -7.7575 H         1 <0>         0.0748
     32 H4         -8.7371   -2.3789   -8.4936 H         1 <0>         0.0756
     33 H5        -10.7574   -2.9233   -5.7446 H         1 <0>         0.1294
     34 H6        -10.5664   -1.7912   -3.5664 H         1 <0>         0.1443
     35 H7         -6.5737   -0.6331   -4.5183 H         1 <0>         0.1172
     36 H8         -6.7618   -1.7724   -6.6932 H         1 <0>         0.1273
     37 H9         -8.6120    1.4546   -3.5753 H         1 <0>         0.1346
     38 H10        -9.0518    1.4837   -1.8339 H         1 <0>         0.1253
     39 H11        -7.3441    0.7828   -0.1712 H         1 <0>         0.1371
     40 H12        -6.5971   -0.8284   -0.4410 H         1 <0>         0.1441
     41 H13        -5.6948    1.6121    1.2083 H         1 <0>         0.1326
     42 H14        -4.8015    0.0537    1.1954 H         1 <0>         0.1354
     43 H15        -3.7081    2.7672    0.2646 H         1 <0>         0.1042
     44 H16        -3.2921    1.9321    1.7996 H         1 <0>         0.1218
     45 H17        -3.0709    1.6952   -1.9440 H         1 <0>         0.0990
     46 H18        -2.2144    0.1163   -1.9411 H         1 <0>         0.1155
     47 H19        -4.1973   -0.9660   -0.9051 H         1 <0>         0.1353
     48 H20        -4.6428   -0.1636   -2.4492 H         1 <0>         0.1312
     49 H21         0.0021   -0.0041    0.0020 H         1 <0>         0.1215
     50 H22         2.1175    1.2560   -0.0111 H         1 <0>         0.1290
     51 H23         2.0841    3.7181    0.0029 H         1 <0>         0.1290
     52 H24        -0.0647    4.9201    0.0295 H         1 <0>         0.1284
     53 H25        -2.1802    3.6600    0.0413 H         1 <0>         0.1228
     54 H26        -1.5848   -0.9911    0.2984 H         1 <0>         0.4205
     55 H27       -11.9473   -2.8020   -0.8422 H         1 <0>         0.1132
     56 H28       -11.2243   -1.5577    0.2329 H         1 <0>         0.0704
     57 H29       -10.3485   -3.0950   -0.0776 H         1 <0>         0.0701
     58 H30        -5.3429    1.8010   -1.1932 H         1 <0>         0.4361
@<TRIPOS>BOND
     1    1    2 1
     2    1   30 1
     3    1   31 1
     4    1   32 1
     5    2    7 ar
     6    2    3 ar
     7    3    4 ar
     8    3   33 1
     9    4    5 ar
    10    4   34 1
    11    5    6 ar
    12    5    8 1
    13    6    7 ar
    14    6   35 1
    15    7   36 1
    16    8   10 1
    17    8    9 1
    18    8   26 1
    19    9   10 1
    20    9   37 1
    21    9   38 1
    22   10   11 1
    23   10   12 1
    24   12   13 1
    25   12   39 1
    26   12   40 1
    27   13   18 1
    28   13   14 1
    29   13   58 1
    30   14   15 1
    31   14   41 1
    32   14   42 1
    33   15   16 1
    34   15   43 1
    35   15   44 1
    36   16   17 1
    37   16   19 1
    38   16   25 1
    39   17   18 1
    40   17   45 1
    41   17   46 1
    42   18   47 1
    43   18   48 1
    44   19   24 ar
    45   19   20 ar
    46   20   21 ar
    47   20   49 1
    48   21   22 ar
    49   21   50 1
    50   22   23 ar
    51   22   51 1
    52   23   24 ar
    53   23   52 1
    54   24   53 1
    55   25   54 1
    56   26   27 2
    57   26   28 1
    58   28   29 1
    59   29   55 1
    60   29   56 1
    61   29   57 1
@<TRIPOS>MOLECULE
ZINC02021799
   46    47     0     0     0
SMALL
USER_CHARGES

@<TRIPOS>ATOM
      1 C1         -0.0187    1.5258    0.0104 C.3       1 <0>        -0.1893
      2 C2          0.0021   -0.0041    0.0020 C.3       1 <0>        -0.0139
      3 N1          0.6897   -0.4778   -1.2066 N.4       1 <0>        -0.3974
      4 C3         -0.0977   -0.1111   -2.4030 C.3       1 <0>        -0.0113
      5 C4          0.0876   -1.3002   -3.3783 C.3       1 <0>        -0.1438
      6 C5          0.0948   -2.5070   -2.4033 C.3       1 <0>        -0.1317
      7 C6          0.8183   -1.9459   -1.1611 C.3       1 <0>         0.0120
      8 H1          0.3514   -2.3311   -0.2546 H         1 <0>         0.1485
      9 C7          2.2961   -2.3403   -1.1970 C.3       1 <0>         0.0981
     10 N2          3.0089   -1.6628   -0.1111 N.am      1 <0>        -0.7506
     11 C8          4.3318   -1.8612    0.0535 C.2       1 <0>         0.5956
     12 O1          4.9339   -2.6026   -0.6995 O.2       1 <0>        -0.4886
     13 C9          5.0481   -1.1803    1.1449 C.ar      1 <0>        -0.1951
     14 C10         5.1651   -1.7913    2.4021 C.ar      1 <0>         0.1950
     15 C11         5.8414   -1.1425    3.4220 C.ar      1 <0>        -0.2063
     16 C12         6.4005    0.1034    3.2045 C.ar      1 <0>        -0.0098
     17 C13         6.2909    0.7153    1.9693 C.ar      1 <0>        -0.1548
     18 C14         5.6232    0.0809    0.9331 C.ar      1 <0>         0.1945
     19 O2          5.5216    0.6806   -0.2797 O.3       1 <0>        -0.3149
     20 C15         4.3878    1.5236   -0.4937 C.3       1 <0>         0.0360
     21 Br1         7.0607    2.4199    1.6905 Br        1 <0>        -0.0145
     22 O3          4.6172   -3.0135    2.6186 O.3       1 <0>        -0.3071
     23 C16         4.7762   -3.5738    3.9235 C.3       1 <0>         0.0205
     24 H2          1.0039    1.9031    0.0027 H         1 <0>         0.0783
     25 H3         -0.5459    1.8868   -0.8726 H         1 <0>         0.0837
     26 H4         -0.5289    1.8773    0.9072 H         1 <0>         0.1093
     27 H5          0.5293   -0.3651    0.8851 H         1 <0>         0.1245
     28 H6         -1.0205   -0.3814    0.0098 H         1 <0>         0.1359
     29 H7         -1.1498    0.0064   -2.1435 H         1 <0>         0.1364
     30 H8          0.2896    0.8066   -2.8456 H         1 <0>         0.1355
     31 H9         -0.7473   -1.3669   -4.0759 H         1 <0>         0.1218
     32 H10         1.0351   -1.2237   -3.9118 H         1 <0>         0.1008
     33 H11        -0.9229   -2.8070   -2.1539 H         1 <0>         0.1079
     34 H12         0.6508   -3.3426   -2.8285 H         1 <0>         0.1192
     35 H13         2.3873   -3.4195   -1.0737 H         1 <0>         0.1181
     36 H14         2.7275   -2.0462   -2.1538 H         1 <0>         0.0987
     37 H15         2.5287   -1.0715    0.4895 H         1 <0>         0.3931
     38 H16         5.9322   -1.6112    4.3907 H         1 <0>         0.1530
     39 H17         6.9262    0.6024    4.0052 H         1 <0>         0.1522
     40 H18         3.4743    0.9403   -0.3780 H         1 <0>         0.0251
     41 H19         4.3956    2.3347    0.2344 H         1 <0>         0.0638
     42 H20         4.4287    1.9388   -1.5007 H         1 <0>         0.1080
     43 H21         5.8378   -3.6855    4.1441 H         1 <0>         0.0679
     44 H22         4.3194   -2.9134    4.6606 H         1 <0>         0.0653
     45 H23         4.2926   -4.5500    3.9611 H         1 <0>         0.1113
     46 H24         1.6056   -0.0583   -1.2636 H         1 <0>         0.4191
@<TRIPOS>BOND
     1    1    2 1
     2    1   24 1
     3    1   25 1
     4    1   26 1
     5    2    3 1
     6    2   27 1
     7    2   28 1
     8    3    7 1
     9    3    4 1
    10    3   46 1
    11    4    5 1
    12    4   29 1
    13    4   30 1
    14    5    6 1
    15    5   31 1
    16    5   32 1
    17    6    7 1
    18    6   33 1
    19    6   34 1
    20    7    8 1
    21    7    9 1
    22    9   10 1
    23    9   35 1
    24    9   36 1
    25   10   11 am
    26   10   37 1
    27   11   12 2
    28   11   13 1
    29   13   18 ar
    30   13   14 ar
    31   14   15 ar
    32   14   22 1
    33   15   16 ar
    34   15   38 1
    35   16   17 ar
    36   16   39 1
    37   17   18 ar
    38   17   21 1
    39   18   19 1
    40   19   20 1
    41   20   40 1
    42   20   41 1
    43   20   42 1
    44   22   23 1
    45   23   43 1
    46   23   44 1
    47   23   45 1
@<TRIPOS>MOLECULE
ZINC03917109
   63    66     0     0     0
SMALL
USER_CHARGES

@<TRIPOS>ATOM
      1 C1         -0.0173    1.4248    0.0099 C.3       1 <0>         0.0228
      2 O1          0.0021   -0.0041    0.0020 O.3       1 <0>        -0.3111
      3 C2          0.6063   -0.6076   -1.0566 C.ar      1 <0>         0.1291
      4 C3          1.1727    0.1584   -2.0619 C.ar      1 <0>        -0.2022
      5 C4          1.7862   -0.4565   -3.1379 C.ar      1 <0>        -0.0669
      6 C5          1.8369   -1.8361   -3.2138 C.ar      1 <0>        -0.1491
      7 C6          1.2745   -2.6077   -2.2144 C.ar      1 <0>        -0.0822
      8 C7          0.6620   -1.9977   -1.1294 C.ar      1 <0>         0.1088
      9 N1          0.0968   -2.7768   -0.1132 N.pl3     1 <0>        -0.6636
     10 C8         -1.3057   -3.2146   -0.1871 C.3       1 <0>         0.1216
     11 C9         -1.3569   -4.7253    0.0636 C.3       1 <0>        -0.0220
     12 N2         -0.6925   -5.0320    1.3366 N.4       1 <0>        -0.3806
     13 C10         0.7338   -4.6939    1.2505 C.3       1 <0>        -0.0274
     14 C11         0.8902   -3.1864    1.0559 C.3       1 <0>         0.1218
     15 C12        -0.8376   -6.4641    1.6301 C.3       1 <0>        -0.0087
     16 C13        -0.2558   -6.7628    3.0132 C.3       1 <0>        -0.1461
     17 C14        -0.4069   -8.2543    3.3189 C.3       1 <0>        -0.1300
     18 C15         0.1750   -8.5530    4.7020 C.3       1 <0>         0.1193
     19 N3          0.0302   -9.9811    4.9947 N.am      1 <0>        -0.7331
     20 C16         0.4752  -10.4775    6.1660 C.2       1 <0>         0.5643
     21 O2          0.9967   -9.7401    6.9797 O.2       1 <0>        -0.5315
     22 C17         0.3293  -11.9181    6.4612 C.ar      1 <0>        -0.1484
     23 C18        -0.2697  -12.7675    5.5136 C.ar      1 <0>        -0.0967
     24 C19        -0.4150  -14.0939    5.7614 C.ar      1 <0>        -0.1051
     25 C20         0.0356  -14.6361    6.9791 C.ar      1 <0>        -0.0320
     26 C21        -0.1038  -16.0058    7.2582 C.ar      1 <0>        -0.1147
     27 C22         0.3421  -16.5017    8.4450 C.ar      1 <0>        -0.0983
     28 C23         0.9368  -15.6705    9.3925 C.ar      1 <0>        -0.1143
     29 C24         1.0892  -14.3386    9.1579 C.ar      1 <0>        -0.0963
     30 C25         0.6411  -13.7901    7.9427 C.ar      1 <0>        -0.0651
     31 C26         0.7884  -12.4225    7.6665 C.ar      1 <0>        -0.0245
     32 H1          1.0053    1.8021    0.0021 H         1 <0>         0.0589
     33 H2         -0.5445    1.7859   -0.8732 H         1 <0>         0.0589
     34 H3         -0.5275    1.7763    0.9067 H         1 <0>         0.1037
     35 H4          1.1348    1.2363   -2.0057 H         1 <0>         0.1341
     36 H5          2.2267    0.1425   -3.9212 H         1 <0>         0.1320
     37 H6          2.3168   -2.3119   -4.0562 H         1 <0>         0.1305
     38 H7          1.3151   -3.6852   -2.2764 H         1 <0>         0.1264
     39 H8         -1.8914   -2.6971    0.5728 H         1 <0>         0.0778
     40 H9         -1.7068   -2.9936   -1.1762 H         1 <0>         0.1138
     41 H10        -2.3961   -5.0513    0.1082 H         1 <0>         0.1357
     42 H11        -0.8470   -5.2457   -0.7471 H         1 <0>         0.1295
     43 H12         1.2353   -4.9969    2.1697 H         1 <0>         0.1375
     44 H13         1.1804   -5.2153    0.4039 H         1 <0>         0.1298
     45 H14         1.9402   -2.9468    0.8881 H         1 <0>         0.1137
     46 H15         0.5300   -2.6661    1.9434 H         1 <0>         0.0774
     47 H16        -1.8938   -6.7330    1.6144 H         1 <0>         0.1318
     48 H17        -0.3036   -7.0450    0.8781 H         1 <0>         0.1294
     49 H18         0.8004   -6.4939    3.0289 H         1 <0>         0.0916
     50 H19        -0.7898   -6.1819    3.7652 H         1 <0>         0.0922
     51 H20        -1.4631   -8.5232    3.3032 H         1 <0>         0.0826
     52 H21         0.1271   -8.8352    2.5669 H         1 <0>         0.0820
     53 H22         1.2312   -8.2841    4.7177 H         1 <0>         0.0723
     54 H23        -0.3590   -7.9721    5.4540 H         1 <0>         0.0726
     55 H24        -0.3859  -10.5695    4.3454 H         1 <0>         0.4021
     56 H25        -0.6188  -12.3588    4.5768 H         1 <0>         0.1223
     57 H26        -0.8770  -14.7335    5.0239 H         1 <0>         0.1343
     58 H27        -0.5632  -16.6627    6.5343 H         1 <0>         0.1320
     59 H28         0.2331  -17.5553    8.6557 H         1 <0>         0.1293
     60 H29         1.2814  -16.0892   10.3264 H         1 <0>         0.1298
     61 H30         1.5515  -13.7060    9.9012 H         1 <0>         0.1331
     62 H31         1.2517  -11.7677    8.3897 H         1 <0>         0.1429
     63 H32        -1.1202   -4.4947    2.0759 H         1 <0>         0.4226
@<TRIPOS>BOND
     1    1    2 1
     2    1   32 1
     3    1   33 1
     4    1   34 1
     5    2    3 1
     6    3    8 ar
     7    3    4 ar
     8    4    5 ar
     9    4   35 1
    10    5    6 ar
    11    5   36 1
    12    6    7 ar
    13    6   37 1
    14    7    8 ar
    15    7   38 1
    16    8    9 1
    17    9   14 1
    18    9   10 1
    19   10   11 1
    20   10   39 1
    21   10   40 1
    22   11   12 1
    23   11   41 1
    24   11   42 1
    25   12   13 1
    26   12   15 1
    27   12   63 1
    28   13   14 1
    29   13   43 1
    30   13   44 1
    31   14   45 1
    32   14   46 1
    33   15   16 1
    34   15   47 1
    35   15   48 1
    36   16   17 1
    37   16   49 1
    38   16   50 1
    39   17   18 1
    40   17   51 1
    41   17   52 1
    42   18   19 1
    43   18   53 1
    44   18   54 1
    45   19   20 am
    46   19   55 1
    47   20   21 2
    48   20   22 1
    49   22   31 ar
    50   22   23 ar
    51   23   24 ar
    52   23   56 1
    53   24   25 ar
    54   24   57 1
    55   25   30 ar
    56   25   26 ar
    57   26   27 ar
    58   26   58 1
    59   27   28 ar
    60   27   59 1
    61   28   29 ar
    62   28   60 1
    63   29   30 ar
    64   29   61 1
    65   30   31 ar
    66   31   62 1
@<TRIPOS>MOLECULE
ZINC03917109
   62    65     0     0     0
SMALL
USER_CHARGES

@<TRIPOS>ATOM
      1 C1         -0.0173    1.4248    0.0099 C.3       1 <0>         0.0251
      2 O1          0.0021   -0.0041    0.0020 O.3       1 <0>        -0.3039
      3 C2         -1.2013   -0.6380    0.0101 C.ar      1 <0>         0.1197
      4 C3         -2.3740    0.0989    0.0195 C.ar      1 <0>        -0.2065
      5 C4         -3.5967   -0.5469    0.0283 C.ar      1 <0>        -0.0836
      6 C5         -3.6532   -1.9283    0.0271 C.ar      1 <0>        -0.1523
      7 C6         -2.4875   -2.6710    0.0173 C.ar      1 <0>        -0.0882
      8 C7         -1.2572   -2.0300    0.0032 C.ar      1 <0>         0.1390
      9 N1         -0.0754   -2.7797   -0.0127 N.pl3     1 <0>        -0.6683
     10 C8          0.5713   -3.1961    1.2410 C.3       1 <0>         0.1532
     11 C9          0.8354   -4.7041    1.1750 C.3       1 <0>         0.0416
     12 N2          1.5913   -5.0126   -0.0462 N.3       1 <0>        -0.5348
     13 C10         0.8175   -4.6811   -1.2500 C.3       1 <0>         0.0379
     14 C11         0.5494   -3.1773   -1.2834 C.3       1 <0>         0.1529
     15 C12         2.0135   -6.4196   -0.0626 C.3       1 <0>         0.0570
     16 C13         2.9994   -6.6428   -1.2111 C.3       1 <0>        -0.1132
     17 C14         3.4391   -8.1081   -1.2283 C.3       1 <0>        -0.1303
     18 C15         4.4250   -8.3314   -2.3768 C.3       1 <0>         0.1194
     19 N3          4.8460   -9.7345   -2.3932 N.am      1 <0>        -0.7276
     20 C16         5.7188  -10.1653   -3.3255 C.2       1 <0>         0.5586
     21 O2          6.1567   -9.3896   -4.1527 O.2       1 <0>        -0.5351
     22 C17         6.1435  -11.5806   -3.3420 C.ar      1 <0>        -0.1394
     23 C18         5.6291  -12.4748   -2.3860 C.ar      1 <0>        -0.0931
     24 C19         6.0037  -13.7793   -2.3806 C.ar      1 <0>        -0.1083
     25 C20         6.9183  -14.2530   -3.3393 C.ar      1 <0>        -0.0339
     26 C21         7.3209  -15.5988   -3.3538 C.ar      1 <0>        -0.1133
     27 C22         8.2070  -16.0282   -4.2939 C.ar      1 <0>        -0.1034
     28 C23         8.7244  -15.1520   -5.2462 C.ar      1 <0>        -0.1183
     29 C24         8.3580  -13.8415   -5.2638 C.ar      1 <0>        -0.0955
     30 C25         7.4441  -13.3613   -4.3084 C.ar      1 <0>        -0.0641
     31 C26         7.0406  -12.0176   -4.3023 C.ar      1 <0>        -0.0303
     32 H1          1.0053    1.8021    0.0021 H         1 <0>         0.0993
     33 H2         -0.5445    1.7859   -0.8732 H         1 <0>         0.0537
     34 H3         -0.5275    1.7763    0.9067 H         1 <0>         0.0537
     35 H4         -2.3335    1.1781    0.0204 H         1 <0>         0.1277
     36 H5         -4.5101    0.0293    0.0363 H         1 <0>         0.1245
     37 H6         -4.6104   -2.4284    0.0343 H         1 <0>         0.1238
     38 H7         -2.5344   -3.7500    0.0168 H         1 <0>         0.1249
     39 H8          1.5150   -2.6639    1.3604 H         1 <0>         0.0581
     40 H9         -0.0855   -2.9758    2.0825 H         1 <0>         0.0690
     41 H10         1.4125   -5.0108    2.0473 H         1 <0>         0.0793
     42 H11        -0.1140   -5.2393    1.1600 H         1 <0>         0.0339
     43 H12         1.3817   -4.9710   -2.1364 H         1 <0>         0.0831
     44 H13        -0.1317   -5.2166   -1.2312 H         1 <0>         0.0333
     45 H14        -0.1219   -2.9447   -2.1101 H         1 <0>         0.0686
     46 H15         1.4910   -2.6433   -1.4113 H         1 <0>         0.0577
     47 H16         2.4960   -6.6652    0.8834 H         1 <0>         0.0748
     48 H17         1.1418   -7.0588   -0.2026 H         1 <0>         0.0322
     49 H18         2.5169   -6.3971   -2.1571 H         1 <0>         0.0668
     50 H19         3.8711   -6.0035   -1.0711 H         1 <0>         0.0766
     51 H20         3.9216   -8.3538   -0.2823 H         1 <0>         0.0712
     52 H21         2.5674   -8.7474   -1.3683 H         1 <0>         0.0684
     53 H22         3.9425   -8.0857   -3.3228 H         1 <0>         0.0696
     54 H23         5.2967   -7.6921   -2.2368 H         1 <0>         0.0713
     55 H24         4.4966  -10.3534   -1.7332 H         1 <0>         0.4001
     56 H25         4.9272  -12.1188   -1.6463 H         1 <0>         0.1252
     57 H26         5.6001  -14.4539   -1.6401 H         1 <0>         0.1336
     58 H27         6.9294  -16.2899   -2.6219 H         1 <0>         0.1303
     59 H28         8.5140  -17.0636   -4.3016 H         1 <0>         0.1266
     60 H29         9.4265  -15.5182   -5.9806 H         1 <0>         0.1272
     61 H30         8.7671  -13.1735   -6.0073 H         1 <0>         0.1318
     62 H31         7.4298  -11.3288   -5.0374 H         1 <0>         0.1429
@<TRIPOS>BOND
     1    1    2 1
     2    1   32 1
     3    1   33 1
     4    1   34 1
     5    2    3 1
     6    3    8 ar
     7    3    4 ar
     8    4    5 ar
     9    4   35 1
    10    5    6 ar
    11    5   36 1
    12    6    7 ar
    13    6   37 1
    14    7    8 ar
    15    7   38 1
    16    8    9 1
    17    9   14 1
    18    9   10 1
    19   10   11 1
    20   10   39 1
    21   10   40 1
    22   11   12 1
    23   11   41 1
    24   11   42 1
    25   12   13 1
    26   12   15 1
    27   13   14 1
    28   13   43 1
    29   13   44 1
    30   14   45 1
    31   14   46 1
    32   15   16 1
    33   15   47 1
    34   15   48 1
    35   16   17 1
    36   16   49 1
    37   16   50 1
    38   17   18 1
    39   17   51 1
    40   17   52 1
    41   18   19 1
    42   18   53 1
    43   18   54 1
    44   19   20 am
    45   19   55 1
    46   20   21 2
    47   20   22 1
    48   22   31 ar
    49   22   23 ar
    50   23   24 ar
    51   23   56 1
    52   24   25 ar
    53   24   57 1
    54   25   30 ar
    55   25   26 ar
    56   26   27 ar
    57   26   58 1
    58   27   28 ar
    59   27   59 1
    60   28   29 ar
    61   28   60 1
    62   29   30 ar
    63   29   61 1
    64   30   31 ar
    65   31   62 1
@<TRIPOS>MOLECULE
ZINC02169422
   49    51     0     0     0
SMALL
USER_CHARGES

@<TRIPOS>ATOM
      1 C1         -0.0173    1.4248    0.0099 C.3       1 <0>         0.0220
      2 O1          0.0021   -0.0041    0.0020 O.3       1 <0>        -0.3158
      3 C2          0.6263   -0.6188    1.0422 C.ar      1 <0>         0.1556
      4 C3          1.2023    0.1379    2.0514 C.ar      1 <0>        -0.2329
      5 C4          1.8370   -0.4860    3.1091 C.ar      1 <0>        -0.0259
      6 C5          1.9002   -1.8657    3.1656 C.ar      1 <0>        -0.2322
      7 C6          1.3266   -2.6296    2.1604 C.ar      1 <0>         0.1603
      8 C7          0.6826   -2.0063    1.0982 C.ar      1 <0>         0.0101
      9 O2          0.1135   -2.7526    0.1126 O.3       1 <0>        -0.3151
     10 C8          0.9387   -3.0899   -1.0043 C.3       1 <0>         0.0248
     11 C9          0.1318   -3.9245   -2.0009 C.3       1 <0>         0.0027
     12 N1         -0.9570   -3.1085   -2.5546 N.4       1 <0>        -0.5070
     13 C10        -1.7317   -3.9098   -3.5115 C.3       1 <0>         0.0060
     14 C11        -2.8656   -3.0599   -4.0881 C.3       1 <0>         0.0197
     15 H1         -2.4506   -2.1903   -4.5978 H         1 <0>         0.1086
     16 C12        -3.6875   -3.8964   -5.0780 C.3       1 <0>         0.0336
     17 O3         -4.7457   -3.0771   -5.5867 O.3       1 <0>        -0.2940
     18 C13        -5.4491   -2.3511   -4.6753 C.ar      1 <0>         0.0502
     19 C14        -6.6865   -1.8324   -5.0268 C.ar      1 <0>        -0.1085
     20 C15        -7.4109   -1.0903   -4.1134 C.ar      1 <0>        -0.1000
     21 C16        -6.9048   -0.8632   -2.8471 C.ar      1 <0>        -0.1093
     22 C17        -5.6732   -1.3784   -2.4899 C.ar      1 <0>        -0.1051
     23 C18        -4.9414   -2.1250   -3.4015 C.ar      1 <0>         0.0395
     24 O4         -3.7333   -2.6322   -3.0325 O.3       1 <0>        -0.3160
     25 O5          1.3897   -3.9870    2.2166 O.3       1 <0>        -0.3070
     26 C19         2.0623   -4.5592    3.3400 C.3       1 <0>         0.0218
     27 H2          1.0053    1.8021    0.0021 H         1 <0>         0.0625
     28 H3         -0.5445    1.7859   -0.8732 H         1 <0>         0.1060
     29 H4         -0.5275    1.7763    0.9067 H         1 <0>         0.0643
     30 H5          1.1554    1.2161    2.0107 H         1 <0>         0.1408
     31 H6          2.2850    0.1061    3.8934 H         1 <0>         0.1398
     32 H7          2.3972   -2.3494    3.9934 H         1 <0>         0.1417
     33 H8          1.2835   -2.1771   -1.4901 H         1 <0>         0.0771
     34 H9          1.7981   -3.6654   -0.6604 H         1 <0>         0.1012
     35 H10         0.7840   -4.2565   -2.8087 H         1 <0>         0.1485
     36 H11        -0.2873   -4.7927   -1.4923 H         1 <0>         0.1435
     37 H12        -1.5607   -2.8012   -1.8068 H         1 <0>         0.4445
     38 H13        -1.0795   -4.2418   -4.3193 H         1 <0>         0.1556
     39 H14        -2.1508   -4.7780   -3.0028 H         1 <0>         0.1460
     40 H15        -3.0503   -4.2255   -5.8989 H         1 <0>         0.1319
     41 H16        -4.1068   -4.7633   -4.5672 H         1 <0>         0.0891
     42 H17        -7.0840   -2.0082   -6.0155 H         1 <0>         0.1416
     43 H18        -8.3743   -0.6875   -4.3892 H         1 <0>         0.1408
     44 H19        -7.4727   -0.2818   -2.1359 H         1 <0>         0.1399
     45 H20        -5.2800   -1.1994   -1.5001 H         1 <0>         0.1376
     46 H21         2.0404   -5.6461    3.2617 H         1 <0>         0.1081
     47 H22         3.0971   -4.2169    3.3570 H         1 <0>         0.0620
     48 H23         1.5626   -4.2509    4.2584 H         1 <0>         0.0634
     49 H24        -0.5690   -2.3048   -3.0254 H         1 <0>         0.4279
@<TRIPOS>BOND
     1    1    2 1
     2    1   27 1
     3    1   28 1
     4    1   29 1
     5    2    3 1
     6    3    8 ar
     7    3    4 ar
     8    4    5 ar
     9    4   30 1
    10    5    6 ar
    11    5   31 1
    12    6    7 ar
    13    6   32 1
    14    7    8 ar
    15    7   25 1
    16    8    9 1
    17    9   10 1
    18   10   11 1
    19   10   33 1
    20   10   34 1
    21   11   12 1
    22   11   35 1
    23   11   36 1
    24   12   13 1
    25   12   37 1
    26   12   49 1
    27   13   14 1
    28   13   38 1
    29   13   39 1
    30   14   15 1
    31   14   24 1
    32   14   16 1
    33   16   17 1
    34   16   40 1
    35   16   41 1
    36   17   18 1
    37   18   23 ar
    38   18   19 ar
    39   19   20 ar
    40   19   42 1
    41   20   21 ar
    42   20   43 1
    43   21   22 ar
    44   21   44 1
    45   22   23 ar
    46   22   45 1
    47   23   24 1
    48   25   26 1
    49   26   46 1
    50   26   47 1
    51   26   48 1
@<TRIPOS>MOLECULE
ZINC02169424
   49    51     0     0     0
SMALL
USER_CHARGES

@<TRIPOS>ATOM
      1 C1         -0.0173    1.4248    0.0099 C.3       1 <0>         0.0220
      2 O1          0.0021   -0.0041    0.0020 O.3       1 <0>        -0.3161
      3 C2          0.6263   -0.6188    1.0422 C.ar      1 <0>         0.1555
      4 C3          1.2023    0.1379    2.0514 C.ar      1 <0>        -0.2328
      5 C4          1.8370   -0.4860    3.1091 C.ar      1 <0>        -0.0256
      6 C5          1.9002   -1.8657    3.1656 C.ar      1 <0>        -0.2321
      7 C6          1.3266   -2.6296    2.1604 C.ar      1 <0>         0.1604
      8 C7          0.6826   -2.0063    1.0982 C.ar      1 <0>         0.0097
      9 O2          0.1135   -2.7526    0.1126 O.3       1 <0>        -0.3164
     10 C8          0.9387   -3.0899   -1.0043 C.3       1 <0>         0.0247
     11 C9          0.1318   -3.9245   -2.0009 C.3       1 <0>         0.0033
     12 N1         -0.9570   -3.1085   -2.5546 N.4       1 <0>        -0.5074
     13 C10        -1.7317   -3.9098   -3.5115 C.3       1 <0>         0.0060
     14 C11        -2.8656   -3.0599   -4.0881 C.3       1 <0>         0.0198
     15 H1         -3.4690   -2.6528   -3.2767 H         1 <0>         0.1089
     16 C12        -3.7445   -3.9223   -5.0040 C.3       1 <0>         0.0338
     17 O3         -4.7846   -3.0948   -5.5364 O.3       1 <0>        -0.2938
     18 C13        -4.4107   -1.8796   -6.0222 C.ar      1 <0>         0.0506
     19 C14        -5.2702   -1.1893   -6.8640 C.ar      1 <0>        -0.1082
     20 C15        -4.9061    0.0471   -7.3627 C.ar      1 <0>        -0.0999
     21 C16        -3.6849    0.5995   -7.0236 C.ar      1 <0>        -0.1096
     22 C17        -2.8233   -0.0837   -6.1866 C.ar      1 <0>        -0.1058
     23 C18        -3.1817   -1.3259   -5.6843 C.ar      1 <0>         0.0388
     24 O4         -2.3191   -1.9901   -4.8670 O.3       1 <0>        -0.3164
     25 O5          1.3897   -3.9870    2.2166 O.3       1 <0>        -0.3071
     26 C19         2.0623   -4.5592    3.3400 C.3       1 <0>         0.0218
     27 H2          1.0053    1.8021    0.0021 H         1 <0>         0.0628
     28 H3         -0.5445    1.7859   -0.8732 H         1 <0>         0.1064
     29 H4         -0.5275    1.7763    0.9067 H         1 <0>         0.0642
     30 H5          1.1554    1.2161    2.0107 H         1 <0>         0.1409
     31 H6          2.2850    0.1061    3.8934 H         1 <0>         0.1399
     32 H7          2.3972   -2.3494    3.9934 H         1 <0>         0.1418
     33 H8          1.2835   -2.1771   -1.4901 H         1 <0>         0.0775
     34 H9          1.7981   -3.6654   -0.6604 H         1 <0>         0.1014
     35 H10         0.7840   -4.2565   -2.8087 H         1 <0>         0.1483
     36 H11        -0.2873   -4.7927   -1.4923 H         1 <0>         0.1439
     37 H12        -1.5607   -2.8012   -1.8068 H         1 <0>         0.4373
     38 H13        -1.0795   -4.2418   -4.3193 H         1 <0>         0.1463
     39 H14        -2.1508   -4.7780   -3.0028 H         1 <0>         0.1563
     40 H15        -3.1423   -4.3253   -5.8184 H         1 <0>         0.0892
     41 H16        -4.1822   -4.7395   -4.4306 H         1 <0>         0.1322
     42 H17        -6.2248   -1.6185   -7.1302 H         1 <0>         0.1418
     43 H18        -5.5768    0.5828   -8.0181 H         1 <0>         0.1409
     44 H19        -3.4037    1.5665   -7.4138 H         1 <0>         0.1399
     45 H20        -1.8699    0.3501   -5.9233 H         1 <0>         0.1368
     46 H21         2.0404   -5.6461    3.2617 H         1 <0>         0.1082
     47 H22         3.0971   -4.2169    3.3570 H         1 <0>         0.0621
     48 H23         1.5626   -4.2509    4.2584 H         1 <0>         0.0634
     49 H24        -0.5690   -2.3048   -3.0254 H         1 <0>         0.4346
@<TRIPOS>BOND
     1    1    2 1
     2    1   27 1
     3    1   28 1
     4    1   29 1
     5    2    3 1
     6    3    8 ar
     7    3    4 ar
     8    4    5 ar
     9    4   30 1
    10    5    6 ar
    11    5   31 1
    12    6    7 ar
    13    6   32 1
    14    7    8 ar
    15    7   25 1
    16    8    9 1
    17    9   10 1
    18   10   11 1
    19   10   33 1
    20   10   34 1
    21   11   12 1
    22   11   35 1
    23   11   36 1
    24   12   13 1
    25   12   37 1
    26   12   49 1
    27   13   14 1
    28   13   38 1
    29   13   39 1
    30   14   15 1
    31   14   24 1
    32   14   16 1
    33   16   17 1
    34   16   40 1
    35   16   41 1
    36   17   18 1
    37   18   23 ar
    38   18   19 ar
    39   19   20 ar
    40   19   42 1
    41   20   21 ar
    42   20   43 1
    43   21   22 ar
    44   21   44 1
    45   22   23 ar
    46   22   45 1
    47   23   24 1
    48   25   26 1
    49   26   46 1
    50   26   47 1
    51   26   48 1
@<TRIPOS>MOLECULE
ZINC25758512
   37    40     0     0     0
SMALL
USER_CHARGES

@<TRIPOS>ATOM
      1 C1         -0.0166    1.3758    0.0096 C.ar      1 <0>        -0.1157
      2 C2          1.1763    2.0743    0.0020 C.ar      1 <0>        -0.1192
      3 C3          2.3733    1.3896   -0.0385 C.ar      1 <0>        -0.1176
      4 C4          2.4009    0.0034   -0.0861 C.ar      1 <0>        -0.0687
      5 C5          1.2046   -0.6903   -0.0209 C.ar      1 <0>        -0.1153
      6 C6          0.0021   -0.0041    0.0020 C.ar      1 <0>        -0.1124
      7 C7          1.1747   -2.1927    0.1001 C.3       1 <0>         0.0903
      8 N1          2.4687   -2.6697    0.6185 N.3       1 <0>        -0.6611
      9 C8          3.5248   -2.2256   -0.2859 C.3       1 <0>         0.0873
     10 H1          3.2495   -2.4784   -1.3135 H         1 <0>         0.0869
     11 C9          3.7062   -0.7101   -0.1807 C.3       1 <0>        -0.0427
     12 H2          4.2639   -0.5125    0.7432 H         1 <0>         0.0912
     13 C10         4.5908   -0.3033   -1.3255 C.ar      1 <0>        -0.0537
     14 C11         4.3958    0.8864   -1.9965 C.ar      1 <0>        -0.1327
     15 C12         5.2340    1.2611   -3.0353 C.ar      1 <0>         0.0776
     16 C13         6.2733    0.4178   -3.4135 C.ar      1 <0>         0.0830
     17 C14         6.4491   -0.7850   -2.7594 C.ar      1 <0>        -0.1337
     18 C15         5.6055   -1.1624   -1.7191 C.ar      1 <0>        -0.0657
     19 C16         5.8510   -2.5104   -1.0979 C.3       1 <0>        -0.0803
     20 C17         4.8823   -2.8512    0.0309 C.3       1 <0>        -0.1091
     21 O1          7.1132    0.7761   -4.4215 O.3       1 <0>        -0.4882
     22 O2          5.0382    2.4433   -3.6773 O.3       1 <0>        -0.4862
     23 H3         -0.9564    1.9057    0.0259 H         1 <0>         0.1245
     24 H4          1.1697    3.1547    0.0285 H         1 <0>         0.1242
     25 H5          3.3025    1.9411   -0.0098 H         1 <0>         0.1225
     26 H6         -0.9296   -0.5512    0.0145 H         1 <0>         0.1248
     27 H7          0.3852   -2.4841    0.7865 H         1 <0>         0.0925
     28 H8          1.0003   -2.6301   -0.8788 H         1 <0>         0.0889
     29 H9          2.6220   -2.3300    1.5564 H         1 <0>         0.3432
     30 H10         3.5793    1.5447   -1.7458 H         1 <0>         0.1418
     31 H11         7.2519   -1.4441   -3.0565 H         1 <0>         0.1336
     32 H12         5.7665   -3.2743   -1.8756 H         1 <0>         0.0813
     33 H13         6.8713   -2.5358   -0.7070 H         1 <0>         0.0819
     34 H14         5.2573   -2.4506    0.9741 H         1 <0>         0.0674
     35 H15         4.7745   -3.9334    0.1136 H         1 <0>         0.0849
     36 H16         7.8888    1.2742   -4.1290 H         1 <0>         0.3876
     37 H17         5.5166    3.1871   -3.2864 H         1 <0>         0.3869
@<TRIPOS>BOND
     1    1    6 ar
     2    1    2 ar
     3    1   23 1
     4    2    3 ar
     5    2   24 1
     6    3    4 ar
     7    3   25 1
     8    4   11 1
     9    4    5 ar
    10    5    6 ar
    11    5    7 1
    12    6   26 1
    13    7    8 1
    14    7   27 1
    15    7   28 1
    16    8    9 1
    17    8   29 1
    18    9   10 1
    19    9   20 1
    20    9   11 1
    21   11   12 1
    22   11   13 1
    23   13   18 ar
    24   13   14 ar
    25   14   15 ar
    26   14   30 1
    27   15   16 ar
    28   15   22 1
    29   16   17 ar
    30   16   21 1
    31   17   18 ar
    32   17   31 1
    33   18   19 1
    34   19   20 1
    35   19   32 1
    36   19   33 1
    37   20   34 1
    38   20   35 1
    39   21   36 1
    40   22   37 1
@<TRIPOS>MOLECULE
ZINC00020229
   47    48     0     0     0
SMALL
USER_CHARGES

@<TRIPOS>ATOM
      1 C1         -1.2761   -4.3639   -3.1085 C.3       1 <0>        -0.1860
      2 C2         -0.7301   -3.6161   -1.8905 C.3       1 <0>        -0.0234
      3 N1          0.2843   -2.6466   -2.3253 N.4       1 <0>        -0.3833
      4 C3          1.4464   -3.3632   -2.8927 C.3       1 <0>        -0.0112
      5 C4          2.6766   -2.5276   -2.4593 C.3       1 <0>        -0.1411
      6 C5          2.2619   -2.0751   -1.0345 C.3       1 <0>        -0.1419
      7 C6          0.7406   -1.8536   -1.1692 C.3       1 <0>         0.0089
      8 H1          0.5334   -0.7970   -1.3392 H         1 <0>         0.1471
      9 C7          0.0311   -2.3285    0.1004 C.3       1 <0>         0.1054
     10 N2          0.4414   -1.4922    1.2311 N.am      1 <0>        -0.7353
     11 C8          0.0201   -1.7888    2.4765 C.2       1 <0>         0.5739
     12 O1         -0.7005   -2.7505    2.6616 O.2       1 <0>        -0.5006
     13 C9          0.4333   -0.9466    3.6152 C.ar      1 <0>        -0.2025
     14 C10         1.2564    0.1627    3.4063 C.ar      1 <0>         0.0538
     15 C11         1.6384    0.9456    4.4739 C.ar      1 <0>        -0.7232
     16 C12         1.2099    0.6379    5.7550 C.ar      1 <0>         0.0546
     17 C13         0.3962   -0.4554    5.9756 C.ar      1 <0>        -0.2336
     18 C14        -0.0024   -1.2513    4.9118 C.ar      1 <0>         0.2462
     19 O2         -0.8061   -2.3229    5.1263 O.3       1 <0>        -0.2744
     20 C15        -1.2100   -2.5714    6.4743 C.3       1 <0>         0.0127
     21 S1          2.6771    2.3440    4.2087 S.o2      1 <0>         2.7060
     22 O3          3.3381    2.5983    5.4406 O.2       1 <0>        -0.9541
     23 O4          3.3846    2.1011    3.0005 O.2       1 <0>        -0.9646
     24 N3          1.6882    3.6417    3.9255 N.pl3     1 <0>        -1.2497
     25 H2         -1.7267   -3.6520   -3.8000 H         1 <0>         0.0803
     26 H3         -0.4617   -4.8893   -3.6074 H         1 <0>         0.0801
     27 H4         -2.0288   -5.0832   -2.7858 H         1 <0>         0.1066
     28 H5         -1.5444   -3.0907   -1.3916 H         1 <0>         0.1351
     29 H6         -0.2794   -4.3280   -1.1990 H         1 <0>         0.1332
     30 H7          1.5084   -4.3710   -2.4820 H         1 <0>         0.1334
     31 H8          1.3761   -3.3993   -3.9799 H         1 <0>         0.1378
     32 H9          3.5754   -3.1435   -2.4272 H         1 <0>         0.1196
     33 H10         2.8167   -1.6692   -3.1163 H         1 <0>         0.1013
     34 H11         2.4744   -2.8565   -0.3048 H         1 <0>         0.1036
     35 H12         2.7641   -1.1464   -0.7636 H         1 <0>         0.1180
     36 H13        -1.0477   -2.2516   -0.0358 H         1 <0>         0.0915
     37 H14         0.2990   -3.3661    0.2999 H         1 <0>         0.0952
     38 H15         1.0162   -0.7250    1.0834 H         1 <0>         0.4053
     39 H16         1.5932    0.4061    2.4094 H         1 <0>         0.1478
     40 H17         1.5144    1.2568    6.5860 H         1 <0>         0.1569
     41 H18         0.0663   -0.6888    6.9771 H         1 <0>         0.1535
     42 H19        -0.3283   -2.7381    7.0930 H         1 <0>         0.0668
     43 H20        -1.7619   -1.7109    6.8527 H         1 <0>         0.0666
     44 H21        -1.8481   -3.4546    6.5055 H         1 <0>         0.1133
     45 H22         0.7249    3.5276    3.9304 H         1 <0>         0.4171
     46 H23         2.0722    4.5159    3.7546 H         1 <0>         0.4246
     47 H24        -0.1083   -2.0336   -3.0240 H         1 <0>         0.4289
@<TRIPOS>BOND
     1    1    2 1
     2    1   25 1
     3    1   26 1
     4    1   27 1
     5    2    3 1
     6    2   28 1
     7    2   29 1
     8    3    7 1
     9    3    4 1
    10    3   47 1
    11    4    5 1
    12    4   30 1
    13    4   31 1
    14    5    6 1
    15    5   32 1
    16    5   33 1
    17    6    7 1
    18    6   34 1
    19    6   35 1
    20    7    8 1
    21    7    9 1
    22    9   10 1
    23    9   36 1
    24    9   37 1
    25   10   11 am
    26   10   38 1
    27   11   12 2
    28   11   13 1
    29   13   18 ar
    30   13   14 ar
    31   14   15 ar
    32   14   39 1
    33   15   16 ar
    34   15   21 1
    35   16   17 ar
    36   16   40 1
    37   17   18 ar
    38   17   41 1
    39   18   19 1
    40   19   20 1
    41   20   42 1
    42   20   43 1
    43   20   44 1
    44   21   22 2
    45   21   23 2
    46   21   24 1
    47   24   45 1
    48   24   46 1
@<TRIPOS>MOLECULE
ZINC00057008
   47    48     0     0     0
SMALL
USER_CHARGES

@<TRIPOS>ATOM
      1 C1         -0.0187    1.5258    0.0104 C.3       1 <0>        -0.1897
      2 C2          0.0021   -0.0041    0.0020 C.3       1 <0>        -0.0136
      3 N1          0.6897   -0.4778   -1.2066 N.4       1 <0>        -0.3974
      4 C3         -0.0977   -0.1111   -2.4030 C.3       1 <0>        -0.0106
      5 C4          0.0876   -1.3002   -3.3783 C.3       1 <0>        -0.1438
      6 C5          0.0948   -2.5070   -2.4033 C.3       1 <0>        -0.1316
      7 C6          0.8183   -1.9459   -1.1611 C.3       1 <0>         0.0107
      8 H1          0.3514   -2.3311   -0.2546 H         1 <0>         0.1483
      9 C7          2.2961   -2.3403   -1.1970 C.3       1 <0>         0.1010
     10 N2          3.0089   -1.6628   -0.1111 N.am      1 <0>        -0.7578
     11 C8          4.3318   -1.8612    0.0535 C.2       1 <0>         0.5719
     12 O1          4.9337   -2.6023   -0.6993 O.2       1 <0>        -0.4872
     13 C9          5.0496   -1.1789    1.1471 C.ar      1 <0>        -0.2038
     14 C10         4.3608   -0.3309    2.0180 C.ar      1 <0>         0.0500
     15 C11         5.0369    0.3029    3.0376 C.ar      1 <0>        -0.7236
     16 C12         6.3978    0.1034    3.2039 C.ar      1 <0>         0.0551
     17 C13         7.0907   -0.7318    2.3505 C.ar      1 <0>        -0.2312
     18 C14         6.4251   -1.3822    1.3219 C.ar      1 <0>         0.2480
     19 O2          7.1035   -2.2073    0.4857 O.3       1 <0>        -0.2733
     20 C15         8.5034   -2.3657    0.7254 C.3       1 <0>         0.0122
     21 S1          4.1669    1.3725    4.1347 S.o2      1 <0>         2.7072
     22 O3          5.1271    2.2718    4.6717 O.2       1 <0>        -0.9524
     23 O4          3.0123    1.8184    3.4366 O.2       1 <0>        -0.9690
     24 N3          3.6282    0.4460    5.3971 N.pl3     1 <0>        -1.2496
     25 H2          1.0039    1.9031    0.0027 H         1 <0>         0.0828
     26 H3         -0.5459    1.8868   -0.8726 H         1 <0>         0.0811
     27 H4         -0.5289    1.8773    0.9072 H         1 <0>         0.1105
     28 H5          0.5293   -0.3651    0.8851 H         1 <0>         0.1249
     29 H6         -1.0205   -0.3814    0.0098 H         1 <0>         0.1346
     30 H7         -1.1498    0.0064   -2.1435 H         1 <0>         0.1360
     31 H8          0.2896    0.8066   -2.8456 H         1 <0>         0.1357
     32 H9         -0.7473   -1.3669   -4.0759 H         1 <0>         0.1211
     33 H10         1.0351   -1.2237   -3.9118 H         1 <0>         0.0999
     34 H11        -0.9229   -2.8070   -2.1539 H         1 <0>         0.1077
     35 H12         0.6508   -3.3426   -2.8285 H         1 <0>         0.1183
     36 H13         2.3873   -3.4195   -1.0737 H         1 <0>         0.1172
     37 H14         2.7275   -2.0462   -2.1538 H         1 <0>         0.0984
     38 H15         2.5287   -1.0715    0.4895 H         1 <0>         0.3924
     39 H16         3.3000   -0.1722    1.8919 H         1 <0>         0.1417
     40 H17         6.9199    0.6046    4.0056 H         1 <0>         0.1577
     41 H18         8.1514   -0.8823    2.4865 H         1 <0>         0.1548
     42 H19         8.9974   -1.3974    0.6459 H         1 <0>         0.0674
     43 H20         8.6572   -2.7711    1.7254 H         1 <0>         0.0675
     44 H21         8.9232   -3.0494   -0.0124 H         1 <0>         0.1149
     45 H22         3.8201   -0.5046    5.4176 H         1 <0>         0.4178
     46 H23         3.1208    0.8539    6.1162 H         1 <0>         0.4251
     47 H24         1.6056   -0.0583   -1.2636 H         1 <0>         0.4224
@<TRIPOS>BOND
     1    1    2 1
     2    1   25 1
     3    1   26 1
     4    1   27 1
     5    2    3 1
     6    2   28 1
     7    2   29 1
     8    3    7 1
     9    3    4 1
    10    3   47 1
    11    4    5 1
    12    4   30 1
    13    4   31 1
    14    5    6 1
    15    5   32 1
    16    5   33 1
    17    6    7 1
    18    6   34 1
    19    6   35 1
    20    7    8 1
    21    7    9 1
    22    9   10 1
    23    9   36 1
    24    9   37 1
    25   10   11 am
    26   10   38 1
    27   11   12 2
    28   11   13 1
    29   13   18 ar
    30   13   14 ar
    31   14   15 ar
    32   14   39 1
    33   15   16 ar
    34   15   21 1
    35   16   17 ar
    36   16   40 1
    37   17   18 ar
    38   17   41 1
    39   18   19 1
    40   19   20 1
    41   20   42 1
    42   20   43 1
    43   20   44 1
    44   21   22 2
    45   21   23 2
    46   21   24 1
    47   24   45 1
    48   24   46 1
@<TRIPOS>MOLECULE
ZINC03872369
   27    28     0     0     0
SMALL
USER_CHARGES

@<TRIPOS>ATOM
      1 C1         -0.0167    1.3781    0.0096 C.ar      1 <0>        -0.1278
      2 C2          1.1699    2.1013    0.0022 C.ar      1 <0>        -0.0760
      3 C3          2.3760    1.4373   -0.0096 C.ar      1 <0>        -0.0871
      4 C4          2.3994    0.0479   -0.0213 C.ar      1 <0>        -0.1240
      5 C5          1.2214   -0.6754   -0.0154 C.ar      1 <0>         0.0920
      6 C6          0.0021   -0.0041    0.0020 C.ar      1 <0>         0.1009
      7 O1         -1.1639   -0.7039    0.0111 O.3       1 <0>        -0.4894
      8 O2          1.2536   -2.0349   -0.0267 O.3       1 <0>        -0.4893
      9 C7          3.6985    2.1589   -0.0019 C.3       1 <0>        -0.0938
     10 C8          3.5179    3.6167   -0.4196 C.3       1 <0>         0.0260
     11 H1          3.2457    3.6655   -1.4739 H         1 <0>         0.1479
     12 C9          2.3990    4.2287    0.4314 C.3       1 <0>        -0.1401
     13 C10         1.0724    3.6047    0.0035 C.3       1 <0>        -0.0778
     14 N1          4.7691    4.3537   -0.1972 N.4       1 <0>        -0.6353
     15 H2         -0.9618    1.9005    0.0260 H         1 <0>         0.1401
     16 H3          3.3462   -0.4714   -0.0354 H         1 <0>         0.1375
     17 H4         -1.5109   -0.9016   -0.8696 H         1 <0>         0.4018
     18 H5          1.2716   -2.4352    0.8534 H         1 <0>         0.4007
     19 H6          4.1219    2.1225    1.0018 H         1 <0>         0.0992
     20 H7          4.3799    1.6678   -0.6967 H         1 <0>         0.1015
     21 H8          2.5814    4.0169    1.4850 H         1 <0>         0.0947
     22 H9          2.3655    5.3067    0.2736 H         1 <0>         0.0960
     23 H10         0.8201    3.9494   -0.9994 H         1 <0>         0.0921
     24 H11         0.2898    3.9135    0.6965 H         1 <0>         0.0998
     25 H12         5.5067    3.9374   -0.7456 H         1 <0>         0.4376
     26 H13         4.6463    5.3161   -0.4741 H         1 <0>         0.4386
     27 H14         5.0137    4.3137    0.7809 H         1 <0>         0.4342
@<TRIPOS>BOND
     1    1    6 ar
     2    1    2 ar
     3    1   15 1
     4    2   13 1
     5    2    3 ar
     6    3    4 ar
     7    3    9 1
     8    4    5 ar
     9    4   16 1
    10    5    6 ar
    11    5    8 1
    12    6    7 1
    13    7   17 1
    14    8   18 1
    15    9   10 1
    16    9   19 1
    17    9   20 1
    18   10   11 1
    19   10   12 1
    20   10   14 1
    21   12   13 1
    22   12   21 1
    23   12   22 1
    24   13   23 1
    25   13   24 1
    26   14   25 1
    27   14   26 1
    28   14   27 1
@<TRIPOS>MOLECULE
ZINC03872370
   27    28     0     0     0
SMALL
USER_CHARGES

@<TRIPOS>ATOM
      1 C1         -0.0167    1.3781    0.0096 C.ar      1 <0>        -0.1279
      2 C2          1.1699    2.1013    0.0022 C.ar      1 <0>        -0.0759
      3 C3          2.3760    1.4373   -0.0161 C.ar      1 <0>        -0.0872
      4 C4          2.3994    0.0479   -0.0197 C.ar      1 <0>        -0.1239
      5 C5          1.2215   -0.6754   -0.0113 C.ar      1 <0>         0.0920
      6 C6          0.0021   -0.0041    0.0020 C.ar      1 <0>         0.1009
      7 O1         -1.1639   -0.7039    0.0071 O.3       1 <0>        -0.4896
      8 O2          1.2537   -2.0349   -0.0165 O.3       1 <0>        -0.4892
      9 C7          3.6981    2.1591   -0.0413 C.3       1 <0>        -0.0938
     10 C8          3.5257    3.6124    0.3953 C.3       1 <0>         0.0259
     11 H1          3.2736    3.6498    1.4550 H         1 <0>         0.1479
     12 C9          2.3908    4.2333   -0.4277 C.3       1 <0>        -0.1401
     13 C10         1.0726    3.6046    0.0188 C.3       1 <0>        -0.0778
     14 N1          4.7725    4.3518    0.1570 N.4       1 <0>        -0.6353
     15 H2         -0.9618    1.9005    0.0260 H         1 <0>         0.1402
     16 H3          3.3463   -0.4714   -0.0296 H         1 <0>         0.1375
     17 H4         -1.5079   -0.9016   -0.8747 H         1 <0>         0.4019
     18 H5          1.2713   -2.4313    0.8653 H         1 <0>         0.4006
     19 H6          4.3926    1.6607    0.6351 H         1 <0>         0.1014
     20 H7          4.1023    2.1334   -1.0533 H         1 <0>         0.0992
     21 H8          2.3605    5.3095   -0.2578 H         1 <0>         0.0960
     22 H9          2.5531    4.0327   -1.4867 H         1 <0>         0.0946
     23 H10         0.2769    3.9207   -0.6559 H         1 <0>         0.0998
     24 H11         0.8394    3.9385    1.0299 H         1 <0>         0.0921
     25 H12         4.9984    4.3223   -0.8260 H         1 <0>         0.4343
     26 H13         4.6551    5.3112    0.4464 H         1 <0>         0.4387
     27 H14         5.5203    3.9297    0.6868 H         1 <0>         0.4376
@<TRIPOS>BOND
     1    1    6 ar
     2    1    2 ar
     3    1   15 1
     4    2   13 1
     5    2    3 ar
     6    3    4 ar
     7    3    9 1
     8    4    5 ar
     9    4   16 1
    10    5    6 ar
    11    5    8 1
    12    6    7 1
    13    7   17 1
    14    8   18 1
    15    9   10 1
    16    9   19 1
    17    9   20 1
    18   10   11 1
    19   10   12 1
    20   10   14 1
    21   12   13 1
    22   12   21 1
    23   12   22 1
    24   13   23 1
    25   13   24 1
    26   14   25 1
    27   14   26 1
    28   14   27 1
@<TRIPOS>MOLECULE
ZINC00643233
   56    59     0     0     0
SMALL
USER_CHARGES

@<TRIPOS>ATOM
      1 C1         -0.0167    1.3786    0.0096 C.ar      1 <0>        -0.1573
      2 C2          1.1695    2.0894    0.0021 C.ar      1 <0>        -0.0635
      3 C3          2.3774    1.4200   -0.0130 C.ar      1 <0>        -0.1784
      4 C4          2.3998    0.0311   -0.0206 C.ar      1 <0>         0.2317
      5 C5          1.2064   -0.6798   -0.0130 C.ar      1 <0>        -0.1988
      6 C6          0.0021   -0.0041    0.0020 C.ar      1 <0>        -0.0706
      7 N1          3.6196   -0.6492   -0.0363 N.pl3     1 <0>        -0.6334
      8 C7          4.9637   -0.0571   -0.0400 C.3       1 <0>         0.3326
      9 N2          5.9388   -1.1470   -0.0572 N.am      1 <0>        -0.7166
     10 C8          5.3099   -2.3344   -0.0641 C.2       1 <0>         0.5288
     11 O1          5.8532   -3.4187   -0.0778 O.2       1 <0>        -0.5133
     12 C9          3.8222   -2.1026   -0.0461 C.3       1 <0>         0.1361
     13 C10         3.1820   -2.7114   -1.2943 C.3       1 <0>        -0.1499
     14 C11         3.3480   -4.2326   -1.2552 C.3       1 <0>        -0.0132
     15 N3          2.7020   -4.7671   -0.0503 N.4       1 <0>        -0.3794
     16 C12         3.3698   -4.2457    1.1482 C.3       1 <0>        -0.0190
     17 C13         3.2050   -2.7250    1.2070 C.3       1 <0>        -0.1492
     18 C14         2.7905   -6.2335   -0.0591 C.3       1 <0>        -0.0094
     19 C15         2.0109   -6.7986    1.1299 C.3       1 <0>        -0.1425
     20 C16         2.1030   -8.3258    1.1207 C.3       1 <0>        -0.1654
     21 C17         1.3351   -8.8824    2.2919 C.2       1 <0>         0.4040
     22 O2          0.7698   -8.1316    3.0583 O.2       1 <0>        -0.4484
     23 C18         1.2712  -10.3355    2.5052 C.ar      1 <0>        -0.1962
     24 C19         1.9272  -11.2044    1.6259 C.ar      1 <0>        -0.0430
     25 C20         1.8634  -12.5650    1.8315 C.ar      1 <0>        -0.1669
     26 C21         1.1505  -13.0743    2.9070 C.ar      1 <0>         0.1434
     27 C22         0.4980  -12.2186    3.7823 C.ar      1 <0>        -0.1651
     28 C23         0.5590  -10.8557    3.5917 C.ar      1 <0>        -0.0262
     29 F1          1.0910  -14.4098    3.1025 F         1 <0>        -0.1261
     30 H1         -0.9598    1.9046    0.0260 H         1 <0>         0.1276
     31 H2          1.1513    3.1692    0.0077 H         1 <0>         0.1312
     32 H3          3.3034    1.9757   -0.0192 H         1 <0>         0.1257
     33 H4          1.2204   -1.7597   -0.0193 H         1 <0>         0.1144
     34 H5         -0.9261   -0.5561    0.0079 H         1 <0>         0.1276
     35 H6          5.0901    0.5643   -0.9265 H         1 <0>         0.0880
     36 H7          5.1025    0.5473    0.8564 H         1 <0>         0.0877
     37 H8          6.9016   -1.0295   -0.0627 H         1 <0>         0.4365
     38 H9          2.1214   -2.4613   -1.3183 H         1 <0>         0.1096
     39 H10         3.6706   -2.3147   -2.1843 H         1 <0>         0.1192
     40 H11         2.8858   -4.6710   -2.1397 H         1 <0>         0.1383
     41 H12         4.4090   -4.4817   -1.2391 H         1 <0>         0.1470
     42 H13         2.9238   -4.6937    2.0361 H         1 <0>         0.1399
     43 H14         4.4303   -4.4946    1.1101 H         1 <0>         0.1471
     44 H15         3.7099   -2.3380    2.0921 H         1 <0>         0.1189
     45 H16         2.1450   -2.4752    1.2532 H         1 <0>         0.1098
     46 H17         2.3668   -6.6175   -0.9870 H         1 <0>         0.1347
     47 H18         3.8354   -6.5348    0.0153 H         1 <0>         0.1347
     48 H19         2.4346   -6.4145    2.0578 H         1 <0>         0.0947
     49 H20         0.9660   -6.4972    1.0555 H         1 <0>         0.0950
     50 H21         1.6793   -8.7098    0.1928 H         1 <0>         0.1132
     51 H22         3.1479   -8.6271    1.1951 H         1 <0>         0.1132
     52 H23         2.4820  -10.8091    0.7879 H         1 <0>         0.1415
     53 H24         2.3692  -13.2366    1.1537 H         1 <0>         0.1468
     54 H25        -0.0554  -12.6215    4.6177 H         1 <0>         0.1475
     55 H26         0.0543  -10.1903    4.2765 H         1 <0>         0.1457
     56 H27         1.7315   -4.4913   -0.0400 H         1 <0>         0.4195
@<TRIPOS>BOND
     1    1    6 ar
     2    1    2 ar
     3    1   30 1
     4    2    3 ar
     5    2   31 1
     6    3    4 ar
     7    3   32 1
     8    4    5 ar
     9    4    7 1
    10    5    6 ar
    11    5   33 1
    12    6   34 1
    13    7   12 1
    14    7    8 1
    15    8    9 1
    16    8   35 1
    17    8   36 1
    18    9   10 am
    19    9   37 1
    20   10   11 2
    21   10   12 1
    22   12   17 1
    23   12   13 1
    24   13   14 1
    25   13   38 1
    26   13   39 1
    27   14   15 1
    28   14   40 1
    29   14   41 1
    30   15   16 1
    31   15   18 1
    32   15   56 1
    33   16   17 1
    34   16   42 1
    35   16   43 1
    36   17   44 1
    37   17   45 1
    38   18   19 1
    39   18   46 1
    40   18   47 1
    41   19   20 1
    42   19   48 1
    43   19   49 1
    44   20   21 1
    45   20   50 1
    46   20   51 1
    47   21   22 2
    48   21   23 1
    49   23   28 ar
    50   23   24 ar
    51   24   25 ar
    52   24   52 1
    53   25   26 ar
    54   25   53 1
    55   26   27 ar
    56   26   29 1
    57   27   28 ar
    58   27   54 1
    59   28   55 1
@<TRIPOS>MOLECULE
ZINC28764148
   66    69     0     0     0
SMALL
USER_CHARGES
8-[4-[4-(2-methoxyphenyl)piperazin-1-yl]butyl]-8-azaspiro[4.5]decane-7,9-dione
@<TRIPOS>ATOM
      1 C1         -1.1455    3.4824    0.0264 C.3       1 <0>         0.0170
      2 O1         -1.2029    2.0546    0.0189 O.3       1 <0>        -0.2995
      3 C2         -0.0168    1.3889    0.0097 C.ar      1 <0>         0.1636
      4 C3          1.1751    2.0944    0.0021 C.ar      1 <0>        -0.2029
      5 C4          2.3802    1.4164   -0.0135 C.ar      1 <0>        -0.0629
      6 C5          2.3999    0.0340   -0.0207 C.ar      1 <0>        -0.1460
      7 C6          1.2148   -0.6775   -0.0132 C.ar      1 <0>        -0.1059
      8 C7          0.0021   -0.0041    0.0020 C.ar      1 <0>         0.0250
      9 N1         -1.1993   -0.7222    0.0092 N.pl3     1 <0>        -0.4820
     10 C8         -1.3293   -1.5189    1.2371 C.3       1 <0>         0.0306
     11 C9         -2.6874   -2.2247    1.2428 C.3       1 <0>        -0.0027
     12 N2         -2.7984   -3.0773    0.0510 N.4       1 <0>        -0.4006
     13 C10        -2.6684   -2.2806   -1.1770 C.3       1 <0>         0.0019
     14 C11        -1.3103   -1.5748   -1.1826 C.3       1 <0>         0.0296
     15 C12        -4.0593   -3.8310    0.0585 C.3       1 <0>        -0.0045
     16 C13        -4.0493   -4.8302    1.2171 C.3       1 <0>        -0.1441
     17 C14        -5.3625   -5.6152    1.2249 C.3       1 <0>        -0.1297
     18 C15        -5.3525   -6.6144    2.3836 C.3       1 <0>         0.0887
     19 N3         -6.6100   -7.3660    2.3911 N.am      1 <0>        -0.5672
     20 C16        -7.6401   -6.8859    3.1031 C.2       1 <0>         0.5272
     21 O2         -7.5108   -5.8424    3.7063 O.2       1 <0>        -0.4992
     22 C17        -8.9569   -7.6156    3.1633 C.3       1 <0>        -0.1365
     23 C18        -9.1441   -8.4260    1.8817 C.3       1 <0>        -0.0691
     24 C19       -10.4291   -9.2611    1.9664 C.3       1 <0>        -0.1176
     25 C20       -11.3343   -8.7893    0.8083 C.3       1 <0>        -0.1284
     26 C21       -10.3488   -8.1812   -0.2209 C.3       1 <0>        -0.1196
     27 C22        -9.3023   -7.4777    0.6800 C.3       1 <0>        -0.1167
     28 C23        -7.9364   -9.3376    1.6701 C.3       1 <0>        -0.1354
     29 C24        -6.6794   -8.5072    1.6899 C.2       1 <0>         0.5275
     30 O3         -5.7121   -8.8778    1.0603 O.2       1 <0>        -0.4993
     31 H1         -2.1670    3.8904    0.0334 H         1 <0>         0.1068
     32 H2         -0.6169    3.8328   -0.8724 H         1 <0>         0.0598
     33 H3         -0.6084    3.8230    0.9239 H         1 <0>         0.0598
     34 H4          1.1633    3.1743    0.0076 H         1 <0>         0.1379
     35 H5          3.3085    1.9682   -0.0198 H         1 <0>         0.1337
     36 H6          3.3435   -0.4913   -0.0325 H         1 <0>         0.1306
     37 H7          1.2330   -1.7573   -0.0195 H         1 <0>         0.1243
     38 H8         -0.5252   -2.2686    1.2746 H         1 <0>         0.0626
     39 H9         -1.2550   -0.8575    2.1129 H         1 <0>         0.1233
     40 H10        -2.7748   -2.8443    2.1475 H         1 <0>         0.1378
     41 H11        -3.4910   -1.4736    1.2337 H         1 <0>         0.1372
     42 H12        -2.7426   -2.9421   -2.0528 H         1 <0>         0.1372
     43 H13        -3.4725   -1.5309   -1.2146 H         1 <0>         0.1367
     44 H14        -1.2221   -0.9545   -2.0867 H         1 <0>         0.1237
     45 H15        -0.5060   -2.3251   -1.1729 H         1 <0>         0.0629
     46 H16        -4.9019   -3.1348    0.1820 H         1 <0>         0.1293
     47 H17        -4.1681   -4.3732   -0.8924 H         1 <0>         0.1324
     48 H18        -3.2067   -5.5264    1.0936 H         1 <0>         0.0915
     49 H19        -3.9406   -4.2880    2.1680 H         1 <0>         0.0909
     50 H20        -6.2051   -4.9190    1.3484 H         1 <0>         0.0797
     51 H21        -5.4712   -6.1574    0.2740 H         1 <0>         0.0797
     52 H22        -4.5099   -7.3106    2.2601 H         1 <0>         0.0995
     53 H23        -5.2437   -6.0722    3.3345 H         1 <0>         0.0995
     54 H24        -8.9619   -8.2920    4.0308 H         1 <0>         0.1166
     55 H25        -9.7755   -6.8874    3.2614 H         1 <0>         0.1199
     56 H26       -10.1808  -10.3276    1.8623 H         1 <0>         0.0760
     57 H27       -10.9137   -9.0907    2.9391 H         1 <0>         0.0760
     58 H28       -11.8818   -9.6501    0.3968 H         1 <0>         0.0721
     59 H29       -12.0512   -8.0441    1.1834 H         1 <0>         0.0696
     60 H30        -9.9118   -8.9862   -0.8300 H         1 <0>         0.0719
     61 H31       -10.8876   -7.4787   -0.8737 H         1 <0>         0.0716
     62 H32        -9.6523   -6.4958    1.0313 H         1 <0>         0.0742
     63 H33        -8.3324   -7.3617    0.1742 H         1 <0>         0.0603
     64 H34        -7.8968  -10.0865    2.4748 H         1 <0>         0.1165
     65 H35        -8.0271   -9.8470    0.6994 H         1 <0>         0.1198
     66 H36        -1.9720   -3.8030    0.0743 H         1 <0>         0.4373
@<TRIPOS>BOND
     1    1    2 1
     2    1   31 1
     3    1   32 1
     4    1   33 1
     5    2    3 1
     6    3    8 ar
     7    3    4 ar
     8    4    5 ar
     9    4   34 1
    10    5    6 ar
    11    5   35 1
    12    6    7 ar
    13    6   36 1
    14    7    8 ar
    15    7   37 1
    16    8    9 1
    17    9   14 1
    18    9   10 1
    19   10   11 1
    20   10   38 1
    21   10   39 1
    22   11   12 1
    23   11   40 1
    24   11   41 1
    25   12   13 1
    26   12   15 1
    27   12   66 1
    28   13   14 1
    29   13   42 1
    30   13   43 1
    31   14   44 1
    32   14   45 1
    33   15   16 1
    34   15   46 1
    35   15   47 1
    36   16   17 1
    37   16   48 1
    38   16   49 1
    39   17   18 1
    40   17   50 1
    41   17   51 1
    42   18   19 1
    43   18   52 1
    44   18   53 1
    45   19   29 am
    46   19   20 am
    47   20   21 2
    48   20   22 1
    49   22   23 1
    50   22   54 1
    51   22   55 1
    52   23   27 1
    53   23   24 1
    54   23   28 1
    55   24   25 1
    56   24   56 1
    57   24   57 1
    58   25   26 1
    59   25   58 1
    60   25   59 1
    61   26   27 1
    62   26   60 1
    63   26   61 1
    64   27   62 1
    65   27   63 1
    66   28   29 1
    67   28   64 1
    68   28   65 1
    69   29   30 2
@<TRIPOS>MOLECULE
ZINC28764148
   65    68     0     0     0
SMALL
USER_CHARGES
8-[4-[4-(2-methoxyphenyl)piperazin-1-yl]butyl]-8-azaspiro[4.5]decane-7,9-dione
@<TRIPOS>ATOM
      1 C1         -1.1455    3.4824    0.0264 C.3       1 <0>         0.0199
      2 O1         -1.2029    2.0546    0.0189 O.3       1 <0>        -0.2957
      3 C2         -0.0168    1.3889    0.0097 C.ar      1 <0>         0.1513
      4 C3          1.1751    2.0944    0.0021 C.ar      1 <0>        -0.2073
      5 C4          2.3802    1.4164   -0.0135 C.ar      1 <0>        -0.0803
      6 C5          2.3999    0.0340   -0.0207 C.ar      1 <0>        -0.1493
      7 C6          1.2148   -0.6775   -0.0132 C.ar      1 <0>        -0.1080
      8 C7          0.0021   -0.0041    0.0020 C.ar      1 <0>         0.0531
      9 N1         -1.1993   -0.7222    0.0092 N.pl3     1 <0>        -0.4905
     10 C8         -1.3293   -1.5189    1.2371 C.3       1 <0>         0.0628
     11 C9         -2.6874   -2.2247    1.2428 C.3       1 <0>         0.0540
     12 N2         -2.7984   -3.0773    0.0510 N.3       1 <0>        -0.5390
     13 C10        -2.6684   -2.2806   -1.1770 C.3       1 <0>         0.0570
     14 C11        -1.3103   -1.5748   -1.1826 C.3       1 <0>         0.0624
     15 C12        -4.0593   -3.8310    0.0585 C.3       1 <0>         0.0573
     16 C13        -4.0493   -4.8302    1.2171 C.3       1 <0>        -0.1116
     17 C14        -5.3625   -5.6152    1.2249 C.3       1 <0>        -0.1278
     18 C15        -5.3525   -6.6144    2.3836 C.3       1 <0>         0.0901
     19 N3         -6.6100   -7.3660    2.3911 N.am      1 <0>        -0.5653
     20 C16        -7.6401   -6.8859    3.1031 C.2       1 <0>         0.5233
     21 O2         -7.5108   -5.8424    3.7063 O.2       1 <0>        -0.4981
     22 C17        -8.9569   -7.6156    3.1633 C.3       1 <0>        -0.1344
     23 C18        -9.1441   -8.4260    1.8817 C.3       1 <0>        -0.0690
     24 C19       -10.4291   -9.2611    1.9664 C.3       1 <0>        -0.1160
     25 C20       -11.3343   -8.7893    0.8083 C.3       1 <0>        -0.1271
     26 C21       -10.3488   -8.1812   -0.2209 C.3       1 <0>        -0.1182
     27 C22        -9.3023   -7.4777    0.6800 C.3       1 <0>        -0.1196
     28 C23        -7.9364   -9.3376    1.6701 C.3       1 <0>        -0.1333
     29 C24        -6.6794   -8.5072    1.6899 C.2       1 <0>         0.5232
     30 O3         -5.7121   -8.8778    1.0603 O.2       1 <0>        -0.4970
     31 H1         -2.1670    3.8904    0.0334 H         1 <0>         0.1015
     32 H2         -0.6169    3.8328   -0.8724 H         1 <0>         0.0547
     33 H3         -0.6084    3.8230    0.9239 H         1 <0>         0.0547
     34 H4          1.1633    3.1743    0.0076 H         1 <0>         0.1310
     35 H5          3.3085    1.9682   -0.0198 H         1 <0>         0.1259
     36 H6          3.3435   -0.4913   -0.0325 H         1 <0>         0.1243
     37 H7          1.2330   -1.7573   -0.0195 H         1 <0>         0.1266
     38 H8         -0.5252   -2.2686    1.2746 H         1 <0>         0.0461
     39 H9         -1.2550   -0.8575    2.1129 H         1 <0>         0.0800
     40 H10        -2.7748   -2.8443    2.1475 H         1 <0>         0.0846
     41 H11        -3.4910   -1.4736    1.2337 H         1 <0>         0.0445
     42 H12        -2.7426   -2.9421   -2.0528 H         1 <0>         0.0818
     43 H13        -3.4725   -1.5309   -1.2146 H         1 <0>         0.0445
     44 H14        -1.2221   -0.9545   -2.0867 H         1 <0>         0.0805
     45 H15        -0.5060   -2.3251   -1.1729 H         1 <0>         0.0466
     46 H16        -4.9019   -3.1348    0.1820 H         1 <0>         0.0352
     47 H17        -4.1681   -4.3732   -0.8924 H         1 <0>         0.0755
     48 H18        -3.2067   -5.5264    1.0936 H         1 <0>         0.0754
     49 H19        -3.9406   -4.2880    2.1680 H         1 <0>         0.0665
     50 H20        -6.2051   -4.9190    1.3484 H         1 <0>         0.0663
     51 H21        -5.4712   -6.1574    0.2740 H         1 <0>         0.0681
     52 H22        -4.5099   -7.3106    2.2601 H         1 <0>         0.0969
     53 H23        -5.2437   -6.0722    3.3345 H         1 <0>         0.0959
     54 H24        -8.9619   -8.2920    4.0308 H         1 <0>         0.1128
     55 H25        -9.7755   -6.8874    3.2614 H         1 <0>         0.1167
     56 H26       -10.1808  -10.3276    1.8623 H         1 <0>         0.0742
     57 H27       -10.9137   -9.0907    2.9391 H         1 <0>         0.0740
     58 H28       -11.8818   -9.6501    0.3968 H         1 <0>         0.0693
     59 H29       -12.0512   -8.0441    1.1834 H         1 <0>         0.0681
     60 H30        -9.9118   -8.9862   -0.8300 H         1 <0>         0.0710
     61 H31       -10.8876   -7.4787   -0.8737 H         1 <0>         0.0705
     62 H32        -9.6523   -6.4958    1.0313 H         1 <0>         0.0749
     63 H33        -8.3324   -7.3617    0.1742 H         1 <0>         0.0648
     64 H34        -7.8968  -10.0865    2.4748 H         1 <0>         0.1127
     65 H35        -8.0271   -9.8470    0.6994 H         1 <0>         0.1168
@<TRIPOS>BOND
     1    1    2 1
     2    1   31 1
     3    1   32 1
     4    1   33 1
     5    2    3 1
     6    3    8 ar
     7    3    4 ar
     8    4    5 ar
     9    4   34 1
    10    5    6 ar
    11    5   35 1
    12    6    7 ar
    13    6   36 1
    14    7    8 ar
    15    7   37 1
    16    8    9 1
    17    9   14 1
    18    9   10 1
    19   10   11 1
    20   10   38 1
    21   10   39 1
    22   11   12 1
    23   11   40 1
    24   11   41 1
    25   12   13 1
    26   12   15 1
    27   13   14 1
    28   13   42 1
    29   13   43 1
    30   14   44 1
    31   14   45 1
    32   15   16 1
    33   15   46 1
    34   15   47 1
    35   16   17 1
    36   16   48 1
    37   16   49 1
    38   17   18 1
    39   17   50 1
    40   17   51 1
    41   18   19 1
    42   18   52 1
    43   18   53 1
    44   19   29 am
    45   19   20 am
    46   20   21 2
    47   20   22 1
    48   22   23 1
    49   22   54 1
    50   22   55 1
    51   23   27 1
    52   23   24 1
    53   23   28 1
    54   24   25 1
    55   24   56 1
    56   24   57 1
    57   25   26 1
    58   25   58 1
    59   25   59 1
    60   26   27 1
    61   26   60 1
    62   26   61 1
    63   27   62 1
    64   27   63 1
    65   28   29 1
    66   28   64 1
    67   28   65 1
    68   29   30 2
@<TRIPOS>MOLECULE
ZINC00586739
   54    56     0     0     0
SMALL
USER_CHARGES
N-(1-benzyl-2-methyl-pyrrolidin-3-yl)-5-chloro-2-methoxy-4-methylamino-benzamide
@<TRIPOS>ATOM
      1 C1         -1.1218   -0.5578    0.8801 C.3       1 <0>        -0.1746
      2 C2          0.0021   -0.0041    0.0020 C.3       1 <0>         0.0172
      3 H1         -0.0902   -0.3799   -1.0170 H         1 <0>         0.1554
      4 C3         -0.0189    1.5396    0.0105 C.3       1 <0>         0.1337
      5 H2         -0.5264    1.9162   -0.8776 H         1 <0>         0.1365
      6 C4          1.4651    1.9606   -0.0014 C.3       1 <0>        -0.1609
      7 C5          2.2578    0.6360   -0.0161 C.3       1 <0>        -0.0038
      8 C6          1.7116   -1.7284    0.1847 C.3       1 <0>         0.0546
      9 C7          3.1499   -1.9708    0.5633 C.ar      1 <0>        -0.1594
     10 C8          4.1591   -1.6869   -0.3377 C.ar      1 <0>        -0.0940
     11 C9          5.4788   -1.9042    0.0115 C.ar      1 <0>        -0.1143
     12 C10         5.7887   -2.4162    1.2576 C.ar      1 <0>        -0.0839
     13 C11         4.7792   -2.7051    2.1567 C.ar      1 <0>        -0.1141
     14 C12         3.4598   -2.4824    1.8096 C.ar      1 <0>        -0.0930
     15 N1         -0.6780    2.0328    1.2223 N.am      1 <0>        -0.7419
     16 C13        -1.2543    3.2512    1.2275 C.2       1 <0>         0.5789
     17 O1         -1.2271    3.9411    0.2262 O.2       1 <0>        -0.5041
     18 C14        -1.9167    3.7469    2.4453 C.ar      1 <0>        -0.2409
     19 C15        -1.9494    2.9551    3.5985 C.ar      1 <0>         0.0092
     20 C16        -2.5635    3.4155    4.7278 C.ar      1 <0>        -0.1566
     21 C17        -3.1615    4.6754    4.7406 C.ar      1 <0>         0.3002
     22 C18        -3.1366    5.4728    3.6036 C.ar      1 <0>        -0.2956
     23 C19        -2.5125    5.0175    2.4552 C.ar      1 <0>         0.2497
     24 O2         -2.4810    5.7940    1.3430 O.3       1 <0>        -0.2767
     25 C20        -3.1083    7.0751    1.4281 C.3       1 <0>         0.0175
     26 N2         -3.7846    5.1353    5.8964 N.pl3     1 <0>        -0.7257
     27 C21        -4.4135    6.4583    5.9126 C.3       1 <0>         0.0795
     28 Cl1        -2.6006    2.4273    6.1547 Cl        1 <0>        -0.0614
     29 H3         -2.0835   -0.2139    0.4993 H         1 <0>         0.1119
     30 H4         -1.0929   -1.6473    0.8632 H         1 <0>         0.0883
     31 H5         -0.9898   -0.2067    1.9036 H         1 <0>         0.0765
     32 H6          1.6860    2.5439   -0.8953 H         1 <0>         0.1189
     33 H7          1.7031    2.5343    0.8943 H         1 <0>         0.1042
     34 H8          3.1556    0.7234    0.5959 H         1 <0>         0.1367
     35 H9          2.5186    0.3603   -1.0379 H         1 <0>         0.1332
     36 H10         1.0739   -2.4448    0.7026 H         1 <0>         0.1369
     37 H11         1.5940   -1.8495   -0.8922 H         1 <0>         0.1333
     38 H12         3.9167   -1.2914   -1.3131 H         1 <0>         0.1300
     39 H13         6.2676   -1.6783   -0.6908 H         1 <0>         0.1358
     40 H14         6.8195   -2.5902    1.5288 H         1 <0>         0.1353
     41 H15         5.0213   -3.1051    3.1303 H         1 <0>         0.1355
     42 H16         2.6711   -2.7084    2.5119 H         1 <0>         0.1304
     43 H17        -0.6997    1.4826    2.0208 H         1 <0>         0.3972
     44 H18        -1.4886    1.9784    3.5953 H         1 <0>         0.1335
     45 H19        -3.6003    6.4481    3.6168 H         1 <0>         0.1475
     46 H20        -3.0111    7.5914    0.4731 H         1 <0>         0.1088
     47 H21        -4.1643    6.9475    1.6664 H         1 <0>         0.0611
     48 H22        -2.6280    7.6636    2.2099 H         1 <0>         0.0608
     49 H23        -3.8027    4.5799    6.6914 H         1 <0>         0.4107
     50 H24        -3.6639    7.2196    5.6968 H         1 <0>         0.0632
     51 H25        -5.1984    6.4968    5.1571 H         1 <0>         0.0633
     52 H26        -4.8463    6.6429    6.8958 H         1 <0>         0.0859
     53 N3          1.3145   -0.3330    0.5533 N.4       1 <0>        -0.3946
     54 H27         1.2965   -0.2468    1.5763 H         1 <0>         0.4240
@<TRIPOS>BOND
     1    1    2 1
     2    1   29 1
     3    1   30 1
     4    1   31 1
     5    2    3 1
     6    2    4 1
     7    2   53 1
     8    4    5 1
     9    4    6 1
    10    4   15 1
    11    6    7 1
    12    6   32 1
    13    6   33 1
    14    7   34 1
    15    7   35 1
    16    7   53 1
    17    8    9 1
    18    8   36 1
    19    8   37 1
    20    8   53 1
    21    9   14 ar
    22    9   10 ar
    23   10   11 ar
    24   10   38 1
    25   11   12 ar
    26   11   39 1
    27   12   13 ar
    28   12   40 1
    29   13   14 ar
    30   13   41 1
    31   14   42 1
    32   15   16 am
    33   15   43 1
    34   16   17 2
    35   16   18 1
    36   18   23 ar
    37   18   19 ar
    38   19   20 ar
    39   19   44 1
    40   20   21 ar
    41   20   28 1
    42   21   22 ar
    43   21   26 1
    44   22   23 ar
    45   22   45 1
    46   23   24 1
    47   24   25 1
    48   25   46 1
    49   25   47 1
    50   25   48 1
    51   26   27 1
    52   26   49 1
    53   27   50 1
    54   27   51 1
    55   27   52 1
    56   53   54 1
@<TRIPOS>MOLECULE
ZINC27653862
   40    43     0     0     0
SMALL
USER_CHARGES
2-chloroethylBLAHdiol
@<TRIPOS>ATOM
      1 C1          1.2256    3.2277   -0.2317 C.ar      1 <0>        -0.1198
      2 C2          0.0704    3.9587   -0.0395 C.ar      1 <0>        -0.1191
      3 C3         -1.1729    3.3386   -0.0374 C.ar      1 <0>        -0.0669
      4 C4         -1.2535    1.9747   -0.2171 C.ar      1 <0>        -0.0646
      5 C5         -0.0856    1.2303   -0.3989 C.ar      1 <0>        -0.0336
      6 C6          1.1529    1.8627   -0.4206 C.ar      1 <0>        -0.1036
      7 C7         -0.1805   -0.2358   -0.5951 C.ar      1 <0>        -0.0461
      8 C8         -1.3557   -0.8932   -0.2313 C.ar      1 <0>        -0.0738
      9 C9         -1.4710   -2.2537   -0.4257 C.ar      1 <0>        -0.1098
     10 C10        -0.4134   -2.9736   -0.9543 C.ar      1 <0>        -0.1174
     11 C11         0.7705   -2.3353   -1.2879 C.ar      1 <0>         0.0671
     12 C12         0.8939   -0.9615   -1.1048 C.ar      1 <0>         0.0803
     13 O1          2.0560   -0.3312   -1.4211 O.3       1 <0>        -0.4840
     14 O2          1.8108   -3.0509   -1.7932 O.3       1 <0>        -0.4965
     15 C13        -2.4797   -0.1136    0.3954 C.3       1 <0>        -0.0701
     16 C14        -2.5864    1.2738   -0.2344 C.3       1 <0>         0.1253
     17 H1         -2.9306    1.1938   -1.2761 H         1 <0>         0.0580
     18 N1         -3.5602    2.0686    0.5282 N.3       1 <0>        -0.5193
     19 C15        -3.6825    3.4166   -0.0297 C.3       1 <0>         0.0460
     20 C16        -2.3912    4.1965    0.1530 C.3       1 <0>        -0.0786
     21 C17        -4.8662    1.3977    0.5748 C.3       1 <0>         0.0403
     22 C18        -5.4474    1.3143   -0.8381 C.3       1 <0>        -0.0784
     23 Cl1        -7.0612    0.5124   -0.7777 Cl        1 <0>        -0.1740
     24 H2          2.1850    3.7237   -0.2350 H         1 <0>         0.1239
     25 H3          0.1339    5.0262    0.1115 H         1 <0>         0.1216
     26 H4          2.0529    1.2884   -0.5837 H         1 <0>         0.1488
     27 H5         -2.3889   -2.7590   -0.1640 H         1 <0>         0.1344
     28 H6         -0.5116   -4.0381   -1.1078 H         1 <0>         0.1339
     29 H7          2.9023   -0.9073   -1.8233 H         1 <0>         0.4076
     30 H8          2.7503   -2.5436   -2.0578 H         1 <0>         0.4150
     31 H9         -3.4280   -0.6493    0.2413 H         1 <0>         0.0845
     32 H10        -2.2924   -0.0026    1.4736 H         1 <0>         0.0954
     33 H11        -3.9068    3.3496   -1.1045 H         1 <0>         0.0385
     34 H12        -4.4955    3.9528    0.4818 H         1 <0>         0.0883
     35 H13        -2.3887    4.6164    1.1697 H         1 <0>         0.0851
     36 H14        -2.3817    5.0151   -0.5817 H         1 <0>         0.0819
     37 H15        -4.7428    0.3829    0.9810 H         1 <0>         0.0966
     38 H16        -5.5497    1.9700    1.2193 H         1 <0>         0.0951
     39 H17        -5.5570    2.3284   -1.2499 H         1 <0>         0.0951
     40 H18        -4.7711    0.7295   -1.4789 H         1 <0>         0.0930
@<TRIPOS>BOND
     1    1    6 ar
     2    1    2 ar
     3    1   24 1
     4    2    3 ar
     5    2   25 1
     6    3   20 1
     7    3    4 ar
     8    4   16 1
     9    4    5 ar
    10    5    6 ar
    11    5    7 1
    12    6   26 1
    13    7   12 ar
    14    7    8 ar
    15    8    9 ar
    16    8   15 1
    17    9   10 ar
    18    9   27 1
    19   10   11 ar
    20   10   28 1
    21   11   12 ar
    22   11   14 1
    23   12   13 1
    24   13   29 1
    25   14   30 1
    26   15   16 1
    27   15   31 1
    28   15   32 1
    29   16   17 1
    30   16   18 1
    31   18   19 1
    32   18   21 1
    33   19   20 1
    34   19   33 1
    35   19   34 1
    36   20   35 1
    37   20   36 1
    38   21   22 1
    39   21   37 1
    40   21   38 1
    41   22   23 1
    42   22   39 1
    43   22   40 1
@<TRIPOS>MOLECULE
ZINC28770699
   34    35     0     0     0
SMALL
USER_CHARGES
6-chloro-2-(4-methylpiperazin-1-yl)-5-methylsulfanyl-pyrimidin-4-amine
@<TRIPOS>ATOM
      1 C1          0.6329   -4.0517    1.0341 C.3       1 <0>        -0.0450
      2 N1          0.6130   -2.5829    1.0422 N.4       1 <0>        -0.4061
      3 C2          1.3581   -2.0398   -0.1022 C.3       1 <0>        -0.0021
      4 C3          1.3810   -0.5120   -0.0139 C.3       1 <0>         0.0381
      5 N2          0.0021   -0.0041    0.0020 N.pl3     1 <0>        -0.4609
      6 C4         -0.7430   -0.5472    1.1464 C.3       1 <0>         0.0358
      7 C5         -0.7659   -2.0750    1.0581 C.3       1 <0>         0.0013
      8 C6         -0.0167    1.3826    0.0096 C.ar      1 <0>         0.5597
      9 N3         -1.1829    2.0111    0.0187 N.ar      1 <0>        -0.5883
     10 C7         -1.2385    3.3384    0.0309 C.ar      1 <0>         0.5183
     11 C8         -0.0426    4.0680    0.0234 C.ar      1 <0>        -0.3086
     12 C9          1.1560    3.3688    0.0087 C.ar      1 <0>         0.3138
     13 N4          1.1309    2.0420    0.0022 N.ar      1 <0>        -0.5956
     14 Cl1         2.6694    4.2191   -0.0006 Cl        1 <0>         0.0231
     15 S1         -0.0599    5.8299    0.0330 S.3       1 <0>        -0.0878
     16 C10        -0.0803    6.2781   -1.7246 C.3       1 <0>        -0.1493
     17 N5         -2.4628    3.9923    0.0457 N.pl3     1 <0>        -0.8308
     18 H1          1.6748   -4.4042    1.0223 H         1 <0>         0.1264
     19 H2          0.1108   -4.4205    0.1389 H         1 <0>         0.1209
     20 H3          0.1280   -4.4302    1.9351 H         1 <0>         0.1259
     21 H4          2.3885   -2.4246   -0.0848 H         1 <0>         0.1454
     22 H5          0.8679   -2.3467   -1.0379 H         1 <0>         0.1374
     23 H6          1.8963   -0.2057    0.9084 H         1 <0>         0.0833
     24 H7          1.9137   -0.1023   -0.8848 H         1 <0>         0.1371
     25 H8         -0.2528   -0.2403    2.0821 H         1 <0>         0.0731
     26 H9         -1.7734   -0.1624    1.1290 H         1 <0>         0.1413
     27 H10        -1.2805   -2.3823    0.1357 H         1 <0>         0.1400
     28 H11        -1.2979   -2.4856    1.9289 H         1 <0>         0.1450
     29 H12        -0.0920    7.3736   -1.8235 H         1 <0>         0.1163
     30 H13        -0.9787    5.8574   -2.1999 H         1 <0>         0.0791
     31 H14         0.8174    5.8751   -2.2162 H         1 <0>         0.0819
     32 H15        -2.4991    5.0917    0.0557 H         1 <0>         0.4502
     33 H16        -3.3967    3.4111    0.0474 H         1 <0>         0.4378
     34 H17         1.1104   -2.2444    1.9631 H         1 <0>         0.4431
@<TRIPOS>BOND
     1    1    2 1
     2    1   18 1
     3    1   19 1
     4    1   20 1
     5    2    7 1
     6    2    3 1
     7    2   34 1
     8    3    4 1
     9    3   21 1
    10    3   22 1
    11    4    5 1
    12    4   23 1
    13    4   24 1
    14    5    6 1
    15    5    8 1
    16    6    7 1
    17    6   25 1
    18    6   26 1
    19    7   27 1
    20    7   28 1
    21    8   13 ar
    22    8    9 ar
    23    9   10 ar
    24   10   11 ar
    25   10   17 1
    26   11   12 ar
    27   11   15 1
    28   12   13 ar
    29   12   14 1
    30   15   16 1
    31   16   29 1
    32   16   30 1
    33   16   31 1
    34   17   32 1
    35   17   33 1
@<TRIPOS>MOLECULE
ZINC28770699
   33    34     0     0     0
SMALL
USER_CHARGES
6-chloro-2-(4-methylpiperazin-1-yl)-5-methylsulfanyl-pyrimidin-4-amine
@<TRIPOS>ATOM
      1 C1          0.6329   -4.0517    1.0341 C.3       1 <0>         0.0226
      2 N1          0.6130   -2.5829    1.0422 N.3       1 <0>        -0.5467
      3 C2          1.3581   -2.0398   -0.1022 C.3       1 <0>         0.0511
      4 C3          1.3810   -0.5120   -0.0139 C.3       1 <0>         0.0688
      5 N2          0.0021   -0.0041    0.0020 N.pl3     1 <0>        -0.4580
      6 C4         -0.7430   -0.5472    1.1464 C.3       1 <0>         0.0688
      7 C5         -0.7659   -2.0750    1.0581 C.3       1 <0>         0.0538
      8 C6         -0.0167    1.3826    0.0096 C.ar      1 <0>         0.5740
      9 N3         -1.1829    2.0111    0.0187 N.ar      1 <0>        -0.5921
     10 C7         -1.2385    3.3384    0.0309 C.ar      1 <0>         0.5166
     11 C8         -0.0426    4.0680    0.0234 C.ar      1 <0>        -0.3239
     12 C9          1.1560    3.3688    0.0087 C.ar      1 <0>         0.3176
     13 N4          1.1309    2.0420    0.0022 N.ar      1 <0>        -0.5917
     14 Cl1         2.6694    4.2191   -0.0006 Cl        1 <0>         0.0069
     15 S1         -0.0599    5.8299    0.0330 S.3       1 <0>        -0.0957
     16 C10        -0.0803    6.2781   -1.7246 C.3       1 <0>        -0.1491
     17 N5         -2.4628    3.9923    0.0457 N.pl3     1 <0>        -0.8391
     18 H1          1.6748   -4.4042    1.0223 H         1 <0>         0.0720
     19 H2          0.1108   -4.4205    0.1389 H         1 <0>         0.0287
     20 H3          0.1280   -4.4302    1.9351 H         1 <0>         0.0718
     21 H4          2.3885   -2.4246   -0.0848 H         1 <0>         0.0912
     22 H5          0.8679   -2.3467   -1.0379 H         1 <0>         0.0457
     23 H6          1.8963   -0.2057    0.9084 H         1 <0>         0.0682
     24 H7          1.9137   -0.1023   -0.8848 H         1 <0>         0.0963
     25 H8         -0.2528   -0.2403    2.0821 H         1 <0>         0.0575
     26 H9         -1.7734   -0.1624    1.1290 H         1 <0>         0.1018
     27 H10        -1.2805   -2.3823    0.1357 H         1 <0>         0.0487
     28 H11        -1.2979   -2.4856    1.9289 H         1 <0>         0.0910
     29 H12        -0.0920    7.3736   -1.8235 H         1 <0>         0.1100
     30 H13        -0.9787    5.8574   -2.1999 H         1 <0>         0.0764
     31 H14         0.8174    5.8751   -2.2162 H         1 <0>         0.0794
     32 H15        -2.4991    5.0917    0.0557 H         1 <0>         0.4435
     33 H16        -3.3967    3.4111    0.0474 H         1 <0>         0.4338
@<TRIPOS>BOND
     1    1    2 1
     2    1   18 1
     3    1   19 1
     4    1   20 1
     5    2    7 1
     6    2    3 1
     7    3    4 1
     8    3   21 1
     9    3   22 1
    10    4    5 1
    11    4   23 1
    12    4   24 1
    13    5    6 1
    14    5    8 1
    15    6    7 1
    16    6   25 1
    17    6   26 1
    18    7   27 1
    19    7   28 1
    20    8   13 ar
    21    8    9 ar
    22    9   10 ar
    23   10   11 ar
    24   10   17 1
    25   11   12 ar
    26   11   15 1
    27   12   13 ar
    28   12   14 1
    29   15   16 1
    30   16   29 1
    31   16   30 1
    32   16   31 1
    33   17   32 1
    34   17   33 1
@<TRIPOS>MOLECULE
ZINC03870310
   44    45     0     0     0
SMALL
USER_CHARGES

@<TRIPOS>ATOM
      1 C1         -0.1561    1.5042   -0.0060 C.3       1 <0>        -0.1561
      2 C2         -0.1125   -0.0251   -0.0290 C.3       1 <0>        -0.1479
      3 C3          0.6430   -0.4951   -1.2737 C.3       1 <0>        -0.0224
      4 N1          0.8041   -1.9545   -1.2267 N.4       1 <0>        -0.3817
      5 C4         -0.5158   -2.5953   -1.2980 C.3       1 <0>        -0.0190
      6 C5         -1.1525   -2.3019   -2.6580 C.3       1 <0>        -0.1511
      7 C6         -2.5799   -2.8521   -2.6822 C.3       1 <0>        -0.1558
      8 C7          1.6236   -2.3935   -2.3641 C.3       1 <0>         0.0204
      9 H1          1.1119   -2.1588   -3.2975 H         1 <0>         0.1446
     10 C8          1.8651   -3.9048   -2.2736 C.3       1 <0>        -0.1386
     11 C9          2.5070   -4.3692   -3.5793 C.3       1 <0>        -0.0752
     12 C10         3.7030   -3.5165   -3.9141 C.ar      1 <0>        -0.0939
     13 C11         4.6148   -4.0165   -4.8358 C.ar      1 <0>        -0.0950
     14 C12         5.7275   -3.2846   -5.1906 C.ar      1 <0>        -0.1324
     15 C13         5.9392   -2.0362   -4.6230 C.ar      1 <0>         0.1179
     16 C14         5.0320   -1.5393   -3.7031 C.ar      1 <0>        -0.1404
     17 C15         3.9141   -2.2804   -3.3449 C.ar      1 <0>        -0.0729
     18 C16         2.9763   -1.6853   -2.3270 C.3       1 <0>        -0.0926
     19 O1          7.0318   -1.3053   -4.9681 O.3       1 <0>        -0.4960
     20 H2          0.8606    1.8964    0.0163 H         1 <0>         0.0668
     21 H3         -0.6658    1.8665   -0.8988 H         1 <0>         0.0668
     22 H4         -0.6943    1.8390    0.8807 H         1 <0>         0.0775
     23 H5          0.3972   -0.3874    0.8638 H         1 <0>         0.0849
     24 H6         -1.1292   -0.4173   -0.0514 H         1 <0>         0.0866
     25 H7          0.0802   -0.2202   -2.1657 H         1 <0>         0.1321
     26 H8          1.6245   -0.0220   -1.3032 H         1 <0>         0.1323
     27 H9         -0.4039   -3.6724   -1.1740 H         1 <0>         0.1324
     28 H10        -1.1536   -2.2028   -0.5060 H         1 <0>         0.1338
     29 H11        -1.1754   -1.2248   -2.8236 H         1 <0>         0.0850
     30 H12        -0.5662   -2.7780   -3.4439 H         1 <0>         0.0872
     31 H13        -2.5570   -3.9292   -2.5165 H         1 <0>         0.0675
     32 H14        -3.1662   -2.3760   -1.8963 H         1 <0>         0.0665
     33 H15        -3.0335   -2.6430   -3.6511 H         1 <0>         0.0768
     34 H16         2.5325   -4.1206   -1.4393 H         1 <0>         0.0930
     35 H17         0.9157   -4.4202   -2.1276 H         1 <0>         0.0937
     36 H18         2.8234   -5.4071   -3.4750 H         1 <0>         0.0979
     37 H19         1.7765   -4.2960   -4.3849 H         1 <0>         0.0882
     38 H20         4.4502   -4.9880   -5.2780 H         1 <0>         0.1335
     39 H21         6.4317   -3.6811   -5.9070 H         1 <0>         0.1372
     40 H22         5.1953   -0.5679   -3.2603 H         1 <0>         0.1318
     41 H23         2.8338   -0.6268   -2.5443 H         1 <0>         0.0988
     42 H24         3.4108   -1.7923   -1.3331 H         1 <0>         0.0969
     43 H25         6.8898   -0.7182   -5.7232 H         1 <0>         0.3983
     44 H26         1.2584   -2.2151   -0.3644 H         1 <0>         0.4226
@<TRIPOS>BOND
     1    1    2 1
     2    1   20 1
     3    1   21 1
     4    1   22 1
     5    2    3 1
     6    2   23 1
     7    2   24 1
     8    3    4 1
     9    3   25 1
    10    3   26 1
    11    4    5 1
    12    4    8 1
    13    4   44 1
    14    5    6 1
    15    5   27 1
    16    5   28 1
    17    6    7 1
    18    6   29 1
    19    6   30 1
    20    7   31 1
    21    7   32 1
    22    7   33 1
    23    8    9 1
    24    8   18 1
    25    8   10 1
    26   10   11 1
    27   10   34 1
    28   10   35 1
    29   11   12 1
    30   11   36 1
    31   11   37 1
    32   12   17 ar
    33   12   13 ar
    34   13   14 ar
    35   13   38 1
    36   14   15 ar
    37   14   39 1
    38   15   16 ar
    39   15   19 1
    40   16   17 ar
    41   16   40 1
    42   17   18 1
    43   18   41 1
    44   18   42 1
    45   19   43 1
@<TRIPOS>MOLECULE
ZINC03870311
   44    45     0     0     0
SMALL
USER_CHARGES

@<TRIPOS>ATOM
      1 C1          0.1342    1.2265   -3.1156 C.3       1 <0>        -0.1556
      2 C2          0.1340   -0.2871   -2.8921 C.3       1 <0>        -0.1517
      3 C3          0.5848   -0.5916   -1.4621 C.3       1 <0>        -0.0192
      4 N1          0.5391   -2.0419   -1.2326 N.4       1 <0>        -0.3815
      5 C4         -0.8514   -2.5076   -1.3183 C.3       1 <0>        -0.0219
      6 C5         -1.6676   -1.8884   -0.1819 C.3       1 <0>        -0.1477
      7 C6         -3.0781   -2.4812   -0.1853 C.3       1 <0>        -0.1562
      8 C7          1.3479   -2.7246   -2.2513 C.3       1 <0>         0.0203
      9 H1          0.9555   -2.4993   -3.2430 H         1 <0>         0.1444
     10 C8          2.8044   -2.2559   -2.1537 C.3       1 <0>        -0.1388
     11 C9          3.5653   -2.7923   -3.3643 C.3       1 <0>        -0.0754
     12 C10         3.3451   -4.2751   -3.5139 C.ar      1 <0>        -0.0937
     13 C11         4.2391   -4.9839   -4.3073 C.ar      1 <0>        -0.0950
     14 C12         4.0913   -6.3420   -4.4903 C.ar      1 <0>        -0.1323
     15 C13         3.0395   -7.0081   -3.8775 C.ar      1 <0>         0.1179
     16 C14         2.1505   -6.3023   -3.0853 C.ar      1 <0>        -0.1403
     17 C15         2.3040   -4.9350   -2.8998 C.ar      1 <0>        -0.0729
     18 C16         1.3089   -4.2327   -2.0132 C.3       1 <0>        -0.0922
     19 O1          2.8828   -8.3464   -4.0545 O.3       1 <0>        -0.4962
     20 H2         -0.5506    1.6979   -2.4106 H         1 <0>         0.0667
     21 H3          1.1402    1.6164   -2.9610 H         1 <0>         0.0672
     22 H4         -0.1871    1.4434   -4.1343 H         1 <0>         0.0768
     23 H5         -0.8721   -0.6771   -3.0467 H         1 <0>         0.0856
     24 H6          0.8187   -0.7586   -3.5971 H         1 <0>         0.0869
     25 H7          1.6040   -0.2330   -1.3184 H         1 <0>         0.1327
     26 H8         -0.0793   -0.0911   -0.7574 H         1 <0>         0.1337
     27 H9         -1.2766   -2.2079   -2.2762 H         1 <0>         0.1321
     28 H10        -0.8766   -3.5940   -1.2336 H         1 <0>         0.1319
     29 H11        -1.1851   -2.1042    0.7714 H         1 <0>         0.0848
     30 H12        -1.7267   -0.8092   -0.3232 H         1 <0>         0.0866
     31 H13        -3.5606   -2.2654   -1.1386 H         1 <0>         0.0669
     32 H14        -3.0190   -3.5604   -0.0441 H         1 <0>         0.0668
     33 H15        -3.6596   -2.0401    0.6242 H         1 <0>         0.0775
     34 H16         2.8401   -1.1665   -2.1508 H         1 <0>         0.0942
     35 H17         3.2532   -2.6408   -1.2379 H         1 <0>         0.0928
     36 H18         3.2151   -2.2845   -4.2629 H         1 <0>         0.0884
     37 H19         4.6301   -2.5984   -3.2345 H         1 <0>         0.0978
     38 H20         5.0573   -4.4657   -4.7852 H         1 <0>         0.1335
     39 H21         4.7908   -6.8853   -5.1083 H         1 <0>         0.1372
     40 H22         1.3310   -6.8191   -2.6082 H         1 <0>         0.1318
     41 H23         1.5498   -4.4381   -0.9703 H         1 <0>         0.0967
     42 H24         0.3077   -4.6050   -2.2303 H         1 <0>         0.0988
     43 H25         3.3458   -8.8866   -3.3996 H         1 <0>         0.3985
     44 H26         0.9074   -2.2492   -0.3164 H         1 <0>         0.4223
@<TRIPOS>BOND
     1    1    2 1
     2    1   20 1
     3    1   21 1
     4    1   22 1
     5    2    3 1
     6    2   23 1
     7    2   24 1
     8    3    4 1
     9    3   25 1
    10    3   26 1
    11    4    5 1
    12    4    8 1
    13    4   44 1
    14    5    6 1
    15    5   27 1
    16    5   28 1
    17    6    7 1
    18    6   29 1
    19    6   30 1
    20    7   31 1
    21    7   32 1
    22    7   33 1
    23    8    9 1
    24    8   18 1
    25    8   10 1
    26   10   11 1
    27   10   34 1
    28   10   35 1
    29   11   12 1
    30   11   36 1
    31   11   37 1
    32   12   17 ar
    33   12   13 ar
    34   13   14 ar
    35   13   38 1
    36   14   15 ar
    37   14   39 1
    38   15   16 ar
    39   15   19 1
    40   16   17 ar
    41   16   40 1
    42   17   18 1
    43   18   41 1
    44   18   42 1
    45   19   43 1
