@<TRIPOS>MOLECULE
ZINC12629325
   39    41     0     0     0
SMALL
USER_CHARGES

@<TRIPOS>ATOM
      1 C1         -0.0088    1.3561   -0.0239 C.ar      1 <0>        -0.1189
      2 C2          1.1738    2.0718   -0.0177 C.ar      1 <0>        -0.1201
      3 C3          2.3849    1.4055   -0.0241 C.ar      1 <0>        -0.0977
      4 C4          2.4135    0.0235   -0.0361 C.ar      1 <0>        -0.0801
      5 C5          1.2308   -0.6922   -0.0413 C.ar      1 <0>        -0.1162
      6 C6          0.0197   -0.0259   -0.0364 C.ar      1 <0>        -0.1203
      7 C7          3.7338   -0.7029   -0.0440 C.3       1 <0>         0.0938
      8 N1          4.1645   -0.9509    1.3384 N.3       1 <0>        -0.5305
      9 C8          3.2504   -1.8800    2.0159 C.3       1 <0>         0.0360
     10 C9          3.6265   -1.9712    3.4986 C.3       1 <0>         0.1272
     11 N2          5.0523   -2.3180    3.5985 N.pl3     1 <0>        -0.6315
     12 C10         6.0191   -1.5142    2.8352 C.3       1 <0>         0.1260
     13 C11         5.5488   -1.4410    1.3786 C.3       1 <0>         0.0396
     14 C12         5.4771   -3.3821    4.3973 C.ar      1 <0>         0.2203
     15 C13         6.8119   -3.7666    4.3925 C.ar      1 <0>        -0.2021
     16 C14         7.2286   -4.8189    5.1839 C.ar      1 <0>        -0.0708
     17 C15         6.3187   -5.4898    5.9802 C.ar      1 <0>        -0.1818
     18 C16         4.9891   -5.1096    5.9875 C.ar      1 <0>        -0.0707
     19 C17         4.5668   -4.0545    5.2028 C.ar      1 <0>        -0.2016
     20 H1         -0.9551    1.8766   -0.0144 H         1 <0>         0.1215
     21 H2          1.1515    3.1515   -0.0083 H         1 <0>         0.1224
     22 H3          3.3089    1.9647   -0.0200 H         1 <0>         0.1222
     23 H4          1.2531   -1.7719   -0.0511 H         1 <0>         0.1174
     24 H5         -0.9043   -0.5851   -0.0409 H         1 <0>         0.1217
     25 H6          3.6225   -1.6533   -0.5659 H         1 <0>         0.0435
     26 H7          4.4805   -0.0938   -0.5534 H         1 <0>         0.0854
     27 H8          2.2270   -1.5167    1.9220 H         1 <0>         0.0908
     28 H9          3.3300   -2.8665    1.5592 H         1 <0>         0.0375
     29 H10         3.4487   -1.0102    3.9813 H         1 <0>         0.0692
     30 H11         3.0273   -2.7431    3.9816 H         1 <0>         0.0856
     31 H12         6.0713   -0.5092    3.2541 H         1 <0>         0.0702
     32 H13         7.0017   -1.9839    2.8796 H         1 <0>         0.0873
     33 H14         5.5963   -2.4336    0.9307 H         1 <0>         0.0392
     34 H15         6.1923   -0.7593    0.8224 H         1 <0>         0.0868
     35 H16         7.5230   -3.2435    3.7703 H         1 <0>         0.1209
     36 H17         8.2663   -5.1184    5.1806 H         1 <0>         0.1199
     37 H18         6.6471   -6.3128    6.5977 H         1 <0>         0.1174
     38 H19         4.2811   -5.6357    6.6105 H         1 <0>         0.1200
     39 H20         3.5291   -3.7552    5.2123 H         1 <0>         0.1206
@<TRIPOS>BOND
     1    1    6 ar
     2    1    2 ar
     3    1   20 1
     4    2    3 ar
     5    2   21 1
     6    3    4 ar
     7    3   22 1
     8    4    5 ar
     9    4    7 1
    10    5    6 ar
    11    5   23 1
    12    6   24 1
    13    7    8 1
    14    7   25 1
    15    7   26 1
    16    8   13 1
    17    8    9 1
    18    9   10 1
    19    9   27 1
    20    9   28 1
    21   10   11 1
    22   10   29 1
    23   10   30 1
    24   11   12 1
    25   11   14 1
    26   12   13 1
    27   12   31 1
    28   12   32 1
    29   13   33 1
    30   13   34 1
    31   14   19 ar
    32   14   15 ar
    33   15   16 ar
    34   15   35 1
    35   16   17 ar
    36   16   36 1
    37   17   18 ar
    38   17   37 1
    39   18   19 ar
    40   18   38 1
    41   19   39 1
@<TRIPOS>MOLECULE
ZINC26817456
   44    47     0     0     0
SMALL
USER_CHARGES

@<TRIPOS>ATOM
      1 C1         -0.0167    1.3793    0.0096 C.ar      1 <0>        -0.1104
      2 C2          1.1684    2.0932    0.0021 C.ar      1 <0>        -0.1164
      3 C3          2.3774    1.4286   -0.0129 C.ar      1 <0>        -0.0775
      4 C4          2.4032    0.0335   -0.0206 C.ar      1 <0>        -0.0153
      5 C5          1.2044   -0.6805   -0.0130 C.ar      1 <0>        -0.1128
      6 C6          0.0021   -0.0041    0.0020 C.ar      1 <0>        -0.1159
      7 C7          3.6958   -0.6853   -0.0373 C.2       1 <0>         0.2504
      8 N1          3.8562   -2.0400   -0.0515 N.pl3     1 <0>        -0.5627
      9 H1          3.1497   -2.7046   -0.0529 H         1 <0>         0.4158
     10 C8          5.2032   -2.2835   -0.0640 C.2       1 <0>        -0.0107
     11 C9          5.8213   -1.0849   -0.0571 C.2       1 <0>         0.0050
     12 N2          4.8862   -0.1280   -0.0465 N.2       1 <0>        -0.4710
     13 C10         5.8693   -3.6351   -0.0813 C.3       1 <0>         0.1310
     14 N3          5.9669   -4.1152   -1.4662 N.3       1 <0>        -0.5324
     15 C11         4.6346   -4.3670   -2.0312 C.3       1 <0>         0.0392
     16 C12         4.7688   -4.6895   -3.5233 C.3       1 <0>         0.1346
     17 N4          5.7287   -5.7931   -3.6782 N.pl3     1 <0>        -0.5853
     18 C13         7.0397   -5.6723   -3.0225 C.3       1 <0>         0.1321
     19 C14         6.8160   -5.3110   -1.5501 C.3       1 <0>         0.0417
     20 C15         5.4071   -6.9153   -4.4218 C.ar      1 <0>         0.5656
     21 N5          4.2188   -6.9870   -5.0033 N.ar      1 <0>        -0.5736
     22 C16         3.8801   -8.0451   -5.7211 C.ar      1 <0>         0.1938
     23 C17         4.7853   -9.0854   -5.8607 C.ar      1 <0>        -0.2954
     24 C18         6.0194   -8.9777   -5.2391 C.ar      1 <0>         0.1941
     25 N6          6.2969   -7.8899   -4.5396 N.ar      1 <0>        -0.5721
     26 H2         -0.9604    1.9041    0.0260 H         1 <0>         0.1265
     27 H3          1.1470    3.1729    0.0078 H         1 <0>         0.1301
     28 H4          3.3018    1.9870   -0.0191 H         1 <0>         0.1377
     29 H5          1.2178   -1.7604   -0.0193 H         1 <0>         0.1155
     30 H6         -0.9265   -0.5556    0.0079 H         1 <0>         0.1274
     31 H7          6.8893   -0.9246   -0.0630 H         1 <0>         0.1742
     32 H8          6.8686   -3.5532    0.3462 H         1 <0>         0.1062
     33 H9          5.2793   -4.3385    0.5064 H         1 <0>         0.0435
     34 H10         4.1747   -5.2107   -1.5167 H         1 <0>         0.0378
     35 H11         4.0126   -3.4808   -1.9052 H         1 <0>         0.0817
     36 H12         3.7994   -4.9888   -3.9219 H         1 <0>         0.1014
     37 H13         5.1318   -3.8109   -4.0566 H         1 <0>         0.0742
     38 H14         7.5717   -6.6212   -3.0899 H         1 <0>         0.1038
     39 H15         7.6209   -4.8881   -3.5076 H         1 <0>         0.0755
     40 H16         7.7762   -5.1094   -1.0752 H         1 <0>         0.0946
     41 H17         6.3258   -6.1416   -1.0423 H         1 <0>         0.0399
     42 H18         2.9098   -8.0980   -6.1925 H         1 <0>         0.1668
     43 H19         4.5343   -9.9611   -6.4409 H         1 <0>         0.1443
     44 H20         6.7472   -9.7708   -5.3279 H         1 <0>         0.1674
@<TRIPOS>BOND
     1    1    6 ar
     2    1    2 ar
     3    1   26 1
     4    2    3 ar
     5    2   27 1
     6    3    4 ar
     7    3   28 1
     8    4    5 ar
     9    4    7 1
    10    5    6 ar
    11    5   29 1
    12    6   30 1
    13    7   12 2
    14    7    8 1
    15    8    9 1
    16    8   10 1
    17   10   11 2
    18   10   13 1
    19   11   12 1
    20   11   31 1
    21   13   14 1
    22   13   32 1
    23   13   33 1
    24   14   19 1
    25   14   15 1
    26   15   16 1
    27   15   34 1
    28   15   35 1
    29   16   17 1
    30   16   36 1
    31   16   37 1
    32   17   18 1
    33   17   20 1
    34   18   19 1
    35   18   38 1
    36   18   39 1
    37   19   40 1
    38   19   41 1
    39   20   25 ar
    40   20   21 ar
    41   21   22 ar
    42   22   23 ar
    43   22   42 1
    44   23   24 ar
    45   23   43 1
    46   24   25 ar
    47   24   44 1
@<TRIPOS>MOLECULE
ZINC26817456
   44    47     0     0     0
SMALL
USER_CHARGES
2-[4-[(2-phenyl-1H-imidazol-4-yl)methyl]piperazin-1-yl]pyrimidine
@<TRIPOS>ATOM
      1 C1         -4.3763    8.2024    1.5859 C.ar      1 <0>        -0.1117
      2 C2         -4.6249    6.8506    1.7438 C.ar      1 <0>        -0.1170
      3 C3         -3.8082    5.9202    1.1346 C.ar      1 <0>        -0.0786
      4 C4         -2.7300    6.3453    0.3576 C.ar      1 <0>        -0.0130
      5 C5         -2.4816    7.7101    0.2066 C.ar      1 <0>        -0.1116
      6 C6         -3.3089    8.6304    0.8168 C.ar      1 <0>        -0.1173
      7 C7         -1.8505    5.3534   -0.2984 C.2       1 <0>         0.2588
      8 N1         -0.7660    5.6379   -1.0756 N.pl3     1 <0>        -0.5674
      9 C8         -0.2359    4.4413   -1.4765 C.2       1 <0>        -0.0459
     10 C9         -1.0054    3.4702   -0.9440 C.2       1 <0>         0.0079
     11 N2         -1.9803    4.0470   -0.2322 N.2       1 <0>        -0.4559
     12 C10        -0.8000    1.9874   -1.1184 C.3       1 <0>         0.1374
     13 N3         -0.0179    1.4653    0.0101 N.3       1 <0>        -0.5327
     14 C11         1.3479    2.0078   -0.0000 C.3       1 <0>         0.0554
     15 C12         2.1033    1.5037    1.2320 C.3       1 <0>         0.0705
     16 N4          2.1232    0.0343    1.2239 N.pl3     1 <0>        -0.4613
     17 C13         0.7575   -0.5081    1.2340 C.3       1 <0>         0.0716
     18 C14         0.0021   -0.0041    0.0020 C.3       1 <0>         0.0540
     19 C15         2.8602   -0.4576    2.2871 C.ar      1 <0>         0.4956
     20 N5          2.2881   -1.2982    3.1366 N.ar      1 <0>        -0.5499
     21 C16         2.9660   -1.7911    4.1600 C.ar      1 <0>         0.1902
     22 C17         4.2856   -1.4091    4.3438 C.ar      1 <0>        -0.2548
     23 C18         4.8512   -0.5238    3.4396 C.ar      1 <0>         0.1889
     24 N6          4.1193   -0.0725    2.4344 N.ar      1 <0>        -0.5309
     25 H1         -5.0185    8.9267    2.0648 H         1 <0>         0.1258
     26 H2         -5.4597    6.5229    2.3455 H         1 <0>         0.1292
     27 H3         -4.0033    4.8653    1.2586 H         1 <0>         0.1370
     28 H4         -1.6460    8.0453   -0.3898 H         1 <0>         0.1174
     29 H5         -3.1202    9.6870    0.6974 H         1 <0>         0.1269
     30 H6          0.5491    4.2006   -2.0474 H         1 <0>         0.1662
     31 H7         -1.7771    1.4833   -1.1517 H         1 <0>         0.0919
     32 H8         -0.2587    1.8001   -2.0575 H         1 <0>         0.0504
     33 H9          1.8675    1.6760   -0.9110 H         1 <0>         0.0472
     34 H10         1.3061    3.1068    0.0186 H         1 <0>         0.0875
     35 H11         3.1347    1.8855    1.2113 H         1 <0>         0.0984
     36 H12         1.5989    1.8595    2.1424 H         1 <0>         0.0532
     37 H13         0.7993   -1.6071    1.2154 H         1 <0>         0.0941
     38 H14         0.2379   -0.1763    2.1450 H         1 <0>         0.0649
     39 H15        -1.0297   -0.3849    0.0221 H         1 <0>         0.0916
     40 H16         0.5062   -0.3589   -0.9090 H         1 <0>         0.0459
     41 H17         2.5244   -2.4277    4.7922 H         1 <0>         0.1530
     42 H18         4.8281   -1.7580    5.1080 H         1 <0>         0.1355
     43 H19         5.8017   -0.2340    3.5515 H         1 <0>         0.1544
     44 H20        -0.2999    6.5811   -1.3966 H         1 <0>         0.4476
@<TRIPOS>BOND
     1    1    6 ar
     2    1    2 ar
     3    1   25 1
     4    2    3 ar
     5    2   26 1
     6    3    4 ar
     7    3   27 1
     8    4    5 ar
     9    4    7 1
    10    5    6 ar
    11    5   28 1
    12    6   29 1
    13    7   11 2
    14    7    8 1
    15    8    9 1
    16    8   44 1
    17    9   10 2
    18    9   30 1
    19   10   11 1
    20   10   12 1
    21   12   13 1
    22   12   31 1
    23   12   32 1
    24   13   18 1
    25   13   14 1
    26   14   15 1
    27   14   33 1
    28   14   34 1
    29   15   16 1
    30   15   35 1
    31   15   36 1
    32   16   17 1
    33   16   19 1
    34   17   18 1
    35   17   37 1
    36   17   38 1
    37   18   39 1
    38   18   40 1
    39   19   24 ar
    40   19   20 ar
    41   20   21 ar
    42   21   22 ar
    43   21   41 1
    44   22   23 ar
    45   22   42 1
    46   23   24 ar
    47   23   43 1
@<TRIPOS>MOLECULE
ZINC26817456
   46    49     0     0     0
SMALL
USER_CHARGES
2-[4-[(2-phenyl-1H-imidazol-5-yl)methyl]piperazin-1-yl]pyrimidine
@<TRIPOS>ATOM
      1 C1          6.3079    0.9451   -0.0527 C.ar      1 <0>        -0.0491
      2 C2          5.5659    2.1127   -0.0398 C.ar      1 <0>        -0.1030
      3 C3          4.1874    2.0574   -0.0269 C.ar      1 <0>        -0.0681
      4 C4          3.5418    0.8204   -0.0274 C.ar      1 <0>        -0.1154
      5 C5          4.2960   -0.3535   -0.0351 C.ar      1 <0>        -0.0683
      6 C6          5.6739   -0.2845   -0.0533 C.ar      1 <0>        -0.1053
      7 C7          2.0642    0.7537   -0.0136 C.cat     1 <0>         0.4157
      8 N1          1.3161   -0.3871   -0.0126 N.pl3     1 <0>        -0.5357
      9 C8          0.0021   -0.0041    0.0020 C.2       1 <0>        -0.0234
     10 C9         -0.0162    1.3444    0.0096 C.2       1 <0>         0.0958
     11 N2          1.2475    1.7836   -0.0002 N.pl3     1 <0>        -0.4968
     12 C10        -1.1972   -0.9166    0.0093 C.3       1 <0>         0.0731
     13 N3         -1.5275   -1.3022   -1.3691 N.4       1 <0>        -0.4086
     14 C11        -1.9808   -0.1405   -2.1468 C.3       1 <0>        -0.0056
     15 C12        -2.2381   -0.5676   -3.5938 C.3       1 <0>         0.0369
     16 N4         -3.2456   -1.6371   -3.6144 N.pl3     1 <0>        -0.4606
     17 C13        -2.7924   -2.7988   -2.8368 C.3       1 <0>         0.0392
     18 C14        -2.5351   -2.3718   -1.3898 C.3       1 <0>        -0.0023
     19 C15        -3.5568   -2.0005   -4.9132 C.ar      1 <0>         0.4701
     20 N5         -3.4148   -3.2649   -5.2826 N.ar      1 <0>        -0.5493
     21 C16        -3.7087   -3.6463   -6.5147 C.ar      1 <0>         0.1969
     22 C17        -4.1587   -2.7032   -7.4253 C.ar      1 <0>        -0.2190
     23 C18        -4.2904   -1.3884   -7.0070 C.ar      1 <0>         0.1973
     24 N6         -3.9845   -1.0746   -5.7589 N.ar      1 <0>        -0.5224
     25 H1          7.3868    0.9938   -0.0628 H         1 <0>         0.1511
     26 H2          6.0668    3.0695   -0.0394 H         1 <0>         0.1526
     27 H3          3.6092    2.9696   -0.0168 H         1 <0>         0.1339
     28 H4          3.8022   -1.3141   -0.0310 H         1 <0>         0.1302
     29 H5          6.2588   -1.1924   -0.0634 H         1 <0>         0.1512
     30 H6         -0.8889    1.8326    0.0167 H         1 <0>         0.2082
     31 H7         -0.9687   -1.8177    0.5974 H         1 <0>         0.1639
     32 H8         -2.0537   -0.3928    0.4588 H         1 <0>         0.1738
     33 H9         -2.9098    0.2538   -1.7091 H         1 <0>         0.1524
     34 H10        -1.2057    0.6397   -2.1261 H         1 <0>         0.1327
     35 H11        -2.6049    0.2941   -4.1707 H         1 <0>         0.1456
     36 H12        -1.3022   -0.9356   -4.0395 H         1 <0>         0.0690
     37 H13        -3.5676   -3.5789   -2.8576 H         1 <0>         0.1432
     38 H14        -1.8635   -3.1932   -3.2744 H         1 <0>         0.0809
     39 H15        -2.1677   -3.2329   -0.8122 H         1 <0>         0.1507
     40 H16        -3.4704   -2.0031   -0.9435 H         1 <0>         0.1485
     41 H17        -3.6010   -4.6042   -6.7807 H         1 <0>         0.1619
     42 H18        -4.3870   -2.9538   -8.3661 H         1 <0>         0.1457
     43 H19        -4.6135   -0.6904   -7.6460 H         1 <0>         0.1638
     44 H20         1.6522    2.8065    0.0014 H         1 <0>         0.5098
     45 H21         1.8111   -1.3694   -0.0226 H         1 <0>         0.5011
     46 H22        -0.6114   -1.6893   -1.8391 H         1 <0>         0.4375
@<TRIPOS>BOND
     1    1    6 ar
     2    1    2 ar
     3    1   25 1
     4    2    3 ar
     5    2   26 1
     6    3    4 ar
     7    3   27 1
     8    4    5 ar
     9    4    7 1
    10    5    6 ar
    11    5   28 1
    12    6   29 1
    13    7    8 2
    14    7   11 1
    15    8    9 1
    16    8   45 1
    17    9   10 2
    18    9   12 1
    19   10   11 1
    20   10   30 1
    21   11   44 1
    22   12   13 1
    23   12   31 1
    24   12   32 1
    25   13   18 1
    26   13   14 1
    27   13   46 1
    28   14   15 1
    29   14   33 1
    30   14   34 1
    31   15   16 1
    32   15   35 1
    33   15   36 1
    34   16   17 1
    35   16   19 1
    36   17   18 1
    37   17   37 1
    38   17   38 1
    39   18   39 1
    40   18   40 1
    41   19   24 ar
    42   19   20 ar
    43   20   21 ar
    44   21   22 ar
    45   21   41 1
    46   22   23 ar
    47   22   42 1
    48   23   24 ar
    49   23   43 1
@<TRIPOS>MOLECULE
ZINC26817456
   45    48     0     0     0
SMALL
USER_CHARGES

@<TRIPOS>ATOM
      1 C1         -0.0167    1.3793    0.0096 C.ar      1 <0>        -0.0641
      2 C2          1.1684    2.0932    0.0021 C.ar      1 <0>        -0.1064
      3 C3          2.3774    1.4286   -0.0129 C.ar      1 <0>        -0.0743
      4 C4          2.4032    0.0335   -0.0206 C.ar      1 <0>        -0.0957
      5 C5          1.2044   -0.6805   -0.0130 C.ar      1 <0>        -0.0728
      6 C6          0.0021   -0.0041    0.0020 C.ar      1 <0>        -0.1070
      7 C7          3.6958   -0.6853   -0.0373 C.cat     1 <0>         0.3863
      8 N1          3.8575   -2.0353   -0.1479 N.pl3     1 <0>        -0.5144
      9 H1          3.1522   -2.6961   -0.2298 H         1 <0>         0.4588
     10 C8          5.2039   -2.2807   -0.1218 C.2       1 <0>         0.0694
     11 C9          5.8205   -1.0877    0.0025 C.2       1 <0>         0.0293
     12 N2          4.8852   -0.1320    0.0463 N.pl3     1 <0>        -0.4740
     13 C10         5.8711   -3.6289   -0.2139 C.3       1 <0>         0.1108
     14 N3          6.0277   -4.0024   -1.6259 N.3       1 <0>        -0.5344
     15 C11         4.7206   -4.2069   -2.2644 C.3       1 <0>         0.0338
     16 C12         4.9182   -4.4152   -3.7697 C.3       1 <0>         0.1359
     17 N4          5.8845   -5.5063   -3.9675 N.pl3     1 <0>        -0.5910
     18 C13         7.1664   -5.4391   -3.2495 C.3       1 <0>         0.1320
     19 C14         6.8803   -5.1905   -1.7648 C.3       1 <0>         0.0420
     20 C15         5.5954   -6.5677   -4.8073 C.ar      1 <0>         0.5616
     21 N5          4.4328   -6.5919   -5.4424 N.ar      1 <0>        -0.5742
     22 C16         4.1255   -7.5914   -6.2524 C.ar      1 <0>         0.1935
     23 C17         5.0365   -8.6204   -6.4324 C.ar      1 <0>        -0.2853
     24 C18         6.2432   -8.5636   -5.7527 C.ar      1 <0>         0.1955
     25 N6          6.4900   -7.5328   -4.9613 N.ar      1 <0>        -0.5699
     26 H2         -0.9604    1.9041    0.0260 H         1 <0>         0.1451
     27 H3          1.1470    3.1729    0.0078 H         1 <0>         0.1471
     28 H4          3.3018    1.9870   -0.0191 H         1 <0>         0.1327
     29 H5          1.2178   -1.7604   -0.0193 H         1 <0>         0.1304
     30 H6         -0.9265   -0.5556    0.0079 H         1 <0>         0.1465
     31 H7          6.8877   -0.9303    0.0540 H         1 <0>         0.2286
     32 H8          6.8513   -3.5823    0.2605 H         1 <0>         0.1284
     33 H9          5.2571   -4.3734    0.2930 H         1 <0>         0.0702
     34 H10         4.2399   -5.0862   -1.8356 H         1 <0>         0.0491
     35 H11         4.0933   -3.3312   -2.0977 H         1 <0>         0.0704
     36 H12         3.9668   -4.6807   -4.2306 H         1 <0>         0.1056
     37 H13         5.3028   -3.4995   -4.2187 H         1 <0>         0.0730
     38 H14         7.7014   -6.3816   -3.3665 H         1 <0>         0.1094
     39 H15         7.7672   -4.6218   -3.6485 H         1 <0>         0.0764
     40 H16         7.8193   -5.0282   -1.2356 H         1 <0>         0.1004
     41 H17         6.3695   -6.0561   -1.3428 H         1 <0>         0.0491
     42 H18         3.1761   -7.6058   -6.7671 H         1 <0>         0.1696
     43 H19         4.8109   -9.4487   -7.0878 H         1 <0>         0.1482
     44 H20         6.9745   -9.3494   -5.8708 H         1 <0>         0.1708
     45 H21         5.0575    0.8190    0.1288 H         1 <0>         0.4633
@<TRIPOS>BOND
     1    1    6 ar
     2    1    2 ar
     3    1   26 1
     4    2    3 ar
     5    2   27 1
     6    3    4 ar
     7    3   28 1
     8    4    5 ar
     9    4    7 1
    10    5    6 ar
    11    5   29 1
    12    6   30 1
    13    7   12 2
    14    7    8 1
    15    8    9 1
    16    8   10 1
    17   10   11 2
    18   10   13 1
    19   11   12 1
    20   11   31 1
    21   12   45 1
    22   13   14 1
    23   13   32 1
    24   13   33 1
    25   14   19 1
    26   14   15 1
    27   15   16 1
    28   15   34 1
    29   15   35 1
    30   16   17 1
    31   16   36 1
    32   16   37 1
    33   17   18 1
    34   17   20 1
    35   18   19 1
    36   18   38 1
    37   18   39 1
    38   19   40 1
    39   19   41 1
    40   20   25 ar
    41   20   21 ar
    42   21   22 ar
    43   22   23 ar
    44   22   42 1
    45   23   24 ar
    46   23   43 1
    47   24   25 ar
    48   24   44 1
@<TRIPOS>MOLECULE
ZINC23466472
   40    42     0     0     0
SMALL
USER_CHARGES
4-(4-benzylpiperazin-1-yl)phenol
@<TRIPOS>ATOM
      1 C1         -0.0156    8.9703   -4.6970 C.ar      1 <0>        -0.1195
      2 C2         -0.8348    8.7238   -3.6111 C.ar      1 <0>        -0.1205
      3 C3         -0.2919    8.2635   -2.4261 C.ar      1 <0>        -0.1156
      4 C4          1.0703    8.0501   -2.3268 C.ar      1 <0>        -0.0793
      5 C5          1.8902    8.3021   -3.4108 C.ar      1 <0>        -0.0987
      6 C6          1.3467    8.7574   -4.5975 C.ar      1 <0>        -0.1205
      7 C7          1.6622    7.5487   -1.0348 C.3       1 <0>         0.0925
      8 N1          1.6811    6.0798   -1.0424 N.3       1 <0>        -0.5335
      9 C8          2.4617    5.5574    0.0878 C.3       1 <0>         0.0543
     10 C9          2.5235    4.0307   -0.0008 C.3       1 <0>         0.0525
     11 N2          1.1585    3.4863    0.0093 N.pl3     1 <0>        -0.4873
     12 C10         0.3780    4.0088   -1.1210 C.3       1 <0>         0.0592
     13 C11         0.3161    5.5355   -1.0324 C.3       1 <0>         0.0508
     14 C12         1.1766    2.0871    0.0020 C.ar      1 <0>         0.0687
     15 C13        -0.0167    1.3769    0.0096 C.ar      1 <0>        -0.0960
     16 C14         0.0021   -0.0041    0.0020 C.ar      1 <0>        -0.1376
     17 C15         1.2123   -0.6815   -0.0136 C.ar      1 <0>         0.1317
     18 C16         2.4046    0.0270   -0.0208 C.ar      1 <0>        -0.1887
     19 C17         2.3877    1.4080   -0.0123 C.ar      1 <0>        -0.1279
     20 O1          1.2298   -2.0414   -0.0216 O.3       1 <0>        -0.5131
     21 H1         -0.4398    9.3297   -5.6229 H         1 <0>         0.1211
     22 H2         -1.8990    8.8905   -3.6887 H         1 <0>         0.1216
     23 H3         -0.9319    8.0709   -1.5778 H         1 <0>         0.1184
     24 H4          2.9550    8.1396   -3.3319 H         1 <0>         0.1217
     25 H5          1.9867    8.9504   -5.4457 H         1 <0>         0.1219
     26 H6          2.6894    7.9281   -0.9305 H         1 <0>         0.0859
     27 H7          1.0529    7.9032   -0.1904 H         1 <0>         0.0458
     28 H8          3.4810    5.9694    0.0510 H         1 <0>         0.0856
     29 H9          1.9812    5.8517    1.0325 H         1 <0>         0.0459
     30 H10         3.0293    3.7377   -0.9327 H         1 <0>         0.0549
     31 H11         3.0832    3.6358    0.8599 H         1 <0>         0.0875
     32 H12         0.8587    3.7146   -2.0657 H         1 <0>         0.0520
     33 H13        -0.6413    3.5968   -1.0844 H         1 <0>         0.0861
     34 H14        -0.1891    5.8295   -0.1005 H         1 <0>         0.0445
     35 H15        -0.2428    5.9314   -1.8931 H         1 <0>         0.0891
     36 H16        -0.9591    1.9043    0.0169 H         1 <0>         0.1302
     37 H17        -0.9259   -0.5566    0.0079 H         1 <0>         0.1300
     38 H18         3.3465   -0.5013   -0.0326 H         1 <0>         0.1264
     39 H19         3.3162    1.9596   -0.0174 H         1 <0>         0.1284
     40 H20         2.1894   -2.5790   -0.0340 H         1 <0>         0.4315
@<TRIPOS>BOND
     1    1    6 ar
     2    1    2 ar
     3    1   21 1
     4    2    3 ar
     5    2   22 1
     6    3    4 ar
     7    3   23 1
     8    4    5 ar
     9    4    7 1
    10    5    6 ar
    11    5   24 1
    12    6   25 1
    13    7    8 1
    14    7   26 1
    15    7   27 1
    16    8   13 1
    17    8    9 1
    18    9   10 1
    19    9   28 1
    20    9   29 1
    21   10   11 1
    22   10   30 1
    23   10   31 1
    24   11   12 1
    25   11   14 1
    26   12   13 1
    27   12   32 1
    28   12   33 1
    29   13   34 1
    30   13   35 1
    31   14   19 ar
    32   14   15 ar
    33   15   16 ar
    34   15   36 1
    35   16   17 ar
    36   16   37 1
    37   17   18 ar
    38   17   20 1
    39   18   19 ar
    40   18   38 1
    41   19   39 1
    42   20   40 1
@<TRIPOS>MOLECULE
ZINC26816095
   35    36     0     0     0
SMALL
USER_CHARGES
N-benzyl-2-phenoxy-ethanamine
@<TRIPOS>ATOM
      1 C1         -0.0559    4.2672    0.0251 C.ar      1 <0>        -0.0834
      2 C2          1.1505    3.5924    0.0100 C.ar      1 <0>        -0.1150
      3 C3          1.1693    2.2102    0.0028 C.ar      1 <0>        -0.0945
      4 C4         -0.0184    1.5028    0.0103 C.ar      1 <0>        -0.1647
      5 C5         -1.2248    2.1776    0.0197 C.ar      1 <0>        -0.0931
      6 C6         -1.2435    3.5598    0.0322 C.ar      1 <0>        -0.1144
      7 C7          0.0021   -0.0041    0.0020 C.3       1 <0>         0.0516
      8 N1          0.0219   -0.5011    1.3842 N.4       1 <0>        -0.5394
      9 C8          0.0422   -1.9696    1.4153 C.3       1 <0>         0.0032
     10 C9          0.0625   -2.4487    2.8683 C.3       1 <0>         0.0248
     11 O1         -1.1577   -2.0738    3.5105 O.3       1 <0>        -0.3298
     12 C10        -1.3020   -2.4265    4.8150 C.ar      1 <0>         0.1113
     13 C11        -0.2922   -3.1240    5.4620 C.ar      1 <0>        -0.2035
     14 C12        -0.4387   -3.4759    6.7898 C.ar      1 <0>        -0.0788
     15 C13        -1.5955   -3.1442    7.4706 C.ar      1 <0>        -0.1409
     16 C14        -2.6057   -2.4540    6.8264 C.ar      1 <0>        -0.0775
     17 C15        -2.4615   -2.0944    5.5004 C.ar      1 <0>        -0.1430
     18 H1         -0.0705    5.3471    0.0311 H         1 <0>         0.1357
     19 H2          2.0784    4.1450    0.0041 H         1 <0>         0.1356
     20 H3          2.1118    1.6830   -0.0091 H         1 <0>         0.1306
     21 H4         -2.1527    1.6249    0.0211 H         1 <0>         0.1312
     22 H5         -2.1860    4.0870    0.0437 H         1 <0>         0.1359
     23 H6         -0.8959   -0.3802   -0.5101 H         1 <0>         0.1351
     24 H7          0.9002   -0.3557   -0.5270 H         1 <0>         0.1349
     25 H8          0.9199   -0.1250    1.8962 H         1 <0>         0.4477
     26 H9         -0.8555   -2.3594    0.9132 H         1 <0>         0.1401
     27 H10         0.9405   -2.3350    0.8961 H         1 <0>         0.1484
     28 H11         0.1681   -3.5434    2.8920 H         1 <0>         0.1090
     29 H12         0.9109   -1.9871    3.3948 H         1 <0>         0.0869
     30 H13         0.6095   -3.3876    4.9293 H         1 <0>         0.1272
     31 H14         0.3489   -4.0150    7.2951 H         1 <0>         0.1312
     32 H15        -1.7102   -3.4244    8.5073 H         1 <0>         0.1316
     33 H16        -3.5081   -2.1954    7.3605 H         1 <0>         0.1365
     34 H17        -3.2510   -1.5556    4.9976 H         1 <0>         0.1326
     35 H18        -0.8762   -0.1495    1.9132 H         1 <0>         0.4568
@<TRIPOS>BOND
     1    1    6 ar
     2    1    2 ar
     3    1   18 1
     4    2    3 ar
     5    2   19 1
     6    3    4 ar
     7    3   20 1
     8    4    5 ar
     9    4    7 1
    10    5    6 ar
    11    5   21 1
    12    6   22 1
    13    7    8 1
    14    7   23 1
    15    7   24 1
    16    8    9 1
    17    8   25 1
    18    8   35 1
    19    9   10 1
    20    9   26 1
    21    9   27 1
    22   10   11 1
    23   10   28 1
    24   10   29 1
    25   11   12 1
    26   12   17 ar
    27   12   13 ar
    28   13   14 ar
    29   13   30 1
    30   14   15 ar
    31   14   31 1
    32   15   16 ar
    33   15   32 1
    34   16   17 ar
    35   16   33 1
    36   17   34 1
@<TRIPOS>MOLECULE
ZINC22453001
   52    55     0     0     0
SMALL
USER_CHARGES
2-[4-[(4-chlorophenyl)methyl]piperazin-1-yl]-1-(2,3-dihydro-1,4-benzothiazin-4-yl)ethanone
@<TRIPOS>ATOM
      1 C1         -3.4311   -1.0460   -0.0827 C.ar      1 <0>        -0.1016
      2 C2         -4.6327   -0.5018    0.3328 C.ar      1 <0>        -0.1025
      3 C3         -4.7075    0.8400    0.6505 C.ar      1 <0>        -0.0783
      4 C4         -3.5791    1.6457    0.5542 C.ar      1 <0>        -0.1044
      5 C5         -2.3668    1.1009    0.1421 C.ar      1 <0>         0.1171
      6 C6         -2.3054   -0.2534   -0.1779 C.ar      1 <0>        -0.1317
      7 N1         -1.1964    1.8559    0.0349 N.am      1 <0>        -0.5242
      8 C7         -1.1938    3.3134   -0.0443 C.3       1 <0>         0.0829
      9 C8         -1.9796    3.8786    1.1431 C.3       1 <0>        -0.1371
     10 S1         -3.7118    3.3585    0.9578 S.3       1 <0>        -0.0808
     11 C9         -0.0144    1.2088    0.0087 C.2       1 <0>         0.4976
     12 O1          0.0147   -0.0031    0.0510 O.2       1 <0>        -0.5032
     13 C10         1.2709    1.9907   -0.0794 C.3       1 <0>        -0.0295
     14 N2          2.4116    1.0731    0.0426 N.4       1 <0>        -0.3904
     15 C11         2.4629    0.4720    1.3826 C.3       1 <0>        -0.0049
     16 C12         3.6144   -0.5344    1.4436 C.3       1 <0>         0.0232
     17 N3          4.8763    0.1492    1.1275 N.3       1 <0>        -0.5348
     18 C13         4.8249    0.7503   -0.2126 C.3       1 <0>         0.0253
     19 C14         3.6735    1.7567   -0.2735 C.3       1 <0>         0.0019
     20 C15         6.0170   -0.7684    1.2495 C.3       1 <0>         0.0957
     21 C16         6.1839   -1.1734    2.6914 C.ar      1 <0>        -0.0927
     22 C17         6.9955   -0.4304    3.5283 C.ar      1 <0>        -0.0816
     23 C18         7.1445   -0.7980    4.8523 C.ar      1 <0>        -0.1082
     24 C19         6.4901   -1.9164    5.3372 C.ar      1 <0>        -0.0271
     25 C20         5.6824   -2.6628    4.4978 C.ar      1 <0>        -0.1089
     26 C21         5.5297   -2.2909    3.1754 C.ar      1 <0>        -0.1054
     27 Cl1         6.6819   -2.3826    6.9984 Cl        1 <0>        -0.0566
     28 H1         -3.3735   -2.0948   -0.3337 H         1 <0>         0.1343
     29 H2         -5.5114   -1.1252    0.4084 H         1 <0>         0.1372
     30 H3         -5.6460    1.2649    0.9746 H         1 <0>         0.1389
     31 H4         -1.3708   -0.6859   -0.5032 H         1 <0>         0.1751
     32 H5         -0.1574    3.6805   -0.0118 H         1 <0>         0.1083
     33 H6         -1.6657    3.6303   -0.9861 H         1 <0>         0.1106
     34 H7         -1.5604    3.4851    2.0809 H         1 <0>         0.1007
     35 H8         -1.9076    4.9762    1.1414 H         1 <0>         0.1405
     36 H9          1.3191    2.5089   -1.0485 H         1 <0>         0.1674
     37 H10         1.3066    2.7303    0.7340 H         1 <0>         0.1608
     38 H11         2.6238    1.2607    2.1323 H         1 <0>         0.1332
     39 H12         1.5132   -0.0429    1.5901 H         1 <0>         0.1441
     40 H13         3.6724   -0.9644    2.4544 H         1 <0>         0.1271
     41 H14         3.4384   -1.3377    0.7130 H         1 <0>         0.0649
     42 H15         5.7746    1.2651   -0.4202 H         1 <0>         0.1283
     43 H16         4.6639   -0.0384   -0.9623 H         1 <0>         0.0643
     44 H17         3.6143    2.1869   -1.2842 H         1 <0>         0.1396
     45 H18         3.8484    2.5601    0.4573 H         1 <0>         0.1389
     46 H19         5.8351   -1.6631    0.6360 H         1 <0>         0.0597
     47 H20         6.9312   -0.2652    0.9018 H         1 <0>         0.1007
     48 H21         7.5098    0.4401    3.1485 H         1 <0>         0.1341
     49 H22         7.7752   -0.2150    5.5071 H         1 <0>         0.1380
     50 H23         5.1711   -3.5358    4.8758 H         1 <0>         0.1371
     51 H24         4.8990   -2.8733    2.5201 H         1 <0>         0.1285
     52 H25         2.2718    0.2628   -0.6881 H         1 <0>         0.4477
@<TRIPOS>BOND
     1    1    6 ar
     2    1    2 ar
     3    1   28 1
     4    2    3 ar
     5    2   29 1
     6    3    4 ar
     7    3   30 1
     8    4   10 1
     9    4    5 ar
    10    5    6 ar
    11    5    7 1
    12    6   31 1
    13    7    8 1
    14    7   11 am
    15    8    9 1
    16    8   32 1
    17    8   33 1
    18    9   10 1
    19    9   34 1
    20    9   35 1
    21   11   12 2
    22   11   13 1
    23   13   14 1
    24   13   36 1
    25   13   37 1
    26   14   19 1
    27   14   15 1
    28   14   52 1
    29   15   16 1
    30   15   38 1
    31   15   39 1
    32   16   17 1
    33   16   40 1
    34   16   41 1
    35   17   18 1
    36   17   20 1
    37   18   19 1
    38   18   42 1
    39   18   43 1
    40   19   44 1
    41   19   45 1
    42   20   21 1
    43   20   46 1
    44   20   47 1
    45   21   26 ar
    46   21   22 ar
    47   22   23 ar
    48   22   48 1
    49   23   24 ar
    50   23   49 1
    51   24   25 ar
    52   24   27 1
    53   25   26 ar
    54   25   50 1
    55   26   51 1
@<TRIPOS>MOLECULE
ZINC22453001
   52    55     0     0     0
SMALL
USER_CHARGES

@<TRIPOS>ATOM
      1 C1          3.4183   -4.9129   -0.2714 C.ar      1 <0>        -0.1006
      2 C2          4.3348   -4.5028   -1.2224 C.ar      1 <0>        -0.1136
      3 C3          4.1870   -3.2747   -1.8365 C.ar      1 <0>        -0.0781
      4 C4          3.1183   -2.4506   -1.5043 C.ar      1 <0>        -0.1123
      5 C5          2.1900   -2.8626   -0.5532 C.ar      1 <0>         0.1363
      6 C6          2.3537   -4.1009    0.0632 C.ar      1 <0>        -0.1281
      7 N1          1.0832   -2.0898   -0.1935 N.am      1 <0>        -0.5507
      8 C7          1.0008   -0.6540   -0.4432 C.3       1 <0>         0.0936
      9 C8          1.2508   -0.3971   -1.9371 C.3       1 <0>        -0.1300
     10 S1          2.9644   -0.8835   -2.3007 S.3       1 <0>        -0.0967
     11 C9          0.0436   -2.6979    0.4113 C.2       1 <0>         0.5107
     12 O1          0.0308   -3.9053    0.5267 O.2       1 <0>        -0.4924
     13 C10        -1.1028   -1.8779    0.9443 C.3       1 <0>         0.0358
     14 N2         -2.1614   -2.7733    1.4297 N.3       1 <0>        -0.5216
     15 C11        -2.7633   -3.5269    0.3206 C.3       1 <0>         0.0207
     16 C12        -3.8171   -4.4887    0.8741 C.3       1 <0>         0.0013
     17 N3         -4.8497   -3.7259    1.5878 N.4       1 <0>        -0.3862
     18 C13        -4.2374   -2.9983    2.7072 C.3       1 <0>        -0.0062
     19 C14        -3.1871   -2.0241    2.1691 C.3       1 <0>         0.0289
     20 C15        -5.8705   -4.6480    2.1034 C.3       1 <0>         0.0456
     21 C16        -6.9914   -3.8579    2.7283 C.ar      1 <0>        -0.1603
     22 C17        -6.9383   -3.5253    4.0691 C.ar      1 <0>        -0.0832
     23 C18        -7.9660   -2.8007    4.6428 C.ar      1 <0>        -0.1064
     24 C19        -9.0480   -2.4083    3.8749 C.ar      1 <0>        -0.0067
     25 C20        -9.1005   -2.7415    2.5332 C.ar      1 <0>        -0.1061
     26 C21        -8.0695   -3.4613    1.9593 C.ar      1 <0>        -0.0794
     27 Cl1       -10.3394   -1.4987    4.5949 Cl        1 <0>        -0.0369
     28 H1          3.5336   -5.8739    0.2079 H         1 <0>         0.1310
     29 H2          5.1651   -5.1419   -1.4843 H         1 <0>         0.1335
     30 H3          4.9045   -2.9535   -2.5770 H         1 <0>         0.1351
     31 H4          1.6428   -4.4279    0.8075 H         1 <0>         0.1647
     32 H5          0.0093   -0.2920   -0.1710 H         1 <0>         0.1062
     33 H6          1.7561   -0.1363    0.1481 H         1 <0>         0.0993
     34 H7          0.5622   -0.9940   -2.5351 H         1 <0>         0.0960
     35 H8          1.1120    0.6612   -2.1585 H         1 <0>         0.1327
     36 H9         -0.7515   -1.2524    1.7650 H         1 <0>         0.1251
     37 H10        -1.4980   -1.2457    0.1491 H         1 <0>         0.0799
     38 H11        -3.2340   -2.8339   -0.3768 H         1 <0>         0.0587
     39 H12        -1.9891   -4.0939   -0.1963 H         1 <0>         0.1352
     40 H13        -4.2748   -5.0384    0.0517 H         1 <0>         0.1378
     41 H14        -3.3436   -5.1902    1.5610 H         1 <0>         0.1422
     42 H15        -5.0067   -2.4431    3.2439 H         1 <0>         0.1371
     43 H16        -3.7618   -3.7074    3.3848 H         1 <0>         0.1406
     44 H17        -2.7221   -1.4947    3.0007 H         1 <0>         0.1264
     45 H18        -3.6648   -1.3064    1.5021 H         1 <0>         0.0632
     46 H19        -6.2632   -5.2502    1.2841 H         1 <0>         0.1403
     47 H20        -5.4245   -5.3013    2.8532 H         1 <0>         0.1400
     48 H21        -6.0939   -3.8319    4.6684 H         1 <0>         0.1420
     49 H22        -7.9247   -2.5412    5.6903 H         1 <0>         0.1477
     50 H23        -9.9450   -2.4357    1.9333 H         1 <0>         0.1473
     51 H24        -8.1081   -3.7173    0.9108 H         1 <0>         0.1411
     52 H25        -5.2798   -3.0685    0.9547 H         1 <0>         0.4195
@<TRIPOS>BOND
     1    1    6 ar
     2    1    2 ar
     3    1   28 1
     4    2    3 ar
     5    2   29 1
     6    3    4 ar
     7    3   30 1
     8    4   10 1
     9    4    5 ar
    10    5    6 ar
    11    5    7 1
    12    6   31 1
    13    7    8 1
    14    7   11 am
    15    8    9 1
    16    8   32 1
    17    8   33 1
    18    9   10 1
    19    9   34 1
    20    9   35 1
    21   11   12 2
    22   11   13 1
    23   13   14 1
    24   13   36 1
    25   13   37 1
    26   14   19 1
    27   14   15 1
    28   15   16 1
    29   15   38 1
    30   15   39 1
    31   16   17 1
    32   16   40 1
    33   16   41 1
    34   17   18 1
    35   17   20 1
    36   17   52 1
    37   18   19 1
    38   18   42 1
    39   18   43 1
    40   19   44 1
    41   19   45 1
    42   20   21 1
    43   20   46 1
    44   20   47 1
    45   21   26 ar
    46   21   22 ar
    47   22   23 ar
    48   22   48 1
    49   23   24 ar
    50   23   49 1
    51   24   25 ar
    52   24   27 1
    53   25   26 ar
    54   25   50 1
    55   26   51 1
@<TRIPOS>MOLECULE
ZINC13579601
   46    48     0     0     0
SMALL
USER_CHARGES
(2S)-4-[(4-chlorophenyl)methyl]-2-[(2-methoxyphenoxy)methyl]morpholine
@<TRIPOS>ATOM
      1 C1         -2.4303    2.7516    4.7865 C.3       1 <0>         0.0227
      2 O1         -1.8691    2.3646    3.5306 O.3       1 <0>        -0.3051
      3 C2         -0.7482    1.5953    3.5661 C.ar      1 <0>         0.0997
      4 C3         -0.2011    1.2210    4.7829 C.ar      1 <0>        -0.1732
      5 C4          0.9381    0.4386    4.8171 C.ar      1 <0>        -0.1177
      6 C5          1.5337    0.0275    3.6392 C.ar      1 <0>        -0.1169
      7 C6          0.9900    0.3930    2.4218 C.ar      1 <0>        -0.1752
      8 C7         -0.1484    1.1819    2.3804 C.ar      1 <0>         0.1025
      9 O2         -0.6816    1.5467    1.1837 O.3       1 <0>        -0.2930
     10 C8         -0.0127    1.0858    0.0080 C.3       1 <0>         0.0669
     11 C9         -0.7527    1.5927   -1.2315 C.3       1 <0>         0.0968
     12 H1         -1.8250    1.3533   -1.1783 H         1 <0>         0.0816
     13 C10        -0.1103    0.9999   -2.4884 C.3       1 <0>         0.0278
     14 N1         -0.7748    1.5510   -3.6785 N.3       1 <0>        -0.5286
     15 C11        -0.6712    3.0173   -3.7020 C.3       1 <0>         0.0104
     16 C12        -1.3086    3.5889   -2.4328 C.3       1 <0>         0.0632
     17 O3         -0.6704    3.0194   -1.2867 O.3       1 <0>        -0.3754
     18 C13        -0.2243    0.9646   -4.9077 C.3       1 <0>         0.0916
     19 C14        -1.0791    1.3656   -6.0822 C.ar      1 <0>        -0.0761
     20 C15        -2.1456    0.5728   -6.4632 C.ar      1 <0>        -0.0844
     21 C16        -2.9334    0.9430   -7.5368 C.ar      1 <0>        -0.1100
     22 C17        -2.6477    2.1015   -8.2372 C.ar      1 <0>        -0.0330
     23 C18        -1.5768    2.8916   -7.8589 C.ar      1 <0>        -0.1103
     24 C19        -0.7931    2.5232   -6.7816 C.ar      1 <0>        -0.1024
     25 Cl1        -3.6328    2.5637   -9.5898 Cl        1 <0>        -0.0688
     26 H2         -3.3261    3.3662    4.6140 H         1 <0>         0.1025
     27 H3         -1.6901    3.3337    5.3550 H         1 <0>         0.0556
     28 H4         -2.7066    1.8527    5.3572 H         1 <0>         0.0555
     29 H5         -0.6649    1.5402    5.7045 H         1 <0>         0.1352
     30 H6          1.3635    0.1475    5.7662 H         1 <0>         0.1273
     31 H7          2.4234   -0.5840    3.6701 H         1 <0>         0.1273
     32 H8          1.4546    0.0668    1.5031 H         1 <0>         0.1337
     33 H9          1.0193    1.4665    0.0002 H         1 <0>         0.0721
     34 H10         0.0022   -0.0141    0.0020 H         1 <0>         0.0798
     35 H11         0.9588    1.2581   -2.5104 H         1 <0>         0.0503
     36 H12        -0.2231   -0.0942   -2.4767 H         1 <0>         0.0932
     37 H13         0.3884    3.3093   -3.7460 H         1 <0>         0.0456
     38 H14        -1.1962    3.4079   -4.5862 H         1 <0>         0.0931
     39 H15        -1.1831    4.6816   -2.4196 H         1 <0>         0.1024
     40 H16        -2.3806    3.3428   -2.4180 H         1 <0>         0.0622
     41 H17         0.8023    1.3291   -5.0600 H         1 <0>         0.0498
     42 H18        -0.2147   -0.1317   -4.8186 H         1 <0>         0.0907
     43 H19        -2.3658   -0.3338   -5.9192 H         1 <0>         0.1334
     44 H20        -3.7692    0.3258   -7.8317 H         1 <0>         0.1346
     45 H21        -1.3535    3.7962   -8.4050 H         1 <0>         0.1339
     46 H22         0.0426    3.1401   -6.4860 H         1 <0>         0.1289
@<TRIPOS>BOND
     1    1    2 1
     2    1   26 1
     3    1   27 1
     4    1   28 1
     5    2    3 1
     6    3    8 ar
     7    3    4 ar
     8    4    5 ar
     9    4   29 1
    10    5    6 ar
    11    5   30 1
    12    6    7 ar
    13    6   31 1
    14    7    8 ar
    15    7   32 1
    16    8    9 1
    17    9   10 1
    18   10   11 1
    19   10   33 1
    20   10   34 1
    21   11   12 1
    22   11   17 1
    23   11   13 1
    24   13   14 1
    25   13   35 1
    26   13   36 1
    27   14   15 1
    28   14   18 1
    29   15   16 1
    30   15   37 1
    31   15   38 1
    32   16   17 1
    33   16   39 1
    34   16   40 1
    35   18   19 1
    36   18   41 1
    37   18   42 1
    38   19   24 ar
    39   19   20 ar
    40   20   21 ar
    41   20   43 1
    42   21   22 ar
    43   21   44 1
    44   22   23 ar
    45   22   25 1
    46   23   24 ar
    47   23   45 1
    48   24   46 1
@<TRIPOS>MOLECULE
ZINC13579603
   46    48     0     0     0
SMALL
USER_CHARGES
(2R)-4-[(4-chlorophenyl)methyl]-2-[(2-methoxyphenoxy)methyl]morpholine
@<TRIPOS>ATOM
      1 C1         -3.6150    3.0040    0.0519 C.3       1 <0>         0.0227
      2 O1         -2.4272    3.7985    0.0443 O.3       1 <0>        -0.3051
      3 C2         -1.2404    3.1346    0.0298 C.ar      1 <0>         0.0996
      4 C3         -1.2199    1.7491    0.0173 C.ar      1 <0>        -0.1732
      5 C4         -0.0126    1.0758    0.0080 C.ar      1 <0>        -0.1177
      6 C5          1.1761    1.7818    0.0004 C.ar      1 <0>        -0.1167
      7 C6          1.1626    3.1641    0.0070 C.ar      1 <0>        -0.1751
      8 C7         -0.0440    3.8452    0.0218 C.ar      1 <0>         0.1027
      9 O2         -0.0590    5.2050    0.0278 O.3       1 <0>        -0.2928
     10 C8          1.2070    5.8678    0.0184 C.3       1 <0>         0.0672
     11 C9          0.9898    7.3823    0.0272 C.3       1 <0>         0.0968
     12 H1          0.3126    7.6806    0.8411 H         1 <0>         0.0808
     13 C10         2.3419    8.0920    0.1374 C.3       1 <0>         0.0217
     14 N1          2.1336    9.5456    0.0678 N.3       1 <0>        -0.5202
     15 C11         1.4705    9.9171   -1.1906 C.3       1 <0>         0.0076
     16 C12         0.1272    9.1891   -1.2876 C.3       1 <0>         0.0626
     17 O3          0.3462    7.7794   -1.1867 O.3       1 <0>        -0.3749
     18 C13         3.4030   10.2675    0.2270 C.3       1 <0>         0.0899
     19 C14         4.3729    9.8186   -0.8355 C.ar      1 <0>        -0.1216
     20 C15         5.2205    8.7540   -0.5919 C.ar      1 <0>        -0.0966
     21 C16         6.1064    8.3382   -1.5680 C.ar      1 <0>        -0.1102
     22 C17         6.1525    8.9949   -2.7849 C.ar      1 <0>        -0.0318
     23 C18         5.3079   10.0638   -3.0260 C.ar      1 <0>        -0.1095
     24 C19         4.4186   10.4751   -2.0512 C.ar      1 <0>        -0.0955
     25 Cl1         7.2702    8.4781   -4.0086 Cl        1 <0>        -0.0668
     26 H2         -4.4963    3.6622    0.0635 H         1 <0>         0.1025
     27 H3         -3.6229    2.3649    0.9472 H         1 <0>         0.0555
     28 H4         -3.6401    2.3734   -0.8491 H         1 <0>         0.0556
     29 H5         -2.1471    1.1953    0.0191 H         1 <0>         0.1352
     30 H6          0.0021   -0.0041    0.0020 H         1 <0>         0.1272
     31 H7          2.1172    1.2522   -0.0111 H         1 <0>         0.1272
     32 H8          2.0926    3.7132    0.0004 H         1 <0>         0.1333
     33 H9          1.7810    5.5745    0.9097 H         1 <0>         0.0792
     34 H10         1.7636    5.5824   -0.8865 H         1 <0>         0.0715
     35 H11         2.8149    7.8329    1.0961 H         1 <0>         0.0909
     36 H12         2.9921    7.7727   -0.6904 H         1 <0>         0.0563
     37 H13         1.3029   11.0041   -1.2097 H         1 <0>         0.0899
     38 H14         2.1078    9.6294   -2.0397 H         1 <0>         0.0518
     39 H15        -0.5289    9.5197   -0.4689 H         1 <0>         0.0622
     40 H16        -0.3463    9.4204   -2.2532 H         1 <0>         0.1018
     41 H17         3.2250   11.3485    0.1279 H         1 <0>         0.0922
     42 H18         3.8236   10.0548    1.2209 H         1 <0>         0.0922
     43 H19         5.1875    8.2444    0.3597 H         1 <0>         0.1314
     44 H20         6.7655    7.5038   -1.3792 H         1 <0>         0.1346
     45 H21         5.3433   10.5765   -3.9759 H         1 <0>         0.1346
     46 H22         3.7595   11.3097   -2.2392 H         1 <0>         0.1312
@<TRIPOS>BOND
     1    1    2 1
     2    1   26 1
     3    1   27 1
     4    1   28 1
     5    2    3 1
     6    3    8 ar
     7    3    4 ar
     8    4    5 ar
     9    4   29 1
    10    5    6 ar
    11    5   30 1
    12    6    7 ar
    13    6   31 1
    14    7    8 ar
    15    7   32 1
    16    8    9 1
    17    9   10 1
    18   10   11 1
    19   10   33 1
    20   10   34 1
    21   11   12 1
    22   11   17 1
    23   11   13 1
    24   13   14 1
    25   13   35 1
    26   13   36 1
    27   14   15 1
    28   14   18 1
    29   15   16 1
    30   15   37 1
    31   15   38 1
    32   16   17 1
    33   16   39 1
    34   16   40 1
    35   18   19 1
    36   18   41 1
    37   18   42 1
    38   19   24 ar
    39   19   20 ar
    40   20   21 ar
    41   20   43 1
    42   21   22 ar
    43   21   44 1
    44   22   23 ar
    45   22   25 1
    46   23   24 ar
    47   23   45 1
    48   24   46 1
@<TRIPOS>MOLECULE
ZINC20358060
   39    41     0     0     0
SMALL
USER_CHARGES
1-benzyl-4-(2-iodopyrrol-1-yl)piperidine
@<TRIPOS>ATOM
      1 C1         -6.3766   -3.2696    3.8374 C.ar      1 <0>        -0.0837
      2 C2         -6.7726   -1.9671    3.5973 C.ar      1 <0>        -0.1136
      3 C3         -6.5464   -1.3928    2.3604 C.ar      1 <0>        -0.0981
      4 C4         -5.9247   -2.1212    1.3634 C.ar      1 <0>        -0.1606
      5 C5         -5.5339   -3.4255    1.6017 C.ar      1 <0>        -0.0939
      6 C6         -5.7553   -3.9981    2.8403 C.ar      1 <0>        -0.1129
      7 C7         -5.6786   -1.4952    0.0148 C.3       1 <0>         0.0468
      8 N1         -4.3655   -0.8366    0.0130 N.4       1 <0>        -0.3985
      9 C8         -4.1890   -0.0180   -1.1933 C.3       1 <0>         0.0005
     10 C9         -2.7621    0.5338   -1.2327 C.3       1 <0>        -0.1569
     11 C10        -2.5115    1.3773    0.0204 C.3       1 <0>         0.1188
     12 C11        -2.7490    0.5144    1.2628 C.3       1 <0>        -0.1548
     13 C12        -4.1762   -0.0368    1.2299 C.3       1 <0>        -0.0060
     14 N2         -1.1284    1.8603    0.0169 N.pl3     1 <0>        -0.4381
     15 C13        -0.0126    1.0758    0.0080 C.2       1 <0>         0.0015
     16 C14         1.0690    1.8810    0.0020 C.2       1 <0>        -0.1814
     17 C15         0.6048    3.2113    0.0130 C.2       1 <0>        -0.1355
     18 C16        -0.7436    3.1684    0.0254 C.2       1 <0>        -0.0106
     19 I1         -2.0251    4.8257    0.0447 I         1 <0>         0.0221
     20 H1         -6.5530   -3.7181    4.8038 H         1 <0>         0.1361
     21 H2         -7.2583   -1.3981    4.3761 H         1 <0>         0.1363
     22 H3         -6.8558   -0.3752    2.1728 H         1 <0>         0.1299
     23 H4         -5.0521   -3.9960    0.8214 H         1 <0>         0.1315
     24 H5         -5.4463   -5.0158    3.0277 H         1 <0>         0.1363
     25 H6         -5.6987   -2.2751   -0.7606 H         1 <0>         0.1403
     26 H7         -6.4621   -0.7515   -0.1928 H         1 <0>         0.1344
     27 H8         -4.3672   -0.6364   -2.0854 H         1 <0>         0.1424
     28 H9         -4.9044    0.8174   -1.1774 H         1 <0>         0.1317
     29 H10        -2.0468   -0.3013   -1.2638 H         1 <0>         0.1008
     30 H11        -2.6353    1.1588   -2.1290 H         1 <0>         0.1222
     31 H12        -3.1610    2.2651    0.0307 H         1 <0>         0.1136
     32 H13        -2.0320   -0.3198    1.2723 H         1 <0>         0.0997
     33 H14        -2.6113    1.1266    2.1663 H         1 <0>         0.1203
     34 H15        -4.8916    0.7987    1.2345 H         1 <0>         0.1297
     35 H16        -4.3451   -0.6689    2.1141 H         1 <0>         0.1437
     36 H17         0.0021   -0.0041    0.0020 H         1 <0>         0.1679
     37 H18         2.1015    1.5644   -0.0090 H         1 <0>         0.1488
     38 H19         1.2160    4.1017    0.0118 H         1 <0>         0.1480
     39 H20        -3.5928   -1.6195    0.0029 H         1 <0>         0.4411
@<TRIPOS>BOND
     1    1    6 ar
     2    1    2 ar
     3    1   20 1
     4    2    3 ar
     5    2   21 1
     6    3    4 ar
     7    3   22 1
     8    4    5 ar
     9    4    7 1
    10    5    6 ar
    11    5   23 1
    12    6   24 1
    13    7    8 1
    14    7   25 1
    15    7   26 1
    16    8   13 1
    17    8    9 1
    18    8   39 1
    19    9   10 1
    20    9   27 1
    21    9   28 1
    22   10   11 1
    23   10   29 1
    24   10   30 1
    25   11   12 1
    26   11   14 1
    27   11   31 1
    28   12   13 1
    29   12   32 1
    30   12   33 1
    31   13   34 1
    32   13   35 1
    33   14   18 1
    34   14   15 1
    35   15   16 2
    36   15   36 1
    37   16   17 1
    38   16   37 1
    39   17   18 2
    40   17   38 1
    41   18   19 1
@<TRIPOS>MOLECULE
ZINC05736728
   41    43     0     0     0
SMALL
USER_CHARGES
4-(1,3-dibenzylhexahydropyrimidin-2-yl)phenol
@<TRIPOS>ATOM
      1 C1         -0.0126    1.0758    0.0080 C.ar      1 <0>        -0.0824
      2 C2         -1.2190    1.7506    0.0173 C.ar      1 <0>        -0.1126
      3 C3         -1.2377    3.1328    0.0299 C.ar      1 <0>        -0.0940
      4 C4         -0.0501    3.8402    0.0223 C.ar      1 <0>        -0.1657
      5 C5          1.1563    3.1654    0.0076 C.ar      1 <0>        -0.0976
      6 C6          1.1750    1.7832    0.0004 C.ar      1 <0>        -0.1131
      7 C7         -0.0705    5.3471    0.0297 C.3       1 <0>         0.0495
      8 C8          1.1581    5.5089   -2.0500 C.3       1 <0>        -0.0027
      9 C9          1.0449    5.9102   -3.5224 C.3       1 <0>        -0.1584
     10 C10         0.7726    7.4140   -3.6170 C.3       1 <0>         0.1221
     11 C11        -0.5066    7.7428   -2.8424 C.3       1 <0>        -0.1602
     12 C12        -0.3485    7.2884   -1.3897 C.3       1 <0>         0.0026
     13 N1          0.6054    7.7939   -5.0220 N.pl3     1 <0>        -0.4248
     14 C13        -0.3280    7.3036   -5.8631 C.2       1 <0>         0.0299
     15 C14        -0.1807    7.8886   -7.0780 C.2       1 <0>        -0.2029
     16 C15         0.8946    8.7752   -6.9998 C.2       1 <0>        -0.0794
     17 C16         1.3799    8.7073   -5.7051 C.2       1 <0>        -0.1122
     18 C17         2.4693    9.4393   -5.1802 C.2       1 <0>         0.3961
     19 O1          3.0749   10.2182   -5.8881 O.2       1 <0>        -0.4449
     20 H1          0.0021   -0.0041    0.0020 H         1 <0>         0.1366
     21 H2         -2.1469    1.1980    0.0187 H         1 <0>         0.1368
     22 H3         -2.1802    3.6600    0.0410 H         1 <0>         0.1314
     23 H4          2.0841    3.7181    0.0014 H         1 <0>         0.1312
     24 H5          2.1175    1.2560   -0.0115 H         1 <0>         0.1367
     25 H6         -0.9604    5.6958    0.5537 H         1 <0>         0.1374
     26 H7          0.8193    5.7200    0.5368 H         1 <0>         0.1386
     27 H8          1.9865    6.0472   -1.5895 H         1 <0>         0.1362
     28 H9          1.3378    4.4362   -1.9787 H         1 <0>         0.1382
     29 H10         0.2254    5.3620   -3.9871 H         1 <0>         0.0980
     30 H11         1.9770    5.6762   -4.0367 H         1 <0>         0.1224
     31 H12         1.6100    7.9636   -3.1873 H         1 <0>         0.1178
     32 H13        -1.3506    7.2235   -3.2964 H         1 <0>         0.0986
     33 H14        -0.6834    8.8180   -2.8702 H         1 <0>         0.1236
     34 H15        -1.2630    7.5081   -0.8388 H         1 <0>         0.1390
     35 H16         0.4870    7.8183   -0.9323 H         1 <0>         0.1370
     36 H17        -1.0748    6.5658   -5.6092 H         1 <0>         0.1688
     37 H18        -0.7855    7.6986   -7.9524 H         1 <0>         0.1505
     38 H19         1.2752    9.3961   -7.7973 H         1 <0>         0.1542
     39 H20         2.7630    9.3059   -4.1495 H         1 <0>         0.0860
     40 N2         -0.1130    5.8290   -1.3664 N.4       1 <0>        -0.3959
     41 H21        -0.8827    5.3596   -1.8578 H         1 <0>         0.4275
@<TRIPOS>BOND
     1    1    6 ar
     2    1    2 ar
     3    1   20 1
     4    2    3 ar
     5    2   21 1
     6    3    4 ar
     7    3   22 1
     8    4    5 ar
     9    4    7 1
    10    5    6 ar
    11    5   23 1
    12    6   24 1
    13    7   25 1
    14    7   26 1
    15    7   40 1
    16    8    9 1
    17    8   27 1
    18    8   28 1
    19    8   40 1
    20    9   10 1
    21    9   29 1
    22    9   30 1
    23   10   11 1
    24   10   13 1
    25   10   31 1
    26   11   12 1
    27   11   32 1
    28   11   33 1
    29   12   34 1
    30   12   35 1
    31   12   40 1
    32   13   17 1
    33   13   14 1
    34   14   15 2
    35   14   36 1
    36   15   16 1
    37   15   37 1
    38   16   17 2
    39   16   38 1
    40   17   18 1
    41   18   19 2
    42   18   39 1
    43   40   41 1
@<TRIPOS>MOLECULE
ZINC02169415
   51    53     0     0     0
SMALL
USER_CHARGES

@<TRIPOS>ATOM
      1 C1          0.1211    1.2205   -3.1182 C.3       1 <0>        -0.1554
      2 C2          0.1212   -0.2930   -2.8943 C.3       1 <0>        -0.1522
      3 C3          0.5756   -0.5972   -1.4653 C.3       1 <0>        -0.0201
      4 N1          0.5307   -2.0474   -1.2355 N.4       1 <0>        -0.3814
      5 C4         -0.8598   -2.5136   -1.3189 C.3       1 <0>        -0.0169
      6 C5         -1.6744   -1.8943   -0.1814 C.3       1 <0>        -0.0968
      7 C6         -3.0637   -2.4784   -0.1827 C.ar      1 <0>        -0.1073
      8 C7         -4.0648   -1.8787   -0.9236 C.ar      1 <0>        -0.1097
      9 C8         -5.3392   -2.4144   -0.9248 C.ar      1 <0>        -0.1136
     10 C9         -5.6122   -3.5500   -0.1855 C.ar      1 <0>        -0.1044
     11 C10        -4.6108   -4.1503    0.5547 C.ar      1 <0>        -0.1137
     12 C11        -3.3354   -3.6170    0.5525 C.ar      1 <0>        -0.1108
     13 C12         1.3381   -2.7300   -2.2553 C.3       1 <0>         0.0202
     14 H1          0.9446   -2.5044   -3.2465 H         1 <0>         0.1445
     15 C13         2.7949   -2.2617   -2.1593 C.3       1 <0>        -0.1386
     16 C14         3.5541   -2.7985   -3.3710 C.3       1 <0>        -0.0685
     17 C15         3.3324   -4.2809   -3.5206 C.ar      1 <0>        -0.1100
     18 C16         2.2929   -4.9405   -2.9056 C.ar      1 <0>        -0.0755
     19 C17         2.1397   -6.3086   -3.0915 C.ar      1 <0>        -0.1201
     20 C18         3.0232   -7.0147   -3.8823 C.ar      1 <0>        -0.0943
     21 C19         4.0710   -6.3578   -4.4975 C.ar      1 <0>        -0.1328
     22 C20         4.2258   -4.9935   -4.3180 C.ar      1 <0>         0.1136
     23 O1          5.2555   -4.3454   -4.9234 O.3       1 <0>        -0.4942
     24 C21         1.2991   -4.2382   -2.0176 C.3       1 <0>        -0.0918
     25 H2         -0.5617    1.6923   -2.4116 H         1 <0>         0.0668
     26 H3          1.1276    1.6103   -2.9662 H         1 <0>         0.0672
     27 H4         -0.2026    1.4372   -4.1362 H         1 <0>         0.0768
     28 H5         -0.8853   -0.6828   -3.0463 H         1 <0>         0.0858
     29 H6          0.8041   -0.7648   -3.6009 H         1 <0>         0.0873
     30 H7          1.5950   -0.2382   -1.3241 H         1 <0>         0.1334
     31 H8         -0.0869   -0.0967   -0.7591 H         1 <0>         0.1340
     32 H9         -1.2865   -2.2144   -2.2762 H         1 <0>         0.1340
     33 H10        -0.8845   -3.6000   -1.2338 H         1 <0>         0.1338
     34 H11        -1.1906   -2.1099    0.7712 H         1 <0>         0.0938
     35 H12        -1.7338   -0.8152   -0.3228 H         1 <0>         0.0953
     36 H13        -3.8515   -0.9914   -1.5013 H         1 <0>         0.1234
     37 H14        -6.1215   -1.9455   -1.5031 H         1 <0>         0.1293
     38 H15        -6.6080   -3.9682   -0.1859 H         1 <0>         0.1296
     39 H16        -4.8242   -5.0373    1.1326 H         1 <0>         0.1293
     40 H17        -2.5522   -4.0881    1.1278 H         1 <0>         0.1236
     41 H18         2.8309   -1.1723   -2.1566 H         1 <0>         0.0944
     42 H19         3.2447   -2.6466   -1.2441 H         1 <0>         0.0924
     43 H20         3.2032   -2.2902   -4.2691 H         1 <0>         0.0891
     44 H21         4.6191   -2.6055   -3.2423 H         1 <0>         0.0953
     45 H22         1.3212   -6.8249   -2.6121 H         1 <0>         0.1287
     46 H23         2.8959   -8.0784   -4.0194 H         1 <0>         0.1355
     47 H24         4.7668   -6.9060   -5.1155 H         1 <0>         0.1369
     48 H25         6.0632   -4.3085   -4.3930 H         1 <0>         0.3953
     49 H26         1.5412   -4.4440   -0.9749 H         1 <0>         0.0972
     50 H27         0.2976   -4.6103   -2.2335 H         1 <0>         0.0996
     51 H28         0.9005   -2.2543   -0.3198 H         1 <0>         0.4223
@<TRIPOS>BOND
     1    1    2 1
     2    1   25 1
     3    1   26 1
     4    1   27 1
     5    2    3 1
     6    2   28 1
     7    2   29 1
     8    3    4 1
     9    3   30 1
    10    3   31 1
    11    4    5 1
    12    4   13 1
    13    4   51 1
    14    5    6 1
    15    5   32 1
    16    5   33 1
    17    6    7 1
    18    6   34 1
    19    6   35 1
    20    7   12 ar
    21    7    8 ar
    22    8    9 ar
    23    8   36 1
    24    9   10 ar
    25    9   37 1
    26   10   11 ar
    27   10   38 1
    28   11   12 ar
    29   11   39 1
    30   12   40 1
    31   13   14 1
    32   13   24 1
    33   13   15 1
    34   15   16 1
    35   15   41 1
    36   15   42 1
    37   16   17 1
    38   16   43 1
    39   16   44 1
    40   17   22 ar
    41   17   18 ar
    42   18   19 ar
    43   18   24 1
    44   19   20 ar
    45   19   45 1
    46   20   21 ar
    47   20   46 1
    48   21   22 ar
    49   21   47 1
    50   22   23 1
    51   23   48 1
    52   24   49 1
    53   24   50 1
@<TRIPOS>MOLECULE
ZINC02169418
   51    53     0     0     0
SMALL
USER_CHARGES

@<TRIPOS>ATOM
      1 C1         -0.1570    1.5040   -0.0065 C.3       1 <0>        -0.1558
      2 C2         -0.1131   -0.0252   -0.0294 C.3       1 <0>        -0.1485
      3 C3          0.6431   -0.4951   -1.2737 C.3       1 <0>        -0.0231
      4 N1          0.8044   -1.9545   -1.2266 N.4       1 <0>        -0.3815
      5 C4         -0.5154   -2.5956   -1.2986 C.3       1 <0>        -0.0142
      6 C5         -1.1513   -2.3024   -2.6589 C.3       1 <0>        -0.0995
      7 C6         -2.5572   -2.8446   -2.6836 C.ar      1 <0>        -0.1068
      8 C7         -2.7912   -4.1397   -3.1064 C.ar      1 <0>        -0.1099
      9 C8         -4.0807   -4.6371   -3.1290 C.ar      1 <0>        -0.1131
     10 C9         -5.1363   -3.8394   -2.7283 C.ar      1 <0>        -0.1045
     11 C10        -4.9022   -2.5446   -2.3046 C.ar      1 <0>        -0.1133
     12 C11        -3.6121   -2.0487   -2.2780 C.ar      1 <0>        -0.1110
     13 C12         1.6246   -2.3934   -2.3635 C.3       1 <0>         0.0189
     14 H1          1.1134   -2.1588   -3.2971 H         1 <0>         0.1441
     15 C13         1.8663   -3.9047   -2.2728 C.3       1 <0>        -0.1380
     16 C14         2.5094   -4.3686   -3.5782 C.3       1 <0>        -0.0721
     17 C15         3.7047   -3.5150   -3.9122 C.ar      1 <0>        -0.1100
     18 C16         3.9158   -2.2801   -3.3428 C.ar      1 <0>        -0.0758
     19 C17         5.0353   -1.5394   -3.7004 C.ar      1 <0>        -0.1203
     20 C18         5.9413   -2.0317   -4.6175 C.ar      1 <0>        -0.0943
     21 C19         5.7364   -3.2728   -5.1880 C.ar      1 <0>        -0.1328
     22 C20         4.6204   -4.0137   -4.8367 C.ar      1 <0>         0.1139
     23 O1          4.4168   -5.2348   -5.3974 O.3       1 <0>        -0.4943
     24 C21         2.9772   -1.6850   -2.3257 C.3       1 <0>        -0.0918
     25 H2          0.8596    1.8964    0.0164 H         1 <0>         0.0669
     26 H3         -0.6663    1.8663   -0.8995 H         1 <0>         0.0668
     27 H4         -0.6957    1.8388    0.8800 H         1 <0>         0.0774
     28 H5          0.3962   -0.3874    0.8637 H         1 <0>         0.0854
     29 H6         -1.1298   -0.4176   -0.0523 H         1 <0>         0.0867
     30 H7          0.0806   -0.2203   -2.1660 H         1 <0>         0.1320
     31 H8          1.6245   -0.0218   -1.3028 H         1 <0>         0.1335
     32 H9         -0.4033   -3.6727   -1.1745 H         1 <0>         0.1341
     33 H10        -1.1536   -2.2031   -0.5070 H         1 <0>         0.1358
     34 H11        -1.1743   -1.2253   -2.8247 H         1 <0>         0.0938
     35 H12        -0.5645   -2.7784   -3.4445 H         1 <0>         0.0952
     36 H13        -1.9665   -4.7629   -3.4194 H         1 <0>         0.1234
     37 H14        -4.2636   -5.6487   -3.4600 H         1 <0>         0.1294
     38 H15        -6.1439   -4.2278   -2.7467 H         1 <0>         0.1296
     39 H16        -5.7269   -1.9213   -1.9919 H         1 <0>         0.1292
     40 H17        -3.4288   -1.0383   -1.9434 H         1 <0>         0.1226
     41 H18         2.5331   -4.1205   -1.4380 H         1 <0>         0.0933
     42 H19         0.9169   -4.4203   -2.1278 H         1 <0>         0.0937
     43 H20         2.8266   -5.4062   -3.4738 H         1 <0>         0.1023
     44 H21         1.7793   -4.2959   -4.3843 H         1 <0>         0.0849
     45 H22         5.1980   -0.5685   -3.2564 H         1 <0>         0.1287
     46 H23         6.8084   -1.4477   -4.8889 H         1 <0>         0.1355
     47 H24         6.4431   -3.6637   -5.9050 H         1 <0>         0.1368
     48 H25         3.9013   -5.2111   -6.2152 H         1 <0>         0.3956
     49 H26         2.8347   -0.6265   -2.5431 H         1 <0>         0.1001
     50 H27         3.4111   -1.7918   -1.3315 H         1 <0>         0.0973
     51 H28         1.2583   -2.2150   -0.3640 H         1 <0>         0.4235
@<TRIPOS>BOND
     1    1    2 1
     2    1   25 1
     3    1   26 1
     4    1   27 1
     5    2    3 1
     6    2   28 1
     7    2   29 1
     8    3    4 1
     9    3   30 1
    10    3   31 1
    11    4    5 1
    12    4   13 1
    13    4   51 1
    14    5    6 1
    15    5   32 1
    16    5   33 1
    17    6    7 1
    18    6   34 1
    19    6   35 1
    20    7   12 ar
    21    7    8 ar
    22    8    9 ar
    23    8   36 1
    24    9   10 ar
    25    9   37 1
    26   10   11 ar
    27   10   38 1
    28   11   12 ar
    29   11   39 1
    30   12   40 1
    31   13   14 1
    32   13   24 1
    33   13   15 1
    34   15   16 1
    35   15   41 1
    36   15   42 1
    37   16   17 1
    38   16   43 1
    39   16   44 1
    40   17   22 ar
    41   17   18 ar
    42   18   19 ar
    43   18   24 1
    44   19   20 ar
    45   19   45 1
    46   20   21 ar
    47   20   46 1
    48   21   22 ar
    49   21   47 1
    50   22   23 1
    51   23   48 1
    52   24   49 1
    53   24   50 1
@<TRIPOS>MOLECULE
ZINC01851149
   58    61     0     0     0
SMALL
USER_CHARGES

@<TRIPOS>ATOM
      1 C1         -0.0167    1.3781    0.0096 C.ar      1 <0>        -0.0896
      2 C2          1.1690    2.0873    0.0021 C.ar      1 <0>        -0.1006
      3 C3          2.3816    1.4109   -0.0131 C.ar      1 <0>         0.1668
      4 C4          2.3986    0.0211   -0.0208 C.ar      1 <0>        -0.0379
      5 C5          1.2084   -0.6828   -0.0132 C.ar      1 <0>        -0.0271
      6 C6          0.0021   -0.0041    0.0020 C.ar      1 <0>        -0.0892
      7 Cl1         1.2271   -2.4187   -0.0233 Cl        1 <0>        -0.0322
      8 Cl2         3.9117   -0.8297   -0.0404 Cl        1 <0>        -0.0503
      9 N1          3.5822    2.1260   -0.0212 N.pl3     1 <0>        -0.6733
     10 C7          4.2166    2.5248   -1.2872 C.3       1 <0>         0.1212
     11 C8          5.6874    2.0967   -1.2494 C.3       1 <0>        -0.0255
     12 N2          6.3270    2.6517   -0.0498 N.4       1 <0>        -0.3792
     13 C9          5.7166    2.0749    1.1547 C.3       1 <0>        -0.0318
     14 C10         4.2444    2.5067    1.2361 C.3       1 <0>         0.1223
     15 C11         7.7610    2.3338   -0.0701 C.3       1 <0>        -0.0093
     16 C12         8.4515    3.0158    1.1127 C.3       1 <0>        -0.1453
     17 C13         9.9450    2.6847    1.0915 C.3       1 <0>        -0.1184
     18 C14        10.6355    3.3667    2.2743 C.3       1 <0>         0.0595
     19 O1         12.0305    3.0574    2.2545 O.3       1 <0>        -0.3124
     20 C15        12.7944    3.5890    3.2448 C.ar      1 <0>         0.1559
     21 C16        12.2111    4.3876    4.2189 C.ar      1 <0>        -0.2294
     22 C17        12.9865    4.9295    5.2261 C.ar      1 <0>        -0.0411
     23 C18        14.3441    4.6777    5.2669 C.ar      1 <0>        -0.1551
     24 C19        14.9331    3.8788    4.2952 C.ar      1 <0>         0.2059
     25 C20        14.1552    3.3295    3.2858 C.ar      1 <0>        -0.1852
     26 N3         16.3074    3.6248    4.3397 N.am      1 <0>        -0.6651
     27 C21        17.0003    3.8176    5.4770 C.2       1 <0>         0.5216
     28 O2         18.1945    3.6066    5.4945 O.2       1 <0>        -0.5157
     29 C22        16.3105    4.2925    6.7275 C.3       1 <0>        -0.1402
     30 C23        15.1900    5.2680    6.3653 C.3       1 <0>        -0.0752
     31 H1         -0.9596    1.9044    0.0260 H         1 <0>         0.1477
     32 H2          1.1527    3.1672    0.0077 H         1 <0>         0.1420
     33 H3         -0.9265   -0.5556    0.0083 H         1 <0>         0.1502
     34 H4          3.7134    2.0333   -2.1198 H         1 <0>         0.1171
     35 H5          4.1529    3.6066   -1.4040 H         1 <0>         0.0851
     36 H6          5.7487    1.0088   -1.2236 H         1 <0>         0.1293
     37 H7          6.1971    2.4687   -2.1381 H         1 <0>         0.1401
     38 H8          5.7771    0.9876    1.1077 H         1 <0>         0.1300
     39 H9          6.2479    2.4307    2.0374 H         1 <0>         0.1398
     40 H10         4.1834    3.5868    1.3697 H         1 <0>         0.0853
     41 H11         3.7595    2.0032    2.0724 H         1 <0>         0.1165
     42 H12         7.8950    1.2546    0.0040 H         1 <0>         0.1305
     43 H13         8.1993    2.6912   -1.0020 H         1 <0>         0.1352
     44 H14         8.3175    4.0950    1.0386 H         1 <0>         0.0923
     45 H15         8.0132    2.6584    2.0445 H         1 <0>         0.0907
     46 H16        10.0790    1.6055    1.1656 H         1 <0>         0.0866
     47 H17        10.3833    3.0420    0.1597 H         1 <0>         0.0875
     48 H18        10.5015    4.4459    2.2002 H         1 <0>         0.0675
     49 H19        10.1972    3.0093    3.2062 H         1 <0>         0.0669
     50 H20        11.1499    4.5859    4.1893 H         1 <0>         0.1286
     51 H21        12.5305    5.5511    5.9824 H         1 <0>         0.1354
     52 H22        14.6099    2.7045    2.5314 H         1 <0>         0.1380
     53 H23        16.7645    3.3072    3.5453 H         1 <0>         0.4136
     54 H24        15.8894    3.4371    7.2558 H         1 <0>         0.1060
     55 H25        17.0331    4.7940    7.3713 H         1 <0>         0.1134
     56 H26        15.6229    6.2086    6.0246 H         1 <0>         0.0845
     57 H27        14.5699    5.4506    7.2429 H         1 <0>         0.0936
     58 H28         6.2073    3.6535   -0.0392 H         1 <0>         0.4226
@<TRIPOS>BOND
     1    1    6 ar
     2    1    2 ar
     3    1   31 1
     4    2    3 ar
     5    2   32 1
     6    3    4 ar
     7    3    9 1
     8    4    5 ar
     9    4    8 1
    10    5    6 ar
    11    5    7 1
    12    6   33 1
    13    9   14 1
    14    9   10 1
    15   10   11 1
    16   10   34 1
    17   10   35 1
    18   11   12 1
    19   11   36 1
    20   11   37 1
    21   12   13 1
    22   12   15 1
    23   12   58 1
    24   13   14 1
    25   13   38 1
    26   13   39 1
    27   14   40 1
    28   14   41 1
    29   15   16 1
    30   15   42 1
    31   15   43 1
    32   16   17 1
    33   16   44 1
    34   16   45 1
    35   17   18 1
    36   17   46 1
    37   17   47 1
    38   18   19 1
    39   18   48 1
    40   18   49 1
    41   19   20 1
    42   20   25 ar
    43   20   21 ar
    44   21   22 ar
    45   21   50 1
    46   22   23 ar
    47   22   51 1
    48   23   30 1
    49   23   24 ar
    50   24   25 ar
    51   24   26 1
    52   25   52 1
    53   26   27 am
    54   26   53 1
    55   27   28 2
    56   27   29 1
    57   29   30 1
    58   29   54 1
    59   29   55 1
    60   30   56 1
    61   30   57 1
@<TRIPOS>MOLECULE
ZINC01851149
   57    60     0     0     0
SMALL
USER_CHARGES

@<TRIPOS>ATOM
      1 C1         -0.0167    1.3781    0.0096 C.ar      1 <0>        -0.0962
      2 C2          1.1690    2.0873    0.0021 C.ar      1 <0>        -0.1094
      3 C3          2.3816    1.4109   -0.0131 C.ar      1 <0>         0.1932
      4 C4          2.3986    0.0211   -0.0208 C.ar      1 <0>        -0.0428
      5 C5          1.2084   -0.6828   -0.0132 C.ar      1 <0>        -0.0286
      6 C6          0.0021   -0.0041    0.0020 C.ar      1 <0>        -0.1045
      7 Cl1         1.2271   -2.4187   -0.0233 Cl        1 <0>        -0.0488
      8 Cl2         3.9117   -0.8297   -0.0404 Cl        1 <0>        -0.0433
      9 N1          3.5822    2.1260   -0.0212 N.pl3     1 <0>        -0.6753
     10 C7          4.2154    2.5239   -1.2877 C.3       1 <0>         0.1522
     11 C8          5.6814    2.0786   -1.2601 C.3       1 <0>         0.0390
     12 N2          6.3271    2.6054   -0.0504 N.3       1 <0>        -0.5335
     13 C9          5.7110    2.0562    1.1648 C.3       1 <0>         0.0352
     14 C10         4.2431    2.5059    1.2366 C.3       1 <0>         0.1520
     15 C11         7.7731    2.3471   -0.0705 C.3       1 <0>         0.0570
     16 C12         8.4448    3.1181    1.0676 C.3       1 <0>        -0.1122
     17 C13         9.9508    2.8491    1.0467 C.3       1 <0>        -0.1185
     18 C14        10.6225    3.6201    2.1847 C.3       1 <0>         0.0609
     19 O1         12.0291    3.3688    2.1652 O.3       1 <0>        -0.3131
     20 C15        12.7788    3.9828    3.1179 C.ar      1 <0>         0.1632
     21 C16        12.1712    4.8060    4.0560 C.ar      1 <0>        -0.2281
     22 C17        12.9321    5.4316    5.0250 C.ar      1 <0>        -0.0412
     23 C18        14.2995    5.2392    5.0634 C.ar      1 <0>        -0.1625
     24 C19        14.9129    4.4161    4.1277 C.ar      1 <0>         0.2001
     25 C20        14.1497    3.7829    3.1569 C.ar      1 <0>        -0.1880
     26 N3         16.2971    4.2225    4.1697 N.am      1 <0>        -0.6633
     27 C21        16.9915    4.5031    5.2876 C.2       1 <0>         0.5225
     28 O2         18.1937    4.3433    5.3024 O.2       1 <0>        -0.5237
     29 C22        16.2937    5.0132    6.5196 C.3       1 <0>        -0.1395
     30 C23        15.1296    5.9209    6.1201 C.3       1 <0>        -0.0723
     31 H1         -0.9596    1.9044    0.0260 H         1 <0>         0.1404
     32 H2          1.1527    3.1672    0.0077 H         1 <0>         0.1387
     33 H3         -0.9265   -0.5556    0.0083 H         1 <0>         0.1426
     34 H4          3.7022    2.0431   -2.1205 H         1 <0>         0.0715
     35 H5          4.1638    3.6071   -1.3984 H         1 <0>         0.0629
     36 H6          5.7306    0.9897   -1.2538 H         1 <0>         0.0403
     37 H7          6.1944    2.4613   -2.1423 H         1 <0>         0.0804
     38 H8          5.7599    0.9676    1.1373 H         1 <0>         0.0406
     39 H9          6.2457    2.4226    2.0412 H         1 <0>         0.0819
     40 H10         4.1941    3.5874    1.3639 H         1 <0>         0.0629
     41 H11         3.7483    2.0131    2.0736 H         1 <0>         0.0709
     42 H12         7.9533    1.2798    0.0578 H         1 <0>         0.0339
     43 H13         8.1873    2.6734   -1.0245 H         1 <0>         0.0769
     44 H14         8.2646    4.1855    0.9393 H         1 <0>         0.0762
     45 H15         8.0306    2.7918    2.0216 H         1 <0>         0.0660
     46 H16        10.1310    1.7817    1.1750 H         1 <0>         0.0732
     47 H17        10.3650    3.1754    0.0927 H         1 <0>         0.0761
     48 H18        10.4423    4.6874    2.0565 H         1 <0>         0.0659
     49 H19        10.2083    3.2938    3.1387 H         1 <0>         0.0641
     50 H20        11.1023    4.9580    4.0282 H         1 <0>         0.1320
     51 H21        12.4571    6.0722    5.7533 H         1 <0>         0.1337
     52 H22        14.6236    3.1389    2.4308 H         1 <0>         0.1367
     53 H23        16.7599    3.8832    3.3877 H         1 <0>         0.4126
     54 H24        15.9140    4.1697    7.0961 H         1 <0>         0.1050
     55 H25        17.0002    5.5774    7.1284 H         1 <0>         0.1106
     56 H26        15.5192    6.8597    5.7264 H         1 <0>         0.0818
     57 H27        14.5104    6.1229    6.9941 H         1 <0>         0.0917
@<TRIPOS>BOND
     1    1    6 ar
     2    1    2 ar
     3    1   31 1
     4    2    3 ar
     5    2   32 1
     6    3    4 ar
     7    3    9 1
     8    4    5 ar
     9    4    8 1
    10    5    6 ar
    11    5    7 1
    12    6   33 1
    13    9   14 1
    14    9   10 1
    15   10   11 1
    16   10   34 1
    17   10   35 1
    18   11   12 1
    19   11   36 1
    20   11   37 1
    21   12   13 1
    22   12   15 1
    23   13   14 1
    24   13   38 1
    25   13   39 1
    26   14   40 1
    27   14   41 1
    28   15   16 1
    29   15   42 1
    30   15   43 1
    31   16   17 1
    32   16   44 1
    33   16   45 1
    34   17   18 1
    35   17   46 1
    36   17   47 1
    37   18   19 1
    38   18   48 1
    39   18   49 1
    40   19   20 1
    41   20   25 ar
    42   20   21 ar
    43   21   22 ar
    44   21   50 1
    45   22   23 ar
    46   22   51 1
    47   23   30 1
    48   23   24 ar
    49   24   25 ar
    50   24   26 1
    51   25   52 1
    52   26   27 am
    53   26   53 1
    54   27   28 2
    55   27   29 1
    56   29   30 1
    57   29   54 1
    58   29   55 1
    59   30   56 1
    60   30   57 1
@<TRIPOS>MOLECULE
ZINC01640539
   54    58     0     0     0
SMALL
USER_CHARGES
8-(benzothiophen-3-ylmethyl)-3-methyl-1-phenyl-1,3,8-triazaspiro[4.5]decan-4-one
@<TRIPOS>ATOM
      1 C1          4.8033    5.2887    2.4855 C.3       1 <0>         0.0915
      2 N1          3.7169    5.0562    1.5306 N.am      1 <0>        -0.6138
      3 C2          3.0521    3.7669    1.3018 C.3       1 <0>         0.2399
      4 N2          2.3532    3.8878    0.0009 N.pl3     1 <0>        -0.4405
      5 C3          2.1010    5.3397   -0.1092 C.3       1 <0>         0.0528
      6 C4          3.1737    5.9941    0.7261 C.2       1 <0>         0.5255
      7 O1          3.4932    7.1632    0.6823 O.2       1 <0>        -0.5127
      8 C5          0.7176    5.6756    0.4412 C.3       1 <0>        -0.1630
      9 C6          0.4583    7.1759    0.2779 C.3       1 <0>        -0.0165
     10 C7          1.9072    7.2804   -1.6636 C.3       1 <0>        -0.0147
     11 C8          2.2145    5.7835   -1.5651 C.3       1 <0>        -0.1193
     12 C9          0.1704    8.9387   -1.3563 C.3       1 <0>         0.0630
     13 C10        -1.2927    9.1085   -1.0374 C.2       1 <0>        -0.1831
     14 C11        -2.2006    9.1464   -2.0232 C.2       1 <0>        -0.1094
     15 S1         -3.7460    9.3526   -1.1590 S.3       1 <0>         0.1055
     16 C12        -3.1283    9.3920    0.5037 C.ar      1 <0>        -0.1170
     17 C13        -1.7338    9.2391    0.3435 C.ar      1 <0>        -0.0960
     18 C14        -0.9570    9.2329    1.5259 C.ar      1 <0>        -0.1041
     19 C15        -1.5450    9.3689    2.7444 C.ar      1 <0>        -0.1040
     20 C16        -2.9190    9.5175    2.8748 C.ar      1 <0>        -0.0828
     21 C17        -3.7124    9.5286    1.7445 C.ar      1 <0>        -0.0649
     22 C18         1.1546    3.1707    0.0081 C.ar      1 <0>         0.0817
     23 C19         0.2688    3.2849   -1.0559 C.ar      1 <0>        -0.1416
     24 C20        -0.9152    2.5740   -1.0458 C.ar      1 <0>        -0.0944
     25 C21        -1.2220    1.7538    0.0244 C.ar      1 <0>        -0.1243
     26 C22        -0.3398    1.6335    1.0825 C.ar      1 <0>        -0.0844
     27 C23         0.8459    2.3414    1.0789 C.ar      1 <0>        -0.1597
     28 H1          5.1047    6.3354    2.4452 H         1 <0>         0.0920
     29 H2          4.4604    5.0479    3.4917 H         1 <0>         0.0744
     30 H3          5.6532    4.6558    2.2301 H         1 <0>         0.0762
     31 H4          2.3328    3.5699    2.0968 H         1 <0>         0.0836
     32 H5          3.7910    2.9668    1.2574 H         1 <0>         0.1155
     33 H6         -0.0384    5.1139   -0.1074 H         1 <0>         0.1186
     34 H7          0.6724    5.4115    1.4977 H         1 <0>         0.1123
     35 H8          1.1978    7.7368    0.8494 H         1 <0>         0.1364
     36 H9         -0.5405    7.4140    0.6437 H         1 <0>         0.1455
     37 H10         2.6367    7.8404   -1.0785 H         1 <0>         0.1534
     38 H11         1.9595    7.5943   -2.7061 H         1 <0>         0.1369
     39 H12         3.2261    5.5953   -1.9250 H         1 <0>         0.1239
     40 H13         1.5021    5.2251   -2.1723 H         1 <0>         0.1027
     41 H14         0.7612    9.5835   -0.7058 H         1 <0>         0.1381
     42 H15         0.3494    9.2100   -2.3967 H         1 <0>         0.1399
     43 H16        -2.0352    9.0685   -3.0877 H         1 <0>         0.2021
     44 H17         0.1150    9.1192    1.4599 H         1 <0>         0.1246
     45 H18        -0.9287    9.3608    3.6313 H         1 <0>         0.1356
     46 H19        -3.3643    9.6240    3.8530 H         1 <0>         0.1443
     47 H20        -4.7827    9.6431    1.8323 H         1 <0>         0.1411
     48 H21         0.5059    3.9285   -1.8901 H         1 <0>         0.1255
     49 H22        -1.6044    2.6623   -1.8727 H         1 <0>         0.1317
     50 H23        -2.1508    1.2027    0.0320 H         1 <0>         0.1307
     51 H24        -0.5806    0.9888    1.9149 H         1 <0>         0.1324
     52 H25         1.5323    2.2507    1.9078 H         1 <0>         0.1343
     53 N3          0.5387    7.5218   -1.1576 N.4       1 <0>        -0.3876
     54 H26        -0.1183    6.9303   -1.6797 H         1 <0>         0.4222
@<TRIPOS>BOND
     1    1    2 1
     2    1   28 1
     3    1   29 1
     4    1   30 1
     5    2    6 am
     6    2    3 1
     7    3    4 1
     8    3   31 1
     9    3   32 1
    10    4    5 1
    11    4   22 1
    12    5   11 1
    13    5    6 1
    14    5    8 1
    15    6    7 2
    16    8    9 1
    17    8   33 1
    18    8   34 1
    19    9   35 1
    20    9   36 1
    21    9   53 1
    22   10   11 1
    23   10   37 1
    24   10   38 1
    25   10   53 1
    26   11   39 1
    27   11   40 1
    28   12   13 1
    29   12   41 1
    30   12   42 1
    31   12   53 1
    32   13   17 1
    33   13   14 2
    34   14   15 1
    35   14   43 1
    36   15   16 1
    37   16   21 ar
    38   16   17 ar
    39   17   18 ar
    40   18   19 ar
    41   18   44 1
    42   19   20 ar
    43   19   45 1
    44   20   21 ar
    45   20   46 1
    46   21   47 1
    47   22   27 ar
    48   22   23 ar
    49   23   24 ar
    50   23   48 1
    51   24   25 ar
    52   24   49 1
    53   25   26 ar
    54   25   50 1
    55   26   27 ar
    56   26   51 1
    57   27   52 1
    58   53   54 1
@<TRIPOS>MOLECULE
ZINC23282651
   46    49     0     0     0
SMALL
USER_CHARGES
4-(4-bromophenyl)-1-(1H-indol-3-ylmethyl)piperidin-4-ol
@<TRIPOS>ATOM
      1 C1         -3.6682    0.3380    5.1309 C.ar      1 <0>        -0.1217
      2 C2         -3.8390    1.2807    6.1358 C.ar      1 <0>        -0.0924
      3 C3         -2.9642    2.3370    6.2643 C.ar      1 <0>        -0.1143
      4 C4         -1.8980    2.4628    5.3794 C.ar      1 <0>         0.0875
      5 C5         -1.7294    1.5050    4.3630 C.ar      1 <0>        -0.0993
      6 C6         -2.6283    0.4425    4.2509 C.ar      1 <0>        -0.0989
      7 C7         -0.5382    1.9140    3.6150 C.2       1 <0>        -0.2670
      8 C8         -0.0759    3.0331    4.1946 C.2       1 <0>         0.1342
      9 N1         -0.8789    3.3791    5.2472 N.pl3     1 <0>        -0.5926
     10 H1         -0.8113    4.2304    5.9405 H         1 <0>         0.4586
     11 C9          0.0589    1.2086    2.4247 C.3       1 <0>         0.0881
     12 N2         -0.6996    1.5592    1.2165 N.4       1 <0>        -0.3943
     13 C10        -0.0127    1.0858    0.0080 C.3       1 <0>        -0.0016
     14 C11        -0.7525    1.5926   -1.2322 C.3       1 <0>        -0.1336
     15 C12        -2.1941    1.0772   -1.2067 C.3       1 <0>         0.1848
     16 C13        -2.8718    1.5436    0.0848 C.3       1 <0>        -0.1679
     17 C14        -2.0706    1.0383    1.2868 C.3       1 <0>        -0.0076
     18 C15        -2.9443    1.6207   -2.3953 C.ar      1 <0>        -0.1101
     19 C16        -2.6041    2.8523   -2.9229 C.ar      1 <0>        -0.1100
     20 C17        -3.2887    3.3491   -4.0161 C.ar      1 <0>        -0.0848
     21 C18        -4.3214    2.6183   -4.5755 C.ar      1 <0>        -0.0834
     22 C19        -4.6649    1.3884   -4.0440 C.ar      1 <0>        -0.0828
     23 C20        -3.9763    0.8901   -2.9541 C.ar      1 <0>        -0.0997
     24 Br1        -5.2628    3.3004   -6.0670 Br        1 <0>        -0.0321
     25 O1         -2.1916   -0.3510   -1.2558 O.3       1 <0>        -0.5773
     26 H2         -4.3632   -0.4840    5.0438 H         1 <0>         0.1302
     27 H3         -4.6662    1.1850    6.8235 H         1 <0>         0.1342
     28 H4         -3.1058    3.0653    7.0491 H         1 <0>         0.1288
     29 H5         -2.5019   -0.2944    3.4715 H         1 <0>         0.1202
     30 H6          0.7989    3.5805    3.8760 H         1 <0>         0.1793
     31 H7          1.1071    1.5189    2.3025 H         1 <0>         0.1335
     32 H8          0.0145    0.1209    2.5828 H         1 <0>         0.1287
     33 H9          1.0193    1.4664   -0.0000 H         1 <0>         0.1318
     34 H10         0.0021   -0.0141    0.0017 H         1 <0>         0.1346
     35 H11        -0.7545    2.6926   -1.2340 H         1 <0>         0.1030
     36 H12        -0.2459    1.2254   -2.1369 H         1 <0>         0.1210
     37 H13        -2.9093    2.6428    0.1029 H         1 <0>         0.0957
     38 H14        -3.8946    1.1410    0.1283 H         1 <0>         0.1129
     39 H15        -2.0461   -0.0614    1.2745 H         1 <0>         0.1283
     40 H16        -2.5470    1.3840    2.2160 H         1 <0>         0.1398
     41 H17        -1.8005    3.4246   -2.4835 H         1 <0>         0.1321
     42 H18        -3.0200    4.3093   -4.4310 H         1 <0>         0.1386
     43 H19        -5.4709    0.8174   -4.4807 H         1 <0>         0.1394
     44 H20        -4.2442   -0.0704   -2.5392 H         1 <0>         0.1316
     45 H21        -3.1428   -0.9033   -1.2463 H         1 <0>         0.4209
     46 H22        -0.7603    2.6560    1.1594 H         1 <0>         0.4336
@<TRIPOS>BOND
     1    1    6 ar
     2    1    2 ar
     3    1   26 1
     4    2    3 ar
     5    2   27 1
     6    3    4 ar
     7    3   28 1
     8    4    9 1
     9    4    5 ar
    10    5    6 ar
    11    5    7 1
    12    6   29 1
    13    7    8 2
    14    7   11 1
    15    8    9 1
    16    8   30 1
    17    9   10 1
    18   11   12 1
    19   11   31 1
    20   11   32 1
    21   12   17 1
    22   12   13 1
    23   12   46 1
    24   13   14 1
    25   13   33 1
    26   13   34 1
    27   14   15 1
    28   14   35 1
    29   14   36 1
    30   15   16 1
    31   15   18 1
    32   15   25 1
    33   16   17 1
    34   16   37 1
    35   16   38 1
    36   17   39 1
    37   17   40 1
    38   18   23 ar
    39   18   19 ar
    40   19   20 ar
    41   19   41 1
    42   20   21 ar
    43   20   42 1
    44   21   22 ar
    45   21   24 1
    46   22   23 ar
    47   22   43 1
    48   23   44 1
    49   25   45 1
@<TRIPOS>MOLECULE
ZINC58534146
   49    52     0     0     0
SMALL
USER_CHARGES

@<TRIPOS>ATOM
      1 C1         -0.0184    1.5028    0.0103 C.3       1 <0>        -0.0996
      2 C2          0.0021   -0.0041    0.0020 C.2       1 <0>         0.0984
      3 C3          0.0079   -0.7962   -1.0951 C.2       1 <0>        -0.2191
      4 C4          0.0288   -2.1275   -0.6651 C.2       1 <0>         0.0733
      5 N1          0.0352   -2.1353    0.6436 N.2       1 <0>        -0.2899
      6 N2          0.0238   -0.8074    1.0896 N.pl3     1 <0>        -0.3246
      7 C5          0.0312   -0.3860    2.4265 C.ar      1 <0>         0.1539
      8 C6          0.7035    0.7742    2.7864 C.ar      1 <0>        -0.1333
      9 C7          0.7086    1.1871    4.1044 C.ar      1 <0>        -0.0985
     10 C8          0.0452    0.4462    5.0651 C.ar      1 <0>        -0.1219
     11 C9         -0.6253   -0.7098    4.7098 C.ar      1 <0>        -0.0997
     12 C10        -0.6384   -1.1250    3.3925 C.ar      1 <0>        -0.1117
     13 C11        -0.0061   -0.3272   -2.5272 C.3       1 <0>         0.1018
     14 N3          1.3502    0.0734   -2.9246 N.3       1 <0>        -0.4590
     15 C12         1.5508    1.5219   -2.7335 C.3       1 <0>         0.0036
     16 C13         2.2966    1.5392   -4.0752 C.3       1 <0>         0.0615
     17 C14         1.4266    0.3112   -4.3781 C.3       1 <0>        -0.0176
     18 O1          2.0075    2.6765   -4.8907 O.3       1 <0>        -0.2985
     19 C15         2.9948    3.1077   -5.7217 C.ar      1 <0>         0.0246
     20 C16         3.9164    4.0507   -5.2788 C.ar      1 <0>         0.1418
     21 C17         4.9203    4.4871   -6.1287 C.ar      1 <0>        -0.2106
     22 C18         5.0052    3.9857   -7.4144 C.ar      1 <0>        -0.0513
     23 C19         4.0899    3.0489   -7.8563 C.ar      1 <0>        -0.1810
     24 C20         3.0880    2.6038   -7.0107 C.ar      1 <0>         0.1253
     25 F1          2.1984    1.6833   -7.4425 F         1 <0>        -0.1233
     26 O2          3.8322    4.5439   -4.0142 O.3       1 <0>        -0.3005
     27 C21         4.8124    5.5093   -3.6278 C.3       1 <0>         0.0230
     28 H1          1.0042    1.8801    0.0026 H         1 <0>         0.0844
     29 H2         -0.5455    1.8639   -0.8728 H         1 <0>         0.0852
     30 H3         -0.5286    1.8543    0.9071 H         1 <0>         0.0758
     31 H4          0.0380   -2.9987   -1.3034 H         1 <0>         0.1878
     32 H5          1.2221    1.3531    2.0366 H         1 <0>         0.1316
     33 H6          1.2317    2.0894    4.3850 H         1 <0>         0.1334
     34 H7          0.0509    0.7709    6.0951 H         1 <0>         0.1301
     35 H8         -1.1423   -1.2866    5.4624 H         1 <0>         0.1328
     36 H9         -1.1656   -2.0257    3.1149 H         1 <0>         0.1331
     37 H10        -0.3492   -1.1368   -3.1713 H         1 <0>         0.0863
     38 H11        -0.6795    0.5244   -2.6241 H         1 <0>         0.0554
     39 H12         0.6231    2.0940   -2.7450 H         1 <0>         0.0820
     40 H13         2.1854    1.7637   -1.8809 H         1 <0>         0.0909
     41 H14         3.3620    1.3229   -3.9965 H         1 <0>         0.1015
     42 H15         1.9559   -0.4731   -4.9192 H         1 <0>         0.0917
     43 H16         0.4657    0.5602   -4.8284 H         1 <0>         0.0821
     44 H17         5.6365    5.2195   -5.7867 H         1 <0>         0.1407
     45 H18         5.7883    4.3271   -8.0751 H         1 <0>         0.1410
     46 H19         4.1591    2.6602   -8.8615 H         1 <0>         0.1435
     47 H20         5.8064    5.0687   -3.7048 H         1 <0>         0.0588
     48 H21         4.7474    6.3763   -4.2853 H         1 <0>         0.0597
     49 H22         4.6311    5.8193   -2.5987 H         1 <0>         0.1049
@<TRIPOS>BOND
     1    1    2 1
     2    1   28 1
     3    1   29 1
     4    1   30 1
     5    2    6 1
     6    2    3 2
     7    3    4 1
     8    3   13 1
     9    4    5 2
    10    4   31 1
    11    5    6 1
    12    6    7 1
    13    7   12 ar
    14    7    8 ar
    15    8    9 ar
    16    8   32 1
    17    9   10 ar
    18    9   33 1
    19   10   11 ar
    20   10   34 1
    21   11   12 ar
    22   11   35 1
    23   12   36 1
    24   13   14 1
    25   13   37 1
    26   13   38 1
    27   14   17 1
    28   14   15 1
    29   15   16 1
    30   15   39 1
    31   15   40 1
    32   16   17 1
    33   16   18 1
    34   16   41 1
    35   17   42 1
    36   17   43 1
    37   18   19 1
    38   19   24 ar
    39   19   20 ar
    40   20   21 ar
    41   20   26 1
    42   21   22 ar
    43   21   44 1
    44   22   23 ar
    45   22   45 1
    46   23   24 ar
    47   23   46 1
    48   24   25 1
    49   26   27 1
    50   27   47 1
    51   27   48 1
    52   27   49 1
@<TRIPOS>MOLECULE
ZINC58534146
   50    53     0     0     0
SMALL
USER_CHARGES

@<TRIPOS>ATOM
      1 C1         -0.0184    1.5028    0.0103 C.3       1 <0>        -0.1214
      2 C2          0.0021   -0.0041    0.0020 C.2       1 <0>         0.1353
      3 C3          0.0079   -0.7962   -1.0951 C.2       1 <0>        -0.3146
      4 C4          0.0288   -2.1275   -0.6651 C.2       1 <0>         0.0811
      5 N1          0.0352   -2.1353    0.6436 N.2       1 <0>        -0.2673
      6 N2          0.0238   -0.8074    1.0896 N.pl3     1 <0>        -0.2995
      7 C5          0.0312   -0.3860    2.4265 C.ar      1 <0>         0.1231
      8 C6          0.7035    0.7742    2.7864 C.ar      1 <0>        -0.1268
      9 C7          0.7086    1.1871    4.1044 C.ar      1 <0>        -0.0979
     10 C8          0.0452    0.4462    5.0651 C.ar      1 <0>        -0.1043
     11 C9         -0.6253   -0.7098    4.7098 C.ar      1 <0>        -0.0965
     12 C10        -0.6384   -1.1250    3.3925 C.ar      1 <0>        -0.0993
     13 C11        -0.0061   -0.3272   -2.5272 C.3       1 <0>         0.0946
     14 N3          1.3502    0.0734   -2.9246 N.4       1 <0>        -0.4029
     15 C12         1.6666    1.4765   -2.5985 C.3       1 <0>        -0.0068
     16 C13         2.4246    1.5570   -3.9310 C.3       1 <0>         0.0517
     17 C14         1.4603    0.4382   -4.3493 C.3       1 <0>        -0.0237
     18 O1          2.2375    2.7851   -4.6372 O.3       1 <0>        -0.2693
     19 C15         3.2649    3.2090   -5.4220 C.ar      1 <0>        -0.0046
     20 C16         4.2560    4.0278   -4.8908 C.ar      1 <0>         0.1533
     21 C17         5.3006    4.4572   -5.6939 C.ar      1 <0>        -0.2079
     22 C18         5.3571    4.0723   -7.0206 C.ar      1 <0>        -0.0328
     23 C19         4.3728    3.2591   -7.5502 C.ar      1 <0>        -0.1779
     24 C20         3.3295    2.8212   -6.7522 C.ar      1 <0>         0.1348
     25 F1          2.3721    2.0211   -7.2703 F         1 <0>        -0.1232
     26 O2          4.1998    4.4065   -3.5858 O.3       1 <0>        -0.3061
     27 C21         5.2517    5.2479   -3.1086 C.3       1 <0>         0.0201
     28 H1          1.0042    1.8801    0.0026 H         1 <0>         0.0925
     29 H2         -0.5455    1.8639   -0.8728 H         1 <0>         0.0932
     30 H3         -0.5286    1.8543    0.9071 H         1 <0>         0.0948
     31 H4          0.0380   -2.9987   -1.3034 H         1 <0>         0.1978
     32 H5          1.2221    1.3531    2.0366 H         1 <0>         0.1304
     33 H6          1.2317    2.0894    4.3850 H         1 <0>         0.1394
     34 H7          0.0509    0.7709    6.0951 H         1 <0>         0.1376
     35 H8         -1.1423   -1.2866    5.4624 H         1 <0>         0.1401
     36 H9         -1.1656   -2.0257    3.1149 H         1 <0>         0.1364
     37 H10        -0.3492   -1.1368   -3.1713 H         1 <0>         0.1398
     38 H11        -0.6795    0.5244   -2.6241 H         1 <0>         0.1328
     39 H12         0.7888    2.1215   -2.5586 H         1 <0>         0.1593
     40 H13         2.3102    1.5849   -1.7255 H         1 <0>         0.1401
     41 H14         3.4679    1.2474   -3.8704 H         1 <0>         0.1289
     42 H15         1.9290   -0.3333   -4.9601 H         1 <0>         0.1423
     43 H16         0.5274    0.8062   -4.7766 H         1 <0>         0.1606
     44 H17         6.0709    5.0932   -5.2832 H         1 <0>         0.1474
     45 H18         6.1720    4.4080   -7.6447 H         1 <0>         0.1487
     46 H19         4.4201    2.9611   -8.5872 H         1 <0>         0.1506
     47 H20         6.2071    4.7361   -3.2241 H         1 <0>         0.0631
     48 H21         5.2643    6.1746   -3.6823 H         1 <0>         0.0657
     49 H22         5.0860    5.4747   -2.0554 H         1 <0>         0.1094
     50 H23         2.0577   -0.5792   -2.6217 H         1 <0>         0.4380
@<TRIPOS>BOND
     1    1    2 1
     2    1   28 1
     3    1   29 1
     4    1   30 1
     5    2    6 1
     6    2    3 2
     7    3    4 1
     8    3   13 1
     9    4    5 2
    10    4   31 1
    11    5    6 1
    12    6    7 1
    13    7   12 ar
    14    7    8 ar
    15    8    9 ar
    16    8   32 1
    17    9   10 ar
    18    9   33 1
    19   10   11 ar
    20   10   34 1
    21   11   12 ar
    22   11   35 1
    23   12   36 1
    24   13   14 1
    25   13   37 1
    26   13   38 1
    27   14   17 1
    28   14   15 1
    29   14   50 1
    30   15   16 1
    31   15   39 1
    32   15   40 1
    33   16   17 1
    34   16   18 1
    35   16   41 1
    36   17   42 1
    37   17   43 1
    38   18   19 1
    39   19   24 ar
    40   19   20 ar
    41   20   21 ar
    42   20   26 1
    43   21   22 ar
    44   21   44 1
    45   22   23 ar
    46   22   45 1
    47   23   24 ar
    48   23   46 1
    49   24   25 1
    50   26   27 1
    51   27   47 1
    52   27   48 1
    53   27   49 1
@<TRIPOS>MOLECULE
ZINC12579229
   44    47     0     0     0
SMALL
USER_CHARGES
2-[[4-(2-nitrophenyl)piperazin-1-yl]methyl]-1H-benzimidazole
@<TRIPOS>ATOM
      1 C1         -1.1507   -6.5570   -0.4613 C.ar      1 <0>        -0.1012
      2 C2         -1.0583   -6.2811   -1.8182 C.ar      1 <0>        -0.1297
      3 C3         -1.0639   -4.9916   -2.2690 C.ar      1 <0>        -0.0637
      4 C4         -1.1625   -3.9361   -1.3585 C.ar      1 <0>         0.0422
      5 C5         -1.2561   -4.2149    0.0154 C.ar      1 <0>         0.0402
      6 C6         -1.2493   -5.5318    0.4550 C.ar      1 <0>        -0.1135
      7 N1         -1.3396   -2.9906    0.6478 N.pl3     1 <0>        -0.6110
      8 H1         -1.4223   -2.9421    1.7436 H         1 <0>         0.4476
      9 C7         -1.2967   -2.0329   -0.3173 C.2       1 <0>         0.3024
     10 N2         -1.1980   -2.5852   -1.4912 N.2       1 <0>        -0.4746
     11 C8         -1.3606   -0.5487   -0.0642 C.3       1 <0>         0.1328
     12 N3          0.0021   -0.0041    0.0020 N.3       1 <0>        -0.5309
     13 C9         -0.0179    1.4653    0.0101 C.3       1 <0>         0.0590
     14 C10         1.4190    1.9924   -0.0008 C.3       1 <0>         0.0644
     15 N4          2.1378    1.4719    1.1705 N.pl3     1 <0>        -0.4960
     16 C11         2.1578    0.0025    1.1624 C.3       1 <0>         0.0655
     17 C12         0.7209   -0.5246    1.1733 C.3       1 <0>         0.0543
     18 C13         3.4335    1.9897    1.2334 C.ar      1 <0>         0.1560
     19 C14         4.3518    1.6913    0.2345 C.ar      1 <0>        -0.1510
     20 C15         5.6302    2.2096    0.2969 C.ar      1 <0>        -0.0582
     21 C16         6.0003    3.0156    1.3581 C.ar      1 <0>        -0.1196
     22 C17         5.0906    3.3100    2.3568 C.ar      1 <0>        -0.0527
     23 C18         3.8085    2.7995    2.2977 C.ar      1 <0>        -0.0273
     24 N5          2.8355    3.1147    3.3675 N.pl3     1 <0>         0.0277
     25 O1          3.1651    3.8249    4.3005 O.2       1 <0>        -0.1954
     26 O2          1.7052    2.6639    3.3149 O.3       1 <0>        -0.1024
     27 H2         -1.1456   -7.5819   -0.1209 H         1 <0>         0.1295
     28 H3         -0.9816   -7.0941   -2.5250 H         1 <0>         0.1289
     29 H4         -0.9919   -4.7882   -3.3272 H         1 <0>         0.1277
     30 H5         -1.3213   -5.7520    1.5099 H         1 <0>         0.1221
     31 H6         -1.9112   -0.0607   -0.8819 H         1 <0>         0.1147
     32 H7         -1.8771   -0.3611    0.8887 H         1 <0>         0.0616
     33 H8         -0.5500    1.8297   -0.8811 H         1 <0>         0.0919
     34 H9         -0.5328    1.8200    0.9151 H         1 <0>         0.0578
     35 H10         1.9244    1.6604   -0.9197 H         1 <0>         0.0537
     36 H11         1.4066    3.0918    0.0341 H         1 <0>         0.0847
     37 H12         2.6727   -0.3522    0.2574 H         1 <0>         0.0524
     38 H13         2.6899   -0.3619    2.0535 H         1 <0>         0.0818
     39 H14         0.2145   -0.1926    2.0916 H         1 <0>         0.0554
     40 H15         0.7323   -1.6240    1.1378 H         1 <0>         0.0798
     41 H16         4.0648    1.0583   -0.5921 H         1 <0>         0.1446
     42 H17         6.3433    1.9813   -0.4814 H         1 <0>         0.1437
     43 H18         7.0022    3.4158    1.4069 H         1 <0>         0.1488
     44 H19         5.3829    3.9394    3.1843 H         1 <0>         0.1560
@<TRIPOS>BOND
     1    1    6 ar
     2    1    2 ar
     3    1   27 1
     4    2    3 ar
     5    2   28 1
     6    3    4 ar
     7    3   29 1
     8    4   10 1
     9    4    5 ar
    10    5    6 ar
    11    5    7 1
    12    6   30 1
    13    7    8 1
    14    7    9 1
    15    9   10 2
    16    9   11 1
    17   11   12 1
    18   11   31 1
    19   11   32 1
    20   12   17 1
    21   12   13 1
    22   13   14 1
    23   13   33 1
    24   13   34 1
    25   14   15 1
    26   14   35 1
    27   14   36 1
    28   15   16 1
    29   15   18 1
    30   16   17 1
    31   16   37 1
    32   16   38 1
    33   17   39 1
    34   17   40 1
    35   18   23 ar
    36   18   19 ar
    37   19   20 ar
    38   19   41 1
    39   20   21 ar
    40   20   42 1
    41   21   22 ar
    42   21   43 1
    43   22   23 ar
    44   22   44 1
    45   23   24 1
    46   24   25 2
    47   24   26 1
@<TRIPOS>MOLECULE
ZINC01481744
   59    63     0     0     0
SMALL
USER_CHARGES
tert-butylBLAHol
@<TRIPOS>ATOM
      1 C1          7.4021    8.7034   -0.7443 C.3       1 <0>        -0.1466
      2 C2          7.5600    7.3733   -0.0048 C.3       1 <0>        -0.0472
      3 C3          8.5881    6.5044   -0.7320 C.3       1 <0>        -0.1553
      4 C4          8.0362    7.6381    1.4249 C.3       1 <0>        -0.1470
      5 C5          6.2137    6.6474    0.0323 C.3       1 <0>         0.1386
      6 C6          5.7356    6.3816   -1.3980 C.3       1 <0>        -0.1808
      7 C7          4.4166    5.6077   -1.3542 C.3       1 <0>        -0.0052
      8 C8          3.3652    3.5592   -0.6154 C.3       1 <0>        -0.0027
      9 C9          3.6680    2.1410   -0.1452 C.3       1 <0>        -0.0191
     10 H1          4.2105    1.6604   -0.9594 H         1 <0>         0.1021
     11 C10         2.3734    1.3946   -0.0260 C.ar      1 <0>        -0.0842
     12 C11         1.1723    2.0854    0.0021 C.ar      1 <0>        -0.1223
     13 C12        -0.0167    1.3784    0.0096 C.ar      1 <0>        -0.1108
     14 C13         0.0021   -0.0041    0.0020 C.ar      1 <0>        -0.1048
     15 C14         1.2071   -0.6813    0.0133 C.ar      1 <0>        -0.1051
     16 C15         2.3948    0.0364    0.0071 C.ar      1 <0>        -0.0695
     17 C16         3.7024   -0.6896    0.1021 C.3       1 <0>        -0.0845
     18 C17         4.3272   -0.4713    1.4512 C.3       1 <0>        -0.0850
     19 C18         4.8103    0.9217    1.7463 C.ar      1 <0>        -0.0444
     20 C19         4.5590    2.0827    1.0479 C.ar      1 <0>        -0.0603
     21 C20         5.1779    3.2568    1.4753 C.ar      1 <0>        -0.1299
     22 C21         5.9679    3.2844    2.6137 C.ar      1 <0>        -0.0975
     23 C22         6.1786    2.1330    3.3379 C.ar      1 <0>        -0.0990
     24 C23         5.6072    0.9672    2.8970 C.ar      1 <0>        -0.1046
     25 C24         5.0337    4.5665    0.7444 C.3       1 <0>         0.0810
     26 H2          4.2805    5.1671    1.2544 H         1 <0>         0.1391
     27 C25         6.3702    5.3111    0.7637 C.3       1 <0>        -0.1720
     28 O1          5.2533    7.4561    0.7147 O.3       1 <0>        -0.5331
     29 H3          6.6697    9.3225   -0.2261 H         1 <0>         0.0690
     30 H4          8.3612    9.2205   -0.7707 H         1 <0>         0.0638
     31 H5          7.0629    8.5148   -1.7628 H         1 <0>         0.0556
     32 H6          8.2488    6.3158   -1.7506 H         1 <0>         0.0600
     33 H7          9.5472    7.0215   -0.7584 H         1 <0>         0.0731
     34 H8          8.7006    5.5568   -0.2052 H         1 <0>         0.0598
     35 H9          8.1487    6.6905    1.9518 H         1 <0>         0.0543
     36 H10         8.9953    8.1552    1.3985 H         1 <0>         0.0641
     37 H11         7.3038    8.2571    1.9431 H         1 <0>         0.0692
     38 H12         6.4847    5.7942   -1.9288 H         1 <0>         0.1035
     39 H13         5.5840    7.3302   -1.9132 H         1 <0>         0.1274
     40 H14         4.0813    5.4044   -2.3713 H         1 <0>         0.1398
     41 H15         3.6639    6.2024   -0.8366 H         1 <0>         0.1295
     42 H16         2.9358    3.5269   -1.6168 H         1 <0>         0.1429
     43 H17         2.6573    4.0264    0.0692 H         1 <0>         0.1364
     44 H18         1.1646    3.1652    0.0175 H         1 <0>         0.1229
     45 H19        -0.9590    1.9060    0.0169 H         1 <0>         0.1296
     46 H20        -0.9263   -0.5557   -0.0124 H         1 <0>         0.1306
     47 H21         1.2241   -1.7611    0.0273 H         1 <0>         0.1320
     48 H22         3.5343   -1.7559   -0.0490 H         1 <0>         0.0895
     49 H23         4.3776   -0.3184   -0.6689 H         1 <0>         0.0749
     50 H24         3.5946   -0.7431    2.2111 H         1 <0>         0.0852
     51 H25         5.1749   -1.1501    1.5451 H         1 <0>         0.0900
     52 H26         6.4197    4.2119    2.9332 H         1 <0>         0.1353
     53 H27         6.7814    2.1475    4.2340 H         1 <0>         0.1400
     54 H28         5.7764    0.0573    3.4536 H         1 <0>         0.1328
     55 H29         7.1294    4.7094    0.2640 H         1 <0>         0.1055
     56 H30         6.6704    5.4938    1.7955 H         1 <0>         0.1265
     57 H31         4.3755    7.0555    0.7778 H         1 <0>         0.3658
     58 N1          4.6164    4.3231   -0.6385 N.4       1 <0>        -0.3871
     59 H32         5.3405    3.7791   -1.1223 H         1 <0>         0.4282
@<TRIPOS>BOND
     1    1    2 1
     2    1   29 1
     3    1   30 1
     4    1   31 1
     5    2    3 1
     6    2    4 1
     7    2    5 1
     8    3   32 1
     9    3   33 1
    10    3   34 1
    11    4   35 1
    12    4   36 1
    13    4   37 1
    14    5   27 1
    15    5    6 1
    16    5   28 1
    17    6    7 1
    18    6   38 1
    19    6   39 1
    20    7   40 1
    21    7   41 1
    22    7   58 1
    23    8    9 1
    24    8   42 1
    25    8   43 1
    26    8   58 1
    27    9   10 1
    28    9   20 1
    29    9   11 1
    30   11   16 ar
    31   11   12 ar
    32   12   13 ar
    33   12   44 1
    34   13   14 ar
    35   13   45 1
    36   14   15 ar
    37   14   46 1
    38   15   16 ar
    39   15   47 1
    40   16   17 1
    41   17   18 1
    42   17   48 1
    43   17   49 1
    44   18   19 1
    45   18   50 1
    46   18   51 1
    47   19   24 ar
    48   19   20 ar
    49   20   21 ar
    50   21   22 ar
    51   21   25 1
    52   22   23 ar
    53   22   52 1
    54   23   24 ar
    55   23   53 1
    56   24   54 1
    57   25   26 1
    58   25   27 1
    59   25   58 1
    60   27   55 1
    61   27   56 1
    62   28   57 1
    63   58   59 1
@<TRIPOS>MOLECULE
ZINC13581145
   40    43     0     0     0
SMALL
USER_CHARGES
2-[(4-pyrimidin-2-ylpiperazin-1-yl)methyl]-1H-benzimidazole
@<TRIPOS>ATOM
      1 C1         -1.1507   -6.5570   -0.4613 C.ar      1 <0>        -0.1009
      2 C2         -1.0583   -6.2811   -1.8182 C.ar      1 <0>        -0.1297
      3 C3         -1.0639   -4.9916   -2.2690 C.ar      1 <0>        -0.0630
      4 C4         -1.1625   -3.9361   -1.3585 C.ar      1 <0>         0.0423
      5 C5         -1.2561   -4.2149    0.0154 C.ar      1 <0>         0.0406
      6 C6         -1.2493   -5.5318    0.4550 C.ar      1 <0>        -0.1136
      7 N1         -1.3396   -2.9906    0.6478 N.pl3     1 <0>        -0.6112
      8 H1         -1.4223   -2.9421    1.7436 H         1 <0>         0.4470
      9 C7         -1.2967   -2.0329   -0.3173 C.2       1 <0>         0.3014
     10 N2         -1.1980   -2.5852   -1.4912 N.2       1 <0>        -0.4733
     11 C8         -1.3606   -0.5487   -0.0642 C.3       1 <0>         0.1331
     12 N3          0.0021   -0.0041    0.0020 N.3       1 <0>        -0.5320
     13 C9         -0.0179    1.4653    0.0101 C.3       1 <0>         0.0574
     14 C10         1.4190    1.9924   -0.0008 C.3       1 <0>         0.0682
     15 N4          2.1378    1.4719    1.1705 N.pl3     1 <0>        -0.4619
     16 C11         2.1578    0.0025    1.1624 C.3       1 <0>         0.0738
     17 C12         0.7209   -0.5246    1.1733 C.3       1 <0>         0.0500
     18 C13         3.4218    1.9850    1.2329 C.ar      1 <0>         0.4925
     19 N5          4.4500    1.1508    1.2806 N.ar      1 <0>        -0.5520
     20 C14         5.6899    1.6084    1.3352 C.ar      1 <0>         0.1744
     21 C15         5.9051    2.9775    1.3535 C.ar      1 <0>        -0.2603
     22 C16         4.8067    3.8216    1.3080 C.ar      1 <0>         0.1751
     23 N6          3.5931    3.2987    1.2488 N.ar      1 <0>        -0.5312
     24 H2         -1.1456   -7.5819   -0.1209 H         1 <0>         0.1295
     25 H3         -0.9816   -7.0941   -2.5250 H         1 <0>         0.1290
     26 H4         -0.9919   -4.7882   -3.3272 H         1 <0>         0.1280
     27 H5         -1.3213   -5.7520    1.5099 H         1 <0>         0.1220
     28 H6         -1.9112   -0.0607   -0.8819 H         1 <0>         0.1155
     29 H7         -1.8771   -0.3611    0.8887 H         1 <0>         0.0601
     30 H8         -0.5500    1.8297   -0.8811 H         1 <0>         0.0964
     31 H9         -0.5328    1.8200    0.9151 H         1 <0>         0.0527
     32 H10         1.9244    1.6604   -0.9197 H         1 <0>         0.0565
     33 H11         1.4066    3.0918    0.0341 H         1 <0>         0.1036
     34 H12         2.6727   -0.3522    0.2574 H         1 <0>         0.0648
     35 H13         2.6899   -0.3619    2.0535 H         1 <0>         0.0938
     36 H14         0.2145   -0.1926    2.0916 H         1 <0>         0.0476
     37 H15         0.7323   -1.6240    1.1378 H         1 <0>         0.0837
     38 H16         6.5242    0.9235    1.3698 H         1 <0>         0.1694
     39 H17         6.9070    3.3779    1.4018 H         1 <0>         0.1488
     40 H18         4.9401    4.8933    1.3204 H         1 <0>         0.1718
@<TRIPOS>BOND
     1    1    6 ar
     2    1    2 ar
     3    1   24 1
     4    2    3 ar
     5    2   25 1
     6    3    4 ar
     7    3   26 1
     8    4   10 1
     9    4    5 ar
    10    5    6 ar
    11    5    7 1
    12    6   27 1
    13    7    8 1
    14    7    9 1
    15    9   10 2
    16    9   11 1
    17   11   12 1
    18   11   28 1
    19   11   29 1
    20   12   17 1
    21   12   13 1
    22   13   14 1
    23   13   30 1
    24   13   31 1
    25   14   15 1
    26   14   32 1
    27   14   33 1
    28   15   16 1
    29   15   18 1
    30   16   17 1
    31   16   34 1
    32   16   35 1
    33   17   36 1
    34   17   37 1
    35   18   23 ar
    36   18   19 ar
    37   19   20 ar
    38   20   21 ar
    39   20   38 1
    40   21   22 ar
    41   21   39 1
    42   22   23 ar
    43   22   40 1
@<TRIPOS>MOLECULE
ZINC00538337
   58    62     0     0     0
SMALL
USER_CHARGES

@<TRIPOS>ATOM
      1 C1         -0.0168    1.3842    0.0097 C.ar      1 <0>        -0.0898
      2 C2          1.1703    2.0901    0.0021 C.ar      1 <0>        -0.1344
      3 C3          2.3788    1.4141   -0.0135 C.ar      1 <0>         0.1119
      4 C4          2.3997    0.0295   -0.0216 C.ar      1 <0>        -0.1322
      5 C5          1.2148   -0.6800   -0.0137 C.ar      1 <0>        -0.0888
      6 C6          0.0021   -0.0041    0.0020 C.ar      1 <0>         0.1035
      7 N1         -1.2015   -0.7222    0.0101 N.pl3     1 <0>        -0.4255
      8 C7         -2.2407   -0.5077    0.8765 C.2       1 <0>         0.0751
      9 C8         -3.2397   -1.3652    0.6140 C.2       1 <0>        -0.1721
     10 C9         -2.8068   -2.1974   -0.5117 C.ar      1 <0>        -0.0841
     11 C10        -1.5194   -1.7470   -0.8569 C.ar      1 <0>         0.1032
     12 C11        -0.8430   -2.3517   -1.9103 C.ar      1 <0>        -0.1070
     13 C12        -1.4366   -3.3808   -2.6081 C.ar      1 <0>        -0.0841
     14 C13        -2.7089   -3.8239   -2.2706 C.ar      1 <0>        -0.0491
     15 C14        -3.3935   -3.2441   -1.2250 C.ar      1 <0>        -0.0671
     16 Cl1        -3.4366   -5.1218   -3.1648 Cl        1 <0>        -0.0596
     17 C15        -4.5571   -1.4553    1.3402 C.3       1 <0>        -0.0164
     18 C16        -4.3063   -1.7573    2.8204 C.3       1 <0>        -0.1397
     19 C17        -5.6422   -1.7687    3.5665 C.3       1 <0>        -0.0052
     20 N2         -6.2909   -0.4585    3.4359 N.4       1 <0>        -0.3798
     21 C18        -6.5994   -0.1937    2.0255 C.3       1 <0>        -0.0131
     22 C19        -5.3003   -0.1217    1.2201 C.3       1 <0>        -0.1392
     23 C20        -7.5345   -0.4493    4.2177 C.3       1 <0>        -0.0330
     24 C21        -8.1476    0.9521    4.1845 C.3       1 <0>         0.1326
     25 N3         -9.3878    0.9612    4.9641 N.am      1 <0>        -0.6351
     26 C22       -10.7283    0.6664    4.4362 C.3       1 <0>         0.0898
     27 C23       -11.6494    0.8170    5.6625 C.3       1 <0>         0.0871
     28 N4        -10.7301    1.1807    6.7511 N.am      1 <0>        -0.7327
     29 C24        -9.4802    1.2337    6.2723 C.2       1 <0>         0.7000
     30 O1         -8.5172    1.5083    6.9620 O.2       1 <0>        -0.5776
     31 F1          3.5389    2.1063   -0.0213 F         1 <0>        -0.1276
     32 H1         -0.9590    1.9118    0.0260 H         1 <0>         0.1391
     33 H2          1.1561    3.1700    0.0080 H         1 <0>         0.1488
     34 H3          3.3432   -0.4959   -0.0345 H         1 <0>         0.1499
     35 H4          1.2315   -1.7598   -0.0203 H         1 <0>         0.1411
     36 H5         -2.2541    0.2401    1.6556 H         1 <0>         0.1691
     37 H6          0.1466   -2.0149   -2.1816 H         1 <0>         0.1333
     38 H7         -0.9074   -3.8472   -3.4259 H         1 <0>         0.1426
     39 H8         -4.3833   -3.5900   -0.9659 H         1 <0>         0.1336
     40 H9         -5.1611   -2.2499    0.9021 H         1 <0>         0.0971
     41 H10        -3.8271   -2.7315    2.9171 H         1 <0>         0.1158
     42 H11        -3.6594   -0.9891    3.2440 H         1 <0>         0.0884
     43 H12        -6.2882   -2.5373    3.1423 H         1 <0>         0.1304
     44 H13        -5.4673   -1.9836    4.6207 H         1 <0>         0.1320
     45 H14        -7.2250   -0.9960    1.6341 H         1 <0>         0.1319
     46 H15        -7.1311    0.7541    1.9420 H         1 <0>         0.1316
     47 H16        -4.6740    0.6804    1.6106 H         1 <0>         0.0885
     48 H17        -5.5315    0.0731    0.1729 H         1 <0>         0.1159
     49 H18        -8.2379   -1.1638    3.7899 H         1 <0>         0.1318
     50 H19        -7.3173   -0.7265    5.2492 H         1 <0>         0.1351
     51 H20        -7.4442    1.6665    4.6123 H         1 <0>         0.1060
     52 H21        -8.3648    1.2293    3.1530 H         1 <0>         0.1030
     53 H22       -11.0011    1.3839    3.6624 H         1 <0>         0.0916
     54 H23       -10.7713   -0.3513    4.0481 H         1 <0>         0.0867
     55 H24       -12.3795    1.6093    5.4975 H         1 <0>         0.0926
     56 H25       -12.1498   -0.1259    5.8832 H         1 <0>         0.0914
     57 H26       -10.9875    1.3510    7.6707 H         1 <0>         0.4382
     58 H27        -5.6719    0.2583    3.7840 H         1 <0>         0.4243
@<TRIPOS>BOND
     1    1    6 ar
     2    1    2 ar
     3    1   32 1
     4    2    3 ar
     5    2   33 1
     6    3    4 ar
     7    3   31 1
     8    4    5 ar
     9    4   34 1
    10    5    6 ar
    11    5   35 1
    12    6    7 1
    13    7   11 1
    14    7    8 1
    15    8    9 2
    16    8   36 1
    17    9   10 1
    18    9   17 1
    19   10   15 ar
    20   10   11 ar
    21   11   12 ar
    22   12   13 ar
    23   12   37 1
    24   13   14 ar
    25   13   38 1
    26   14   15 ar
    27   14   16 1
    28   15   39 1
    29   17   22 1
    30   17   18 1
    31   17   40 1
    32   18   19 1
    33   18   41 1
    34   18   42 1
    35   19   20 1
    36   19   43 1
    37   19   44 1
    38   20   21 1
    39   20   23 1
    40   20   58 1
    41   21   22 1
    42   21   45 1
    43   21   46 1
    44   22   47 1
    45   22   48 1
    46   23   24 1
    47   23   49 1
    48   23   50 1
    49   24   25 1
    50   24   51 1
    51   24   52 1
    52   25   29 am
    53   25   26 1
    54   26   27 1
    55   26   53 1
    56   26   54 1
    57   27   28 1
    58   27   55 1
    59   27   56 1
    60   28   29 am
    61   28   57 1
    62   29   30 2
@<TRIPOS>MOLECULE
ZINC52716466
   41    44     0     0     0
SMALL
USER_CHARGES

@<TRIPOS>ATOM
      1 C1         -0.0167    1.3792    0.0096 C.ar      1 <0>        -0.1214
      2 C2          1.1683    2.0931    0.0021 C.ar      1 <0>        -0.1189
      3 C3          2.3774    1.4286   -0.0134 C.ar      1 <0>        -0.1099
      4 C4          2.4032    0.0335   -0.0212 C.ar      1 <0>        -0.0514
      5 C5          1.2045   -0.6806   -0.0131 C.ar      1 <0>        -0.1077
      6 C6          0.0021   -0.0041    0.0020 C.ar      1 <0>        -0.1189
      7 C7          3.6950   -0.6848   -0.0384 C.2       1 <0>        -0.0825
      8 C8          4.4914   -0.5751    1.0019 C.2       1 <0>        -0.1395
      9 C9          5.8276   -1.2552    1.0860 C.3       1 <0>         0.0850
     10 N1          5.9153   -2.3285    0.0878 N.3       1 <0>        -0.5307
     11 C10         5.5437   -1.8192   -1.2425 C.3       1 <0>         0.0531
     12 C11         4.0418   -1.5160   -1.2421 C.3       1 <0>        -0.0709
     13 C12         7.2595   -2.9207    0.0682 C.3       1 <0>         0.1280
     14 C13         7.5173   -3.6248    1.3754 C.2       1 <0>         0.2944
     15 N2          7.3249   -4.9533    1.5962 N.pl3     1 <0>        -0.5892
     16 H1          7.0035   -5.6026    0.9513 H         1 <0>         0.4234
     17 C14         7.6722   -5.2060    2.9082 C.ar      1 <0>         0.0485
     18 C15         7.6898   -6.3452    3.7015 C.ar      1 <0>        -0.1122
     19 C16         8.1036   -6.2574    5.0135 C.ar      1 <0>        -0.1002
     20 C17         8.5017   -5.0389    5.5453 C.ar      1 <0>        -0.1275
     21 C18         8.4909   -3.9076    4.7797 C.ar      1 <0>        -0.0641
     22 C19         8.0758   -3.9727    3.4470 C.ar      1 <0>         0.0468
     23 N3          7.9617   -3.0518    2.4557 N.2       1 <0>        -0.4871
     24 H2         -0.9604    1.9041    0.0260 H         1 <0>         0.1216
     25 H3          1.1469    3.1729    0.0082 H         1 <0>         0.1229
     26 H4          3.3018    1.9870   -0.0200 H         1 <0>         0.1216
     27 H5          1.2178   -1.7605   -0.0194 H         1 <0>         0.1218
     28 H6         -0.9265   -0.5556    0.0079 H         1 <0>         0.1228
     29 H7          4.1698    0.0328    1.8347 H         1 <0>         0.1141
     30 H8          6.6162   -0.5257    0.9018 H         1 <0>         0.0550
     31 H9          5.9556   -1.6777    2.0826 H         1 <0>         0.0954
     32 H10         6.1042   -0.9091   -1.4558 H         1 <0>         0.0459
     33 H11         5.7636   -2.5736   -1.9979 H         1 <0>         0.0829
     34 H12         3.4800   -2.4496   -1.2122 H         1 <0>         0.0823
     35 H13         3.7842   -0.9674   -2.1480 H         1 <0>         0.0785
     36 H14         7.3290   -3.6372   -0.7503 H         1 <0>         0.0986
     37 H15         8.0009   -2.1343   -0.0733 H         1 <0>         0.0765
     38 H16         7.3804   -7.2958    3.2927 H         1 <0>         0.1230
     39 H17         8.1178   -7.1427    5.6318 H         1 <0>         0.1308
     40 H18         8.8229   -4.9845    6.5750 H         1 <0>         0.1301
     41 H19         8.8024   -2.9645    5.2038 H         1 <0>         0.1290
@<TRIPOS>BOND
     1    1    6 ar
     2    1    2 ar
     3    1   24 1
     4    2    3 ar
     5    2   25 1
     6    3    4 ar
     7    3   26 1
     8    4    5 ar
     9    4    7 1
    10    5    6 ar
    11    5   27 1
    12    6   28 1
    13    7   12 1
    14    7    8 2
    15    8    9 1
    16    8   29 1
    17    9   10 1
    18    9   30 1
    19    9   31 1
    20   10   11 1
    21   10   13 1
    22   11   12 1
    23   11   32 1
    24   11   33 1
    25   12   34 1
    26   12   35 1
    27   13   14 1
    28   13   36 1
    29   13   37 1
    30   14   23 2
    31   14   15 1
    32   15   16 1
    33   15   17 1
    34   17   22 ar
    35   17   18 ar
    36   18   19 ar
    37   18   38 1
    38   19   20 ar
    39   19   39 1
    40   20   21 ar
    41   20   40 1
    42   21   22 ar
    43   21   41 1
    44   22   23 1
@<TRIPOS>MOLECULE
ZINC52716466
   42    45     0     0     0
SMALL
USER_CHARGES

@<TRIPOS>ATOM
      1 C1         -0.5990    0.1077   -0.6451 C.ar      1 <0>        -0.1127
      2 C2          0.4599    0.9790   -0.8282 C.ar      1 <0>        -0.1169
      3 C3          1.7580    0.5190   -0.7444 C.ar      1 <0>        -0.1069
      4 C4          2.0016   -0.8280   -0.4740 C.ar      1 <0>        -0.0690
      5 C5          0.9291   -1.7015   -0.2899 C.ar      1 <0>        -0.1053
      6 C6         -0.3642   -1.2290   -0.3767 C.ar      1 <0>        -0.1172
      7 C7          3.3898   -1.3277   -0.3834 C.2       1 <0>        -0.0522
      8 C8          4.1554   -0.8892    0.5913 C.2       1 <0>        -0.1643
      9 C9          5.5812   -1.3246    0.7722 C.3       1 <0>         0.0797
     10 N1          5.8392   -2.5507    0.0066 N.3       1 <0>        -0.5324
     11 C10         5.3975   -2.3835   -1.3877 C.3       1 <0>         0.0542
     12 C11         3.8667   -2.3211   -1.4059 C.3       1 <0>        -0.0793
     13 C12         7.2595   -2.9207    0.0682 C.3       1 <0>         0.0823
     14 C13         7.5648   -3.5184    1.4175 C.cat     1 <0>         0.4131
     15 N2          7.3879   -4.7896    1.7375 N.pl3     1 <0>        -0.4925
     16 H1          7.0446   -5.4798    1.1487 H         1 <0>         0.4639
     17 C14         7.7701   -4.9666    3.0373 C.ar      1 <0>         0.0613
     18 C15         7.8056   -6.0642    3.8947 C.ar      1 <0>        -0.0810
     19 C16         8.2582   -5.9092    5.1855 C.ar      1 <0>        -0.0711
     20 C17         8.6798   -4.6670    5.6403 C.ar      1 <0>        -0.0702
     21 C18         8.6518   -3.5714    4.8074 C.ar      1 <0>        -0.0830
     22 C19         8.1969   -3.7091    3.4977 C.ar      1 <0>         0.0615
     23 N3          8.0530   -2.8471    2.4474 N.pl3     1 <0>        -0.5070
     24 H2         -1.6132    0.4735   -0.7076 H         1 <0>         0.1259
     25 H3          0.2701    2.0214   -1.0374 H         1 <0>         0.1265
     26 H4          2.5838    1.2001   -0.8882 H         1 <0>         0.1218
     27 H5          1.1111   -2.7453   -0.0807 H         1 <0>         0.1214
     28 H6         -1.1952   -1.9041   -0.2347 H         1 <0>         0.1262
     29 H7          3.7397   -0.1826    1.2945 H         1 <0>         0.1218
     30 H8          6.2468   -0.5348    0.4240 H         1 <0>         0.0627
     31 H9          5.7699   -1.5126    1.8292 H         1 <0>         0.0790
     32 H10         5.8097   -1.4600   -1.7942 H         1 <0>         0.0586
     33 H11         5.7355   -3.2318   -1.9830 H         1 <0>         0.0937
     34 H12         3.4576   -3.3045   -1.1744 H         1 <0>         0.0895
     35 H13         3.5299   -2.0128   -2.3957 H         1 <0>         0.0904
     36 H14         7.4788   -3.6510   -0.7107 H         1 <0>         0.1395
     37 H15         7.8732   -2.0327   -0.0832 H         1 <0>         0.1036
     38 H16         7.4788   -7.0334    3.5479 H         1 <0>         0.1541
     39 H17         8.2851   -6.7604    5.8497 H         1 <0>         0.1581
     40 H18         9.0322   -4.5595    6.6555 H         1 <0>         0.1580
     41 H19         8.9817   -2.6082    5.1679 H         1 <0>         0.1534
     42 H20         8.2699   -1.9017    2.4563 H         1 <0>         0.4607
@<TRIPOS>BOND
     1    1    6 ar
     2    1    2 ar
     3    1   24 1
     4    2    3 ar
     5    2   25 1
     6    3    4 ar
     7    3   26 1
     8    4    5 ar
     9    4    7 1
    10    5    6 ar
    11    5   27 1
    12    6   28 1
    13    7   12 1
    14    7    8 2
    15    8    9 1
    16    8   29 1
    17    9   10 1
    18    9   30 1
    19    9   31 1
    20   10   11 1
    21   10   13 1
    22   11   12 1
    23   11   32 1
    24   11   33 1
    25   12   34 1
    26   12   35 1
    27   13   14 1
    28   13   36 1
    29   13   37 1
    30   14   23 2
    31   14   15 1
    32   15   16 1
    33   15   17 1
    34   17   22 ar
    35   17   18 ar
    36   18   19 ar
    37   18   38 1
    38   19   20 ar
    39   19   39 1
    40   20   21 ar
    41   20   40 1
    42   21   22 ar
    43   21   41 1
    44   22   23 1
    45   23   42 1
@<TRIPOS>MOLECULE
ZINC13766777
   45    46     0     0     0
SMALL
USER_CHARGES
N-[2-(3-methylphenoxy)ethyl]-3-phenoxy-propan-1-amine
@<TRIPOS>ATOM
      1 C1         -0.0652    5.3506    0.0290 C.3       1 <0>        -0.1233
      2 C2         -0.0492    3.8437    0.0217 C.ar      1 <0>        -0.0400
      3 C3          1.1560    3.1657    0.0071 C.ar      1 <0>        -0.1425
      4 C4          1.1741    1.7834    0.0004 C.ar      1 <0>        -0.0736
      5 C5         -0.0126    1.0758    0.0080 C.ar      1 <0>        -0.2103
      6 C6         -1.2228    1.7536    0.0174 C.ar      1 <0>         0.1151
      7 C7         -1.2382    3.1410    0.0293 C.ar      1 <0>        -0.1453
      8 O1         -2.3914    1.0598    0.0191 O.3       1 <0>        -0.3304
      9 C8         -2.2993   -0.3662    0.0109 C.3       1 <0>         0.0245
     10 C9         -3.7060   -0.9681    0.0143 C.3       1 <0>         0.0056
     11 C10        -5.7491   -1.1780   -1.2679 C.3       1 <0>        -0.0010
     12 C11        -6.4306   -0.7908   -2.5819 C.3       1 <0>        -0.1524
     13 C12        -7.8437   -1.3764   -2.6154 C.3       1 <0>         0.0628
     14 O2         -8.4803   -1.0147   -3.8426 O.3       1 <0>        -0.3142
     15 C13        -9.7506   -1.4584   -4.0329 C.ar      1 <0>         0.1181
     16 C14       -10.3696   -2.2310   -3.0610 C.ar      1 <0>        -0.2082
     17 C15       -11.6629   -2.6765   -3.2545 C.ar      1 <0>        -0.0800
     18 C16       -12.3366   -2.3617   -4.4202 C.ar      1 <0>        -0.1479
     19 C17       -11.7198   -1.5967   -5.3929 C.ar      1 <0>        -0.0771
     20 C18       -10.4285   -1.1444   -5.2018 C.ar      1 <0>        -0.1465
     21 H1         -0.0789    5.7188   -0.9969 H         1 <0>         0.0792
     22 H2         -0.9541    5.7020    0.5529 H         1 <0>         0.0721
     23 H3          0.8257    5.7211    0.5361 H         1 <0>         0.0755
     24 H4          2.0847    3.7171    0.0005 H         1 <0>         0.1315
     25 H5          2.1166    1.2562   -0.0110 H         1 <0>         0.1318
     26 H6          0.0021   -0.0041    0.0020 H         1 <0>         0.1267
     27 H7         -2.1792    3.6709    0.0404 H         1 <0>         0.1324
     28 H8         -1.7674   -0.6908   -0.8833 H         1 <0>         0.0876
     29 H9         -1.7590   -0.7005    0.8966 H         1 <0>         0.1106
     30 H10        -3.6369   -2.0527    0.0977 H         1 <0>         0.1520
     31 H11        -4.2679   -0.5737    0.8609 H         1 <0>         0.1435
     32 H12        -5.6942   -2.2641   -1.1935 H         1 <0>         0.1363
     33 H13        -6.3252   -0.7851   -0.4302 H         1 <0>         0.1364
     34 H14        -6.4856    0.2953   -2.6563 H         1 <0>         0.1003
     35 H15        -5.8545   -1.1837   -3.4196 H         1 <0>         0.0999
     36 H16        -7.7888   -2.4624   -2.5409 H         1 <0>         0.0723
     37 H17        -8.4198   -0.9834   -1.7776 H         1 <0>         0.0725
     38 H18        -9.8424   -2.4806   -2.1521 H         1 <0>         0.1246
     39 H19       -12.1466   -3.2748   -2.4966 H         1 <0>         0.1286
     40 H20       -13.3461   -2.7144   -4.5715 H         1 <0>         0.1294
     41 H21       -12.2481   -1.3522   -6.3026 H         1 <0>         0.1349
     42 H22        -9.9471   -0.5472   -5.9620 H         1 <0>         0.1324
     43 N1         -4.3880   -0.6099   -1.2436 N.4       1 <0>        -0.5191
     44 H23        -3.8520   -0.9808   -2.0370 H         1 <0>         0.4337
     45 H24        -4.4463    0.4125   -1.3180 H         1 <0>         0.4413
@<TRIPOS>BOND
     1    1    2 1
     2    1   21 1
     3    1   22 1
     4    1   23 1
     5    2    7 ar
     6    2    3 ar
     7    3    4 ar
     8    3   24 1
     9    4    5 ar
    10    4   25 1
    11    5    6 ar
    12    5   26 1
    13    6    7 ar
    14    6    8 1
    15    7   27 1
    16    8    9 1
    17    9   10 1
    18    9   28 1
    19    9   29 1
    20   10   30 1
    21   10   31 1
    22   10   43 1
    23   11   12 1
    24   11   32 1
    25   11   33 1
    26   11   43 1
    27   12   13 1
    28   12   34 1
    29   12   35 1
    30   13   14 1
    31   13   36 1
    32   13   37 1
    33   14   15 1
    34   15   20 ar
    35   15   16 ar
    36   16   17 ar
    37   16   38 1
    38   17   18 ar
    39   17   39 1
    40   18   19 ar
    41   18   40 1
    42   19   20 ar
    43   19   41 1
    44   20   42 1
    45   43   44 1
    46   43   45 1
@<TRIPOS>MOLECULE
ZINC13766768
   42    43     0     0     0
SMALL
USER_CHARGES
3-phenoxy-N-(2-phenoxyethyl)propan-1-amine
@<TRIPOS>ATOM
      1 C1         -0.0126    1.0758    0.0080 C.ar      1 <0>        -0.1479
      2 C2         -1.2199    1.7496    0.0174 C.ar      1 <0>        -0.0800
      3 C3         -1.2413    3.1308    0.0307 C.ar      1 <0>        -0.2082
      4 C4         -0.0501    3.8419    0.0227 C.ar      1 <0>         0.1181
      5 C5          1.1599    3.1635    0.0075 C.ar      1 <0>        -0.1465
      6 C6          1.1760    1.7822    0.0004 C.ar      1 <0>        -0.0770
      7 O1         -0.0685    5.2008    0.0293 O.3       1 <0>        -0.3142
      8 C7         -1.3504    5.8322    0.0450 C.3       1 <0>         0.0628
      9 C8         -1.1705    7.3515    0.0503 C.3       1 <0>        -0.1523
     10 C9         -2.5430    8.0275    0.0671 C.3       1 <0>        -0.0010
     11 C10        -3.6703   10.1703    0.0884 C.3       1 <0>         0.0057
     12 C11        -3.4500   11.6843    0.0933 C.3       1 <0>         0.0243
     13 O2         -2.8301   12.0794   -1.1321 O.3       1 <0>        -0.3304
     14 C12        -2.5632   13.4026   -1.2899 C.ar      1 <0>         0.1097
     15 C13        -2.8964   14.3029   -0.2883 C.ar      1 <0>        -0.2033
     16 C14        -2.6192   15.6467   -0.4490 C.ar      1 <0>        -0.0786
     17 C15        -2.0198   16.0961   -1.6111 C.ar      1 <0>        -0.1399
     18 C16        -1.6920   15.2016   -2.6132 C.ar      1 <0>        -0.0772
     19 C17        -1.9623   13.8561   -2.4552 C.ar      1 <0>        -0.1422
     20 H1          0.0021   -0.0041    0.0020 H         1 <0>         0.1294
     21 H2         -2.1470    1.1956    0.0184 H         1 <0>         0.1286
     22 H3         -2.1846    3.6567    0.0422 H         1 <0>         0.1246
     23 H4          2.0886    3.7149    0.0009 H         1 <0>         0.1324
     24 H5          2.1177    1.2536   -0.0114 H         1 <0>         0.1349
     25 H6         -1.9122    5.5359   -0.8409 H         1 <0>         0.0725
     26 H7         -1.8945    5.5275    0.9390 H         1 <0>         0.0723
     27 H8         -0.6088    7.6478    0.9362 H         1 <0>         0.0999
     28 H9         -0.6264    7.6562   -0.8437 H         1 <0>         0.1004
     29 H10        -3.1048    7.7313   -0.8187 H         1 <0>         0.1364
     30 H11        -3.0871    7.7229    0.9611 H         1 <0>         0.1363
     31 H12        -4.2399    9.8889   -0.7973 H         1 <0>         0.1436
     32 H13        -4.2222    9.8805    0.9825 H         1 <0>         0.1520
     33 H14        -4.4098   12.1908    0.1948 H         1 <0>         0.1106
     34 H15        -2.8060   11.9550    0.9301 H         1 <0>         0.0876
     35 H16        -3.3683   13.9530    0.6178 H         1 <0>         0.1272
     36 H17        -2.8750   16.3475    0.3320 H         1 <0>         0.1317
     37 H18        -1.8077   17.1476   -1.7365 H         1 <0>         0.1321
     38 H19        -1.2239   15.5550   -3.5200 H         1 <0>         0.1370
     39 H20        -1.7063   13.1578   -3.2384 H         1 <0>         0.1330
     40 N1         -2.3608    9.4913    0.0722 N.4       1 <0>        -0.5191
     41 H21        -1.8445    9.7713   -0.7699 H         1 <0>         0.4413
     42 H22        -1.8279    9.7633    0.9066 H         1 <0>         0.4337
@<TRIPOS>BOND
     1    1    6 ar
     2    1    2 ar
     3    1   20 1
     4    2    3 ar
     5    2   21 1
     6    3    4 ar
     7    3   22 1
     8    4    5 ar
     9    4    7 1
    10    5    6 ar
    11    5   23 1
    12    6   24 1
    13    7    8 1
    14    8    9 1
    15    8   25 1
    16    8   26 1
    17    9   10 1
    18    9   27 1
    19    9   28 1
    20   10   29 1
    21   10   30 1
    22   10   40 1
    23   11   12 1
    24   11   31 1
    25   11   32 1
    26   11   40 1
    27   12   13 1
    28   12   33 1
    29   12   34 1
    30   13   14 1
    31   14   19 ar
    32   14   15 ar
    33   15   16 ar
    34   15   35 1
    35   16   17 ar
    36   16   36 1
    37   17   18 ar
    38   17   37 1
    39   18   19 ar
    40   18   38 1
    41   19   39 1
    42   40   41 1
    43   40   42 1
@<TRIPOS>MOLECULE
ZINC12355992
   44    45     0     0     0
SMALL
USER_CHARGES
N-(3-phenoxypropyl)-3-phenyl-propan-1-amine
@<TRIPOS>ATOM
      1 C1         -0.0126    1.0758    0.0080 C.ar      1 <0>        -0.1125
      2 C2         -1.2190    1.7506    0.0173 C.ar      1 <0>        -0.1154
      3 C3         -1.2377    3.1328    0.0299 C.ar      1 <0>        -0.1155
      4 C4         -0.0501    3.8402    0.0228 C.ar      1 <0>        -0.1025
      5 C5          1.1563    3.1654    0.0076 C.ar      1 <0>        -0.1155
      6 C6          1.1750    1.7832    0.0004 C.ar      1 <0>        -0.1154
      7 C7         -0.0705    5.3471    0.0311 C.3       1 <0>        -0.0728
      8 C8         -0.0912    5.8648   -1.4085 C.3       1 <0>        -0.1459
      9 C9         -0.1120    7.3946   -1.4000 C.3       1 <0>        -0.0059
     10 C10        -0.1521    9.3603   -2.8132 C.3       1 <0>        -0.0008
     11 C11        -0.1725    9.8394   -4.2661 C.3       1 <0>        -0.1522
     12 C12        -0.1936   11.3689   -4.2985 C.3       1 <0>         0.0624
     13 O1         -0.2126   11.8164   -5.6555 O.3       1 <0>        -0.3144
     14 C13        -0.2328   13.1595   -5.8620 C.ar      1 <0>         0.1180
     15 C14        -0.2401   14.0287   -4.7807 C.ar      1 <0>        -0.2082
     16 C15        -0.2554   15.3936   -4.9934 C.ar      1 <0>        -0.0800
     17 C16        -0.2739   15.8935   -6.2824 C.ar      1 <0>        -0.1478
     18 C17        -0.2725   15.0292   -7.3616 C.ar      1 <0>        -0.0770
     19 C18        -0.2520   13.6636   -7.1544 C.ar      1 <0>        -0.1465
     20 H1          0.0021   -0.0041    0.0020 H         1 <0>         0.1269
     21 H2         -2.1469    1.1980    0.0187 H         1 <0>         0.1265
     22 H3         -2.1802    3.6600    0.0414 H         1 <0>         0.1214
     23 H4          2.0842    3.7181    0.0017 H         1 <0>         0.1215
     24 H5          2.1175    1.2560   -0.0115 H         1 <0>         0.1265
     25 H6         -0.9604    5.6955    0.5554 H         1 <0>         0.0831
     26 H7          0.8193    5.7197    0.5385 H         1 <0>         0.0830
     27 H8          0.7987    5.5164   -1.9327 H         1 <0>         0.0894
     28 H9         -0.9811    5.4922   -1.9158 H         1 <0>         0.0894
     29 H10        -1.0018    7.7430   -0.8757 H         1 <0>         0.1329
     30 H11         0.7779    7.7673   -0.8926 H         1 <0>         0.1329
     31 H12        -1.0423    9.7223   -2.2988 H         1 <0>         0.1352
     32 H13         0.7374    9.7465   -2.3157 H         1 <0>         0.1352
     33 H14         0.7177    9.4774   -4.7806 H         1 <0>         0.0997
     34 H15        -1.0620    9.4531   -4.7637 H         1 <0>         0.0997
     35 H16        -1.0837   11.7310   -3.7840 H         1 <0>         0.0722
     36 H17         0.6960   11.7552   -3.8009 H         1 <0>         0.0722
     37 H18        -0.2298   13.6387   -3.7737 H         1 <0>         0.1246
     38 H19        -0.2573   16.0708   -4.1520 H         1 <0>         0.1286
     39 H20        -0.2900   16.9608   -6.4465 H         1 <0>         0.1295
     40 H21        -0.2870   15.4221   -8.3675 H         1 <0>         0.1349
     41 H22        -0.2512   12.9889   -7.9977 H         1 <0>         0.1324
     42 N1         -0.1319    7.8855   -2.7909 N.4       1 <0>        -0.5184
     43 H23        -0.9700    7.5280   -3.2642 H         1 <0>         0.4344
     44 H24         0.7064    7.5508   -3.2802 H         1 <0>         0.4344
@<TRIPOS>BOND
     1    1    6 ar
     2    1    2 ar
     3    1   20 1
     4    2    3 ar
     5    2   21 1
     6    3    4 ar
     7    3   22 1
     8    4    5 ar
     9    4    7 1
    10    5    6 ar
    11    5   23 1
    12    6   24 1
    13    7    8 1
    14    7   25 1
    15    7   26 1
    16    8    9 1
    17    8   27 1
    18    8   28 1
    19    9   29 1
    20    9   30 1
    21    9   42 1
    22   10   11 1
    23   10   31 1
    24   10   32 1
    25   10   42 1
    26   11   12 1
    27   11   33 1
    28   11   34 1
    29   12   13 1
    30   12   35 1
    31   12   36 1
    32   13   14 1
    33   14   19 ar
    34   14   15 ar
    35   15   16 ar
    36   15   37 1
    37   16   17 ar
    38   16   38 1
    39   17   18 ar
    40   17   39 1
    41   18   19 ar
    42   18   40 1
    43   19   41 1
    44   42   43 1
    45   42   44 1
@<TRIPOS>MOLECULE
ZINC00004028
   48    50     0     0     0
SMALL
USER_CHARGES

@<TRIPOS>ATOM
      1 C1          2.6184    1.2327    1.6979 C.3       1 <0>        -0.1554
      2 C2          2.4485   -0.2812    1.5557 C.3       1 <0>        -0.1529
      3 C3          0.9894   -0.6020    1.2256 C.3       1 <0>        -0.0212
      4 N1          0.8360   -2.0514    1.0424 N.4       1 <0>        -0.3812
      5 C4          1.6121   -2.4819   -0.1282 C.3       1 <0>        -0.0188
      6 C5          1.0259   -1.8464   -1.3906 C.3       1 <0>        -0.0477
      7 C6          1.7319   -2.3952   -2.6036 C.2       1 <0>        -0.1917
      8 C7          1.4198   -3.4790   -3.3554 C.2       1 <0>        -0.1225
      9 C8          2.2198   -3.7976   -4.4367 C.2       1 <0>        -0.1695
     10 C9          3.2928   -3.0169   -4.7132 C.2       1 <0>        -0.1431
     11 S1          3.1920   -1.7820   -3.4279 S.3       1 <0>         0.0577
     12 C10         1.3251   -2.7506    2.2382 C.3       1 <0>         0.0204
     13 H1          2.3765   -2.5120    2.3985 H         1 <0>         0.1452
     14 C11         0.5055   -2.3190    3.4600 C.3       1 <0>        -0.1385
     15 C12         1.1825   -2.8706    4.7131 C.3       1 <0>        -0.0686
     16 C13         1.4456   -4.3464    4.5666 C.ar      1 <0>        -0.1099
     17 C14         1.4438   -4.9820    3.3461 C.ar      1 <0>        -0.0756
     18 C15         1.7023   -6.3452    3.2794 C.ar      1 <0>        -0.1201
     19 C16         1.9552   -7.0706    4.4259 C.ar      1 <0>        -0.0943
     20 C17         1.9532   -6.4380    5.6538 C.ar      1 <0>        -0.1326
     21 C18         1.6995   -5.0785    5.7249 C.ar      1 <0>         0.1136
     22 O1          1.6981   -4.4542    6.9321 O.3       1 <0>        -0.4942
     23 C19         1.1618   -4.2581    2.0553 C.3       1 <0>        -0.0920
     24 H2          1.9760    1.5966    2.4997 H         1 <0>         0.0674
     25 H3          3.6579    1.4612    1.9330 H         1 <0>         0.0772
     26 H4          2.3422    1.7187    0.7621 H         1 <0>         0.0670
     27 H5          3.0909   -0.6452    0.7538 H         1 <0>         0.0859
     28 H6          2.7247   -0.7673    2.4914 H         1 <0>         0.0880
     29 H7          0.3503   -0.2695    2.0436 H         1 <0>         0.1350
     30 H8          0.7028   -0.0875    0.3084 H         1 <0>         0.1340
     31 H9          2.6495   -2.1682   -0.0117 H         1 <0>         0.1360
     32 H10         1.5682   -3.5676   -0.2140 H         1 <0>         0.1367
     33 H11        -0.0374   -2.0776   -1.4535 H         1 <0>         0.1051
     34 H12         1.1609   -0.7656   -1.3495 H         1 <0>         0.1008
     35 H13         0.5591   -4.0847   -3.1131 H         1 <0>         0.1354
     36 H14         1.9935   -4.6560   -5.0518 H         1 <0>         0.1421
     37 H15         4.0181   -3.1143   -5.5075 H         1 <0>         0.1932
     38 H16         0.4685   -1.2308    3.5115 H         1 <0>         0.0948
     39 H17        -0.5059   -2.7180    3.3832 H         1 <0>         0.0927
     40 H18         2.1277   -2.3508    4.8694 H         1 <0>         0.0894
     41 H19         0.5350   -2.7046    5.5741 H         1 <0>         0.0955
     42 H20         1.7050   -6.8425    2.3207 H         1 <0>         0.1286
     43 H21         2.1539   -8.1303    4.3632 H         1 <0>         0.1354
     44 H22         2.1482   -7.0012    6.5544 H         1 <0>         0.1369
     45 H23         0.8341   -4.4392    7.3661 H         1 <0>         0.3954
     46 H24         0.1413   -4.4732    1.7385 H         1 <0>         0.0975
     47 H25         1.8558   -4.6044    1.2895 H         1 <0>         0.0997
     48 H26        -0.1383   -2.2711    0.8992 H         1 <0>         0.4230
@<TRIPOS>BOND
     1    1    2 1
     2    1   24 1
     3    1   25 1
     4    1   26 1
     5    2    3 1
     6    2   27 1
     7    2   28 1
     8    3    4 1
     9    3   29 1
    10    3   30 1
    11    4    5 1
    12    4   12 1
    13    4   48 1
    14    5    6 1
    15    5   31 1
    16    5   32 1
    17    6    7 1
    18    6   33 1
    19    6   34 1
    20    7   11 1
    21    7    8 2
    22    8    9 1
    23    8   35 1
    24    9   10 2
    25    9   36 1
    26   10   11 1
    27   10   37 1
    28   12   13 1
    29   12   23 1
    30   12   14 1
    31   14   15 1
    32   14   38 1
    33   14   39 1
    34   15   16 1
    35   15   40 1
    36   15   41 1
    37   16   21 ar
    38   16   17 ar
    39   17   18 ar
    40   17   23 1
    41   18   19 ar
    42   18   42 1
    43   19   20 ar
    44   19   43 1
    45   20   21 ar
    46   20   44 1
    47   21   22 1
    48   22   45 1
    49   23   46 1
    50   23   47 1
@<TRIPOS>MOLECULE
ZINC13759785
   35    36     0     0     0
SMALL
USER_CHARGES
(2R)-N-ethyl-5-methoxy-tetralin-2-amine
@<TRIPOS>ATOM
      1 C1         -0.0127    1.0858    0.0080 C.3       1 <0>        -0.1900
      2 C2         -0.7288    1.5792    1.2668 C.3       1 <0>        -0.0070
      3 C3         -1.4302    3.5588    2.4719 C.3       1 <0>         0.0276
      4 H1         -2.2562    2.8977    2.7342 H         1 <0>         0.1439
      5 C4         -1.9638    4.9701    2.1997 C.3       1 <0>        -0.1384
      6 C5         -2.8656    5.3767    3.3635 C.3       1 <0>        -0.0664
      7 C6         -2.1616    5.1648    4.6782 C.ar      1 <0>        -0.1169
      8 C7         -1.0534    4.3586    4.8040 C.ar      1 <0>        -0.0559
      9 C8         -0.4593    4.1943    6.0488 C.ar      1 <0>        -0.1502
     10 C9         -0.9667    4.8347    7.1610 C.ar      1 <0>        -0.0701
     11 C10        -2.0761    5.6487    7.0388 C.ar      1 <0>        -0.1986
     12 C11        -2.6728    5.8142    5.8002 C.ar      1 <0>         0.1364
     13 O1         -3.7637    6.6153    5.6781 O.3       1 <0>        -0.3144
     14 C12        -4.2374    7.2520    6.8665 C.3       1 <0>         0.0237
     15 C13        -0.4419    3.6331    3.6340 C.3       1 <0>        -0.0899
     16 H2          0.0021   -0.0041    0.0020 H         1 <0>         0.1066
     17 H3          1.0099    1.4631    0.0003 H         1 <0>         0.0805
     18 H4         -0.5399    1.4469   -0.8751 H         1 <0>         0.0807
     19 H5         -1.7514    1.2020    1.2746 H         1 <0>         0.1303
     20 H6         -0.2017    1.2182    2.1499 H         1 <0>         0.1293
     21 H7         -1.1307    5.6684    2.1193 H         1 <0>         0.0928
     22 H8         -2.5370    4.9735    1.2726 H         1 <0>         0.0936
     23 H9         -3.7742    4.7751    3.3413 H         1 <0>         0.0862
     24 H10        -3.1297    6.4294    3.2628 H         1 <0>         0.0985
     25 H11         0.4087    3.5593    6.1473 H         1 <0>         0.1274
     26 H12        -0.4975    4.7001    8.1244 H         1 <0>         0.1334
     27 H13        -2.4765    6.1535    7.9056 H         1 <0>         0.1360
     28 H14        -4.5113    6.4941    7.6003 H         1 <0>         0.0603
     29 H15        -3.4520    7.8872    7.2761 H         1 <0>         0.0603
     30 H16        -5.1101    7.8605    6.6295 H         1 <0>         0.1073
     31 H17        -0.1701    2.6228    3.9399 H         1 <0>         0.0995
     32 H18         0.4539    4.1633    3.3107 H         1 <0>         0.0988
     33 N1         -0.7445    3.0543    1.2672 N.4       1 <0>        -0.5181
     34 H19        -1.2388    3.3880    0.4314 H         1 <0>         0.4326
     35 H20         0.2210    3.4033    1.2559 H         1 <0>         0.4301
@<TRIPOS>BOND
     1    1    2 1
     2    1   16 1
     3    1   17 1
     4    1   18 1
     5    2   19 1
     6    2   20 1
     7    2   33 1
     8    3    4 1
     9    3   15 1
    10    3    5 1
    11    3   33 1
    12    5    6 1
    13    5   21 1
    14    5   22 1
    15    6    7 1
    16    6   23 1
    17    6   24 1
    18    7   12 ar
    19    7    8 ar
    20    8    9 ar
    21    8   15 1
    22    9   10 ar
    23    9   25 1
    24   10   11 ar
    25   10   26 1
    26   11   12 ar
    27   11   27 1
    28   12   13 1
    29   13   14 1
    30   14   28 1
    31   14   29 1
    32   14   30 1
    33   15   31 1
    34   15   32 1
    35   33   34 1
    36   33   35 1
@<TRIPOS>MOLECULE
ZINC13759786
   35    36     0     0     0
SMALL
USER_CHARGES
(2S)-N-ethyl-5-methoxy-tetralin-2-amine
@<TRIPOS>ATOM
      1 C1          2.0293    9.8836    1.0446 C.3       1 <0>        -0.1900
      2 C2          1.9729    8.3800    1.3217 C.3       1 <0>        -0.0070
      3 C3          1.2751    6.2465    0.4140 C.3       1 <0>         0.0274
      4 H1          1.1065    6.0511    1.4730 H         1 <0>         0.1434
      5 C4          0.1291    5.6480   -0.4103 C.3       1 <0>        -0.1380
      6 C5         -0.0733    4.1988    0.0273 C.3       1 <0>        -0.0665
      7 C6          1.2339    3.4509    0.0030 C.ar      1 <0>        -0.1169
      8 C7          2.4529    4.0894   -0.0062 C.ar      1 <0>        -0.0557
      9 C8          3.6226    3.3402   -0.0176 C.ar      1 <0>        -0.1501
     10 C9          3.5749    1.9610   -0.0216 C.ar      1 <0>        -0.0701
     11 C10         2.3537    1.3155   -0.0134 C.ar      1 <0>        -0.1985
     12 C11         1.1850    2.0582    0.0018 C.ar      1 <0>         0.1364
     13 O1         -0.0173    1.4248    0.0099 O.3       1 <0>        -0.3144
     14 C12         0.0021   -0.0041    0.0020 C.3       1 <0>         0.0237
     15 C13         2.5813    5.5903   -0.0184 C.3       1 <0>        -0.0901
     16 H2          2.6159   10.0654    0.1441 H         1 <0>         0.0805
     17 H3          1.0182   10.2651    0.9029 H         1 <0>         0.0807
     18 H4          2.4941   10.3916    1.8897 H         1 <0>         0.1066
     19 H5          1.3864    8.1982    2.2222 H         1 <0>         0.1303
     20 H6          2.9841    7.9985    1.4635 H         1 <0>         0.1293
     21 H7          0.3835    5.6795   -1.4697 H         1 <0>         0.0927
     22 H8         -0.7847    6.2156   -0.2346 H         1 <0>         0.0938
     23 H9         -0.7774    3.7141   -0.6490 H         1 <0>         0.0986
     24 H10        -0.4782    4.1820    1.0392 H         1 <0>         0.0862
     25 H11         4.5788    3.8421   -0.0238 H         1 <0>         0.1274
     26 H12         4.4902    1.3878   -0.0307 H         1 <0>         0.1334
     27 H13         2.3106    0.2364   -0.0183 H         1 <0>         0.1360
     28 H14         0.5293   -0.3651    0.8851 H         1 <0>         0.0603
     29 H15        -1.0205   -0.3814    0.0098 H         1 <0>         0.1073
     30 H16         0.5123   -0.3556   -0.8948 H         1 <0>         0.0603
     31 H17         3.3827    5.8878    0.6578 H         1 <0>         0.1004
     32 H18         2.8223    5.9221   -1.0283 H         1 <0>         0.0975
     33 N1          1.3429    7.7003    0.1740 N.4       1 <0>        -0.5180
     34 H19         1.8978    7.8785   -0.6714 H         1 <0>         0.4301
     35 H20         0.3927    8.0667    0.0433 H         1 <0>         0.4327
@<TRIPOS>BOND
     1    1    2 1
     2    1   16 1
     3    1   17 1
     4    1   18 1
     5    2   19 1
     6    2   20 1
     7    2   33 1
     8    3    4 1
     9    3   15 1
    10    3    5 1
    11    3   33 1
    12    5    6 1
    13    5   21 1
    14    5   22 1
    15    6    7 1
    16    6   23 1
    17    6   24 1
    18    7   12 ar
    19    7    8 ar
    20    8    9 ar
    21    8   15 1
    22    9   10 ar
    23    9   25 1
    24   10   11 ar
    25   10   26 1
    26   11   12 ar
    27   11   27 1
    28   12   13 1
    29   13   14 1
    30   14   28 1
    31   14   29 1
    32   14   30 1
    33   15   31 1
    34   15   32 1
    35   33   34 1
    36   33   35 1
@<TRIPOS>MOLECULE
ZINC13759783
   32    33     0     0     0
SMALL
USER_CHARGES
(2R)-5-methoxy-N-methyl-tetralin-2-amine
@<TRIPOS>ATOM
      1 C1         -0.0127    1.0858    0.0080 C.3       1 <0>        -0.0444
      2 C2         -2.0844    1.0695    1.2612 C.3       1 <0>         0.0259
      3 H1         -2.4951    1.0375    0.2520 H         1 <0>         0.1442
      4 C3         -2.9336    1.9994    2.1358 C.3       1 <0>        -0.1387
      5 C4         -4.4008    1.6083    1.9711 C.3       1 <0>        -0.0666
      6 C5         -4.5822    0.1288    2.1875 C.ar      1 <0>        -0.1171
      7 C6         -3.5344   -0.7618    2.1356 C.ar      1 <0>        -0.0563
      8 C7         -3.7719   -2.1165    2.3303 C.ar      1 <0>        -0.1502
      9 C8         -5.0481   -2.5787    2.5795 C.ar      1 <0>        -0.0700
     10 C9         -6.1024   -1.6881    2.6373 C.ar      1 <0>        -0.1985
     11 C10        -5.8708   -0.3368    2.4421 C.ar      1 <0>         0.1364
     12 O1         -6.9067    0.5409    2.4995 O.3       1 <0>        -0.3144
     13 C11        -8.2022   -0.0009    2.7644 C.3       1 <0>         0.0236
     14 C12        -2.1154   -0.3293    1.8737 C.3       1 <0>        -0.0901
     15 H2          0.0021   -0.0041    0.0020 H         1 <0>         0.1220
     16 H3          1.0099    1.4631    0.0003 H         1 <0>         0.1261
     17 H4         -0.5399    1.4469   -0.8751 H         1 <0>         0.1231
     18 H5         -2.6396    1.8911    3.1798 H         1 <0>         0.0927
     19 H6         -2.7912    3.0326    1.8191 H         1 <0>         0.0938
     20 H7         -4.7312    1.8676    0.9652 H         1 <0>         0.0862
     21 H8         -5.0016    2.1543    2.6985 H         1 <0>         0.0985
     22 H9         -2.9494   -2.8151    2.2867 H         1 <0>         0.1275
     23 H10        -5.2221   -3.6340    2.7293 H         1 <0>         0.1335
     24 H11        -7.1030   -2.0441    2.8335 H         1 <0>         0.1361
     25 H12        -8.1937   -0.5075    3.7295 H         1 <0>         0.0603
     26 H13        -8.9361    0.8047    2.7834 H         1 <0>         0.1074
     27 H14        -8.4649   -0.7134    1.9825 H         1 <0>         0.0603
     28 H15        -1.6462   -1.0331    1.1862 H         1 <0>         0.0998
     29 H16        -1.5631   -0.3225    2.8134 H         1 <0>         0.0989
     30 N1         -0.6958    1.5658    1.2241 N.4       1 <0>        -0.5179
     31 H17        -0.7030    2.5925    1.2256 H         1 <0>         0.4352
     32 H18        -0.1924    1.2258    2.0519 H         1 <0>         0.4326
@<TRIPOS>BOND
     1    1   15 1
     2    1   16 1
     3    1   17 1
     4    1   30 1
     5    2    3 1
     6    2   14 1
     7    2    4 1
     8    2   30 1
     9    4    5 1
    10    4   18 1
    11    4   19 1
    12    5    6 1
    13    5   20 1
    14    5   21 1
    15    6   11 ar
    16    6    7 ar
    17    7    8 ar
    18    7   14 1
    19    8    9 ar
    20    8   22 1
    21    9   10 ar
    22    9   23 1
    23   10   11 ar
    24   10   24 1
    25   11   12 1
    26   12   13 1
    27   13   25 1
    28   13   26 1
    29   13   27 1
    30   14   28 1
    31   14   29 1
    32   30   31 1
    33   30   32 1
@<TRIPOS>MOLECULE
ZINC13759784
   32    33     0     0     0
SMALL
USER_CHARGES
(2S)-5-methoxy-N-methyl-tetralin-2-amine
@<TRIPOS>ATOM
      1 C1          1.9729    8.3800    1.3217 C.3       1 <0>        -0.0444
      2 C2          1.2751    6.2465    0.4140 C.3       1 <0>         0.0258
      3 H1          1.1065    6.0511    1.4730 H         1 <0>         0.1436
      4 C3          0.1291    5.6480   -0.4103 C.3       1 <0>        -0.1383
      5 C4         -0.0733    4.1988    0.0273 C.3       1 <0>        -0.0666
      6 C5          1.2339    3.4509    0.0030 C.ar      1 <0>        -0.1171
      7 C6          2.4529    4.0894   -0.0053 C.ar      1 <0>        -0.0561
      8 C7          3.6226    3.3402   -0.0176 C.ar      1 <0>        -0.1501
      9 C8          3.5749    1.9610   -0.0216 C.ar      1 <0>        -0.0700
     10 C9          2.3537    1.3155   -0.0134 C.ar      1 <0>        -0.1985
     11 C10         1.1850    2.0582    0.0018 C.ar      1 <0>         0.1364
     12 O1         -0.0173    1.4248    0.0099 O.3       1 <0>        -0.3144
     13 C11         0.0021   -0.0041    0.0020 C.3       1 <0>         0.0236
     14 C12         2.5814    5.5903   -0.0165 C.3       1 <0>        -0.0903
     15 H2          2.0131    9.4512    1.1243 H         1 <0>         0.1261
     16 H3          1.3864    8.1982    2.2222 H         1 <0>         0.1231
     17 H4          2.9841    7.9985    1.4635 H         1 <0>         0.1220
     18 H5          0.3835    5.6795   -1.4697 H         1 <0>         0.0927
     19 H6         -0.7847    6.2156   -0.2346 H         1 <0>         0.0940
     20 H7         -0.7774    3.7141   -0.6490 H         1 <0>         0.0986
     21 H8         -0.4782    4.1820    1.0392 H         1 <0>         0.0862
     22 H9          4.5788    3.8421   -0.0238 H         1 <0>         0.1275
     23 H10         4.4902    1.3878   -0.0307 H         1 <0>         0.1335
     24 H11         2.3106    0.2364   -0.0191 H         1 <0>         0.1361
     25 H12        -1.0205   -0.3814    0.0098 H         1 <0>         0.1074
     26 H13         0.5123   -0.3556   -0.8948 H         1 <0>         0.0603
     27 H14         0.5293   -0.3651    0.8851 H         1 <0>         0.0603
     28 H15         3.3830    5.8874    0.6596 H         1 <0>         0.1008
     29 H16         2.8220    5.9228   -1.0263 H         1 <0>         0.0974
     30 N1          1.3429    7.7003    0.1740 N.4       1 <0>        -0.5178
     31 H17         1.8978    7.8785   -0.6714 H         1 <0>         0.4326
     32 H18         0.3927    8.0667    0.0433 H         1 <0>         0.4353
@<TRIPOS>BOND
     1    1   15 1
     2    1   16 1
     3    1   17 1
     4    1   30 1
     5    2    3 1
     6    2   14 1
     7    2    4 1
     8    2   30 1
     9    4    5 1
    10    4   18 1
    11    4   19 1
    12    5    6 1
    13    5   20 1
    14    5   21 1
    15    6   11 ar
    16    6    7 ar
    17    7    8 ar
    18    7   14 1
    19    8    9 ar
    20    8   22 1
    21    9   10 ar
    22    9   23 1
    23   10   11 ar
    24   10   24 1
    25   11   12 1
    26   12   13 1
    27   13   25 1
    28   13   26 1
    29   13   27 1
    30   14   28 1
    31   14   29 1
    32   30   31 1
    33   30   32 1
@<TRIPOS>MOLECULE
ZINC13759787
   38    39     0     0     0
SMALL
USER_CHARGES
(2R)-5-methoxy-N-propyl-tetralin-2-amine
@<TRIPOS>ATOM
      1 C1         -4.3057   -1.1970   -2.0529 C.3       1 <0>        -0.1571
      2 C2         -3.5165   -1.1260   -0.7441 C.3       1 <0>        -0.1513
      3 C3         -2.1122   -0.5868   -1.0240 C.3       1 <0>        -0.0078
      4 C4          0.0021   -0.0041    0.0020 C.3       1 <0>         0.0277
      5 H1          0.3723   -0.3610   -0.9591 H         1 <0>         0.1440
      6 C5          0.9328   -0.4808    1.1234 C.3       1 <0>        -0.1383
      7 C6          2.3697   -0.1383    0.7348 C.3       1 <0>        -0.0663
      8 C7          2.4799    1.3101    0.3364 C.ar      1 <0>        -0.1168
      9 C8          1.3843    2.0718   -0.0000 C.ar      1 <0>        -0.0557
     10 C9          1.5556    3.4010   -0.3656 C.ar      1 <0>        -0.1502
     11 C10         2.8139    3.9671   -0.3918 C.ar      1 <0>        -0.0700
     12 C11         3.9163    3.2077   -0.0509 C.ar      1 <0>        -0.1986
     13 C12         3.7505    1.8819    0.3126 C.ar      1 <0>         0.1364
     14 O1          4.8341    1.1333    0.6480 O.3       1 <0>        -0.3144
     15 C13         6.1079    1.7793    0.6032 C.3       1 <0>         0.0237
     16 C14        -0.0186    1.5231    0.0104 C.3       1 <0>        -0.0899
     17 H2         -5.3061   -1.5811   -1.8535 H         1 <0>         0.0775
     18 H3         -4.3793   -0.2000   -2.4874 H         1 <0>         0.0670
     19 H4         -3.7941   -1.8604   -2.7502 H         1 <0>         0.0671
     20 H5         -3.4429   -2.1229   -0.3097 H         1 <0>         0.0862
     21 H6         -4.0281   -0.4626   -0.0468 H         1 <0>         0.0861
     22 H7         -2.1858    0.4102   -1.4585 H         1 <0>         0.1300
     23 H8         -1.6006   -1.2502   -1.7213 H         1 <0>         0.1309
     24 H9          0.6742    0.0234    2.0545 H         1 <0>         0.0928
     25 H10         0.8332   -1.5589    1.2497 H         1 <0>         0.0936
     26 H11         3.0266   -0.3286    1.5836 H         1 <0>         0.0986
     27 H12         2.6748   -0.7657   -0.1027 H         1 <0>         0.0862
     28 H13         0.6955    3.9972   -0.6323 H         1 <0>         0.1274
     29 H14         2.9364    5.0013   -0.6778 H         1 <0>         0.1334
     30 H15         4.9032    3.6461   -0.0681 H         1 <0>         0.1360
     31 H16         6.1112    2.6242    1.2919 H         1 <0>         0.0603
     32 H17         6.8846    1.0715    0.8929 H         1 <0>         0.1073
     33 H18         6.2996    2.1349   -0.4091 H         1 <0>         0.0603
     34 H19        -0.5508    1.8802   -0.8712 H         1 <0>         0.0995
     35 H20        -0.5339    1.8707    0.9059 H         1 <0>         0.0989
     36 N1         -1.3583   -0.5215    0.2422 N.4       1 <0>        -0.5177
     37 H21        -1.2959   -1.4625    0.6482 H         1 <0>         0.4328
     38 H22        -1.8471    0.1016    0.8957 H         1 <0>         0.4303
@<TRIPOS>BOND
     1    1    2 1
     2    1   17 1
     3    1   18 1
     4    1   19 1
     5    2    3 1
     6    2   20 1
     7    2   21 1
     8    3   22 1
     9    3   23 1
    10    3   36 1
    11    4    5 1
    12    4   16 1
    13    4    6 1
    14    4   36 1
    15    6    7 1
    16    6   24 1
    17    6   25 1
    18    7    8 1
    19    7   26 1
    20    7   27 1
    21    8   13 ar
    22    8    9 ar
    23    9   10 ar
    24    9   16 1
    25   10   11 ar
    26   10   28 1
    27   11   12 ar
    28   11   29 1
    29   12   13 ar
    30   12   30 1
    31   13   14 1
    32   14   15 1
    33   15   31 1
    34   15   32 1
    35   15   33 1
    36   16   34 1
    37   16   35 1
    38   36   37 1
    39   36   38 1
@<TRIPOS>MOLECULE
ZINC13759788
   38    39     0     0     0
SMALL
USER_CHARGES
(2S)-5-methoxy-N-propyl-tetralin-2-amine
@<TRIPOS>ATOM
      1 C1         -0.0366    1.0992   -2.4903 C.3       1 <0>        -0.1571
      2 C2         -0.7527    1.5927   -1.2315 C.3       1 <0>        -0.1513
      3 C3         -0.0127    1.0858    0.0080 C.3       1 <0>        -0.0076
      4 C4         -0.0162    1.0911    2.4293 C.3       1 <0>         0.0278
      5 H1          1.0591    1.0571    2.2542 H         1 <0>         0.1439
      6 C5         -0.3202    2.0415    3.5935 C.3       1 <0>        -0.1383
      7 C6          0.5854    1.6717    4.7664 C.3       1 <0>        -0.0664
      8 C7          0.4976    0.1968    5.0594 C.ar      1 <0>        -0.1168
      9 C8         -0.0038   -0.7101    4.1540 C.ar      1 <0>        -0.0557
     10 C9         -0.0494   -2.0588    4.4835 C.ar      1 <0>        -0.1501
     11 C10         0.3991   -2.4986    5.7123 C.ar      1 <0>        -0.0701
     12 C11         0.8987   -1.5915    6.6264 C.ar      1 <0>        -0.1986
     13 C12         0.9483   -0.2463    6.3014 C.ar      1 <0>         0.1364
     14 O1          1.4405    0.6474    7.1992 O.3       1 <0>        -0.3144
     15 C13         1.8860    0.1282    8.4538 C.3       1 <0>         0.0237
     16 C14        -0.5222   -0.3015    2.7999 C.3       1 <0>        -0.0899
     17 H2         -0.0218    0.0093   -2.4963 H         1 <0>         0.0670
     18 H3         -0.5637    1.4603   -3.3734 H         1 <0>         0.0775
     19 H4          0.9860    1.4765   -2.4981 H         1 <0>         0.0671
     20 H5         -1.7753    1.2154   -1.2238 H         1 <0>         0.0861
     21 H6         -0.7675    2.6825   -1.2255 H         1 <0>         0.0863
     22 H7          0.0021   -0.0041    0.0020 H         1 <0>         0.1300
     23 H8          1.0099    1.4631    0.0003 H         1 <0>         0.1309
     24 H9         -0.1247    3.0696    3.2887 H         1 <0>         0.0937
     25 H10        -1.3642    1.9379    3.8889 H         1 <0>         0.0928
     26 H11         1.6157    1.9284    4.5199 H         1 <0>         0.0862
     27 H12         0.2774    2.2324    5.6490 H         1 <0>         0.0986
     28 H13        -0.4394   -2.7704    3.7708 H         1 <0>         0.1274
     29 H14         0.3598   -3.5495    5.9585 H         1 <0>         0.1334
     30 H15         1.2488   -1.9298    7.5904 H         1 <0>         0.1360
     31 H16         2.6883   -0.5901    8.2855 H         1 <0>         0.0603
     32 H17         2.2538    0.9449    9.0750 H         1 <0>         0.1073
     33 H18         1.0556   -0.3661    8.9579 H         1 <0>         0.0603
     34 H19        -1.6120   -0.2947    2.8192 H         1 <0>         0.0990
     35 H20        -0.1810   -1.0185    2.0531 H         1 <0>         0.0995
     36 N1         -0.7091    1.5657    1.2166 N.4       1 <0>        -0.5178
     37 H21        -1.6724    1.2103    1.2160 H         1 <0>         0.4303
     38 H22        -0.7230    2.5923    1.2143 H         1 <0>         0.4327
@<TRIPOS>BOND
     1    1    2 1
     2    1   17 1
     3    1   18 1
     4    1   19 1
     5    2    3 1
     6    2   20 1
     7    2   21 1
     8    3   22 1
     9    3   23 1
    10    3   36 1
    11    4    5 1
    12    4   16 1
    13    4    6 1
    14    4   36 1
    15    6    7 1
    16    6   24 1
    17    6   25 1
    18    7    8 1
    19    7   26 1
    20    7   27 1
    21    8   13 ar
    22    8    9 ar
    23    9   10 ar
    24    9   16 1
    25   10   11 ar
    26   10   28 1
    27   11   12 ar
    28   11   29 1
    29   12   13 ar
    30   12   30 1
    31   13   14 1
    32   14   15 1
    33   15   31 1
    34   15   32 1
    35   15   33 1
    36   16   34 1
    37   16   35 1
    38   36   37 1
    39   36   38 1
@<TRIPOS>MOLECULE
ZINC03812548
   56    59     0     0     0
SMALL
USER_CHARGES

@<TRIPOS>ATOM
      1 C1         -0.0192    1.4269   -0.0108 C.ar      1 <0>        -0.1040
      2 C2          1.1766    2.1210   -0.0096 C.ar      1 <0>        -0.1185
      3 C3          2.3724    1.4313   -0.0232 C.ar      1 <0>        -0.1143
      4 C4          2.3803    0.0450   -0.0401 C.ar      1 <0>        -0.1314
      5 C5          1.1873   -0.6467   -0.0454 C.ar      1 <0>        -0.0648
      6 C6         -0.0128    0.0463   -0.0280 C.ar      1 <0>        -0.1136
      7 C7          1.1546   -2.1534   -0.0768 C.3       1 <0>        -0.1213
      8 C8          2.5220   -2.7091    0.3248 C.3       1 <0>         0.0630
      9 O1          3.5287   -2.0332   -0.4372 O.3       1 <0>        -0.3780
     10 C9          3.7057   -0.6712   -0.0491 C.3       1 <0>         0.1425
     11 H1          4.1429   -0.6341    0.9487 H         1 <0>         0.0801
     12 C10         4.6478    0.0190   -1.0375 C.3       1 <0>        -0.1401
     13 C11         6.0324   -0.6273   -0.9584 C.3       1 <0>        -0.0084
     14 N1          6.9370    0.0353   -1.9074 N.4       1 <0>        -0.3826
     15 C12         6.4646   -0.2008   -3.2775 C.3       1 <0>        -0.0274
     16 C13         7.3397    0.5835   -4.2608 C.3       1 <0>         0.0955
     17 N2          8.7451    0.2144   -4.0310 N.pl3     1 <0>        -0.6397
     18 C14         9.2589    0.2654   -2.6535 C.3       1 <0>         0.0954
     19 C15         8.2932   -0.5039   -1.7461 C.3       1 <0>        -0.0216
     20 C16         9.5684   -0.1729   -5.0908 C.ar      1 <0>         0.2561
     21 C17         9.0378   -0.3226   -6.3658 C.ar      1 <0>        -0.2090
     22 C18         9.8547   -0.7053   -7.4114 C.ar      1 <0>         0.0320
     23 C19        11.1995   -0.9398   -7.1902 C.ar      1 <0>        -0.7145
     24 C20        11.7310   -0.7917   -5.9222 C.ar      1 <0>         0.0321
     25 C21        10.9208   -0.4038   -4.8732 C.ar      1 <0>        -0.2084
     26 S1         12.2379   -1.4290   -8.5270 S.o2      1 <0>         2.7015
     27 O2         13.3422   -2.1153   -7.9534 O.2       1 <0>        -0.9615
     28 O3         11.3925   -2.0259   -9.5007 O.2       1 <0>        -0.9616
     29 N3         12.8424   -0.0462   -9.2088 N.pl3     1 <0>        -1.2499
     30 H2         -0.9563    1.9635    0.0061 H         1 <0>         0.1298
     31 H3          1.1751    3.2009    0.0016 H         1 <0>         0.1281
     32 H4          3.3061    1.9742   -0.0210 H         1 <0>         0.1208
     33 H5         -0.9469   -0.4958   -0.0282 H         1 <0>         0.1289
     34 H6          0.3980   -2.5141    0.6200 H         1 <0>         0.0927
     35 H7          0.9083   -2.4897   -1.0839 H         1 <0>         0.0902
     36 H8          2.6897   -2.5364    1.3878 H         1 <0>         0.0621
     37 H9          2.5592   -3.7779    0.1141 H         1 <0>         0.1089
     38 H10         4.2547   -0.0869   -2.0486 H         1 <0>         0.0989
     39 H11         4.7258    1.0769   -0.7869 H         1 <0>         0.1030
     40 H12         6.4256   -0.5214    0.0527 H         1 <0>         0.1337
     41 H13         5.9544   -1.6852   -1.2090 H         1 <0>         0.1397
     42 H14         6.5265   -1.2650   -3.5049 H         1 <0>         0.1360
     43 H15         5.4301    0.1306   -3.3675 H         1 <0>         0.1444
     44 H16         7.0575    0.3322   -5.2832 H         1 <0>         0.1299
     45 H17         7.2099    1.6528   -4.0942 H         1 <0>         0.0933
     46 H18        10.2455   -0.1962   -2.6133 H         1 <0>         0.1299
     47 H19         9.3229    1.3026   -2.3246 H         1 <0>         0.0933
     48 H20         8.6062   -0.3958   -0.7076 H         1 <0>         0.1442
     49 H21         8.2997   -1.5590   -2.0199 H         1 <0>         0.1351
     50 H22         7.9875   -0.1403   -6.5390 H         1 <0>         0.1350
     51 H23         9.4428   -0.8219   -8.4030 H         1 <0>         0.1490
     52 H24        12.7816   -0.9757   -5.7529 H         1 <0>         0.1491
     53 H25        11.3374   -0.2839   -3.8840 H         1 <0>         0.1353
     54 H26        12.5961    0.8200   -8.8484 H         1 <0>         0.4158
     55 H27        13.4428   -0.1025   -9.9686 H         1 <0>         0.4237
     56 H28         6.9469    1.0275   -1.7240 H         1 <0>         0.4215
@<TRIPOS>BOND
     1    1    6 ar
     2    1    2 ar
     3    1   30 1
     4    2    3 ar
     5    2   31 1
     6    3    4 ar
     7    3   32 1
     8    4   10 1
     9    4    5 ar
    10    5    6 ar
    11    5    7 1
    12    6   33 1
    13    7    8 1
    14    7   34 1
    15    7   35 1
    16    8    9 1
    17    8   36 1
    18    8   37 1
    19    9   10 1
    20   10   11 1
    21   10   12 1
    22   12   13 1
    23   12   38 1
    24   12   39 1
    25   13   14 1
    26   13   40 1
    27   13   41 1
    28   14   19 1
    29   14   15 1
    30   14   56 1
    31   15   16 1
    32   15   42 1
    33   15   43 1
    34   16   17 1
    35   16   44 1
    36   16   45 1
    37   17   18 1
    38   17   20 1
    39   18   19 1
    40   18   46 1
    41   18   47 1
    42   19   48 1
    43   19   49 1
    44   20   25 ar
    45   20   21 ar
    46   21   22 ar
    47   21   50 1
    48   22   23 ar
    49   22   51 1
    50   23   24 ar
    51   23   26 1
    52   24   25 ar
    53   24   52 1
    54   25   53 1
    55   26   27 2
    56   26   28 2
    57   26   29 1
    58   29   54 1
    59   29   55 1
@<TRIPOS>MOLECULE
ZINC03812548
   55    58     0     0     0
SMALL
USER_CHARGES

@<TRIPOS>ATOM
      1 C1         -0.0190    1.4260   -0.0085 C.ar      1 <0>        -0.1149
      2 C2          1.1769    2.1198   -0.0071 C.ar      1 <0>        -0.1216
      3 C3          2.3726    1.4301   -0.0216 C.ar      1 <0>        -0.1089
      4 C4          2.3803    0.0438   -0.0395 C.ar      1 <0>        -0.1156
      5 C5          1.1873   -0.6478   -0.0449 C.ar      1 <0>        -0.0726
      6 C6         -0.0128    0.0454   -0.0266 C.ar      1 <0>        -0.1188
      7 C7          1.1544   -2.1545   -0.0774 C.3       1 <0>        -0.1170
      8 C8          2.5218   -2.7107    0.3234 C.3       1 <0>         0.0596
      9 O1          3.5283   -2.0343   -0.4384 O.3       1 <0>        -0.3708
     10 C9          3.7056   -0.6726   -0.0495 C.3       1 <0>         0.1331
     11 H1          4.1432   -0.6362    0.9482 H         1 <0>         0.0717
     12 C10         4.6476    0.0181   -1.0377 C.3       1 <0>        -0.1051
     13 C11         6.0321   -0.6283   -0.9595 C.3       1 <0>         0.0578
     14 N1          6.9364    0.0349   -1.9083 N.3       1 <0>        -0.5374
     15 C12         6.5105   -0.2010   -3.2942 C.3       1 <0>         0.0360
     16 C13         7.3653    0.6498   -4.2396 C.3       1 <0>         0.1191
     17 N2          8.7831    0.3682   -3.9683 N.pl3     1 <0>        -0.6188
     18 C14         9.2552    0.4502   -2.5777 C.3       1 <0>         0.1200
     19 C15         8.3260   -0.3927   -1.6978 C.3       1 <0>         0.0397
     20 C16         9.6580    0.0314   -5.0037 C.ar      1 <0>         0.2767
     21 C17         9.1735   -0.1519   -6.2926 C.ar      1 <0>        -0.2220
     22 C18        10.0414   -0.4844   -7.3141 C.ar      1 <0>         0.0314
     23 C19        11.3913   -0.6352   -7.0550 C.ar      1 <0>        -0.7357
     24 C20        11.8770   -0.4534   -5.7731 C.ar      1 <0>         0.0314
     25 C21        11.0155   -0.1152   -4.7480 C.ar      1 <0>        -0.2217
     26 S1         12.4949   -1.0606   -8.3610 S.o2      1 <0>         2.7041
     27 O2         13.6229   -1.6767   -7.7551 O.2       1 <0>        -0.9702
     28 O3         11.7154   -1.7094   -9.3563 O.2       1 <0>        -0.9701
     29 N3         13.0317    0.3563   -9.0294 N.pl3     1 <0>        -1.2523
     30 H2         -0.9560    1.9627    0.0092 H         1 <0>         0.1239
     31 H3          1.1755    3.1998    0.0048 H         1 <0>         0.1244
     32 H4          3.3063    1.9728   -0.0193 H         1 <0>         0.1263
     33 H5         -0.9469   -0.4966   -0.0269 H         1 <0>         0.1231
     34 H6          0.3979   -2.5156    0.6194 H         1 <0>         0.0858
     35 H7          0.9077   -2.4900   -1.0847 H         1 <0>         0.0860
     36 H8          2.6899   -2.5388    1.3865 H         1 <0>         0.0561
     37 H9          2.5588   -3.7793    0.1119 H         1 <0>         0.1010
     38 H10         4.2541   -0.0870   -2.0487 H         1 <0>         0.0741
     39 H11         4.7257    1.0759   -0.7863 H         1 <0>         0.0892
     40 H12         6.4256   -0.5232    0.0516 H         1 <0>         0.0762
     41 H13         5.9539   -1.6861   -1.2108 H         1 <0>         0.0462
     42 H14         6.6371   -1.2555   -3.5392 H         1 <0>         0.0412
     43 H15         5.4618    0.0751   -3.4044 H         1 <0>         0.0917
     44 H16         7.1325    0.3943   -5.2734 H         1 <0>         0.0901
     45 H17         7.1621    1.7065   -4.0659 H         1 <0>         0.0768
     46 H18        10.2719    0.0628   -2.5128 H         1 <0>         0.0901
     47 H19         9.2336    1.4877   -2.2443 H         1 <0>         0.0768
     48 H20         8.5940   -0.2557   -0.6502 H         1 <0>         0.0894
     49 H21         8.4273   -1.4446   -1.9650 H         1 <0>         0.0407
     50 H22         8.1192   -0.0350   -6.4955 H         1 <0>         0.1331
     51 H23         9.6653   -0.6271   -8.3164 H         1 <0>         0.1410
     52 H24        12.9319   -0.5719   -5.5741 H         1 <0>         0.1411
     53 H25        11.3962    0.0311   -3.7480 H         1 <0>         0.1331
     54 H26        12.7224    1.2060   -8.6783 H         1 <0>         0.4159
     55 H27        13.6554    0.3365   -9.7721 H         1 <0>         0.4191
@<TRIPOS>BOND
     1    1    6 ar
     2    1    2 ar
     3    1   30 1
     4    2    3 ar
     5    2   31 1
     6    3    4 ar
     7    3   32 1
     8    4   10 1
     9    4    5 ar
    10    5    6 ar
    11    5    7 1
    12    6   33 1
    13    7    8 1
    14    7   34 1
    15    7   35 1
    16    8    9 1
    17    8   36 1
    18    8   37 1
    19    9   10 1
    20   10   11 1
    21   10   12 1
    22   12   13 1
    23   12   38 1
    24   12   39 1
    25   13   14 1
    26   13   40 1
    27   13   41 1
    28   14   19 1
    29   14   15 1
    30   15   16 1
    31   15   42 1
    32   15   43 1
    33   16   17 1
    34   16   44 1
    35   16   45 1
    36   17   18 1
    37   17   20 1
    38   18   19 1
    39   18   46 1
    40   18   47 1
    41   19   48 1
    42   19   49 1
    43   20   25 ar
    44   20   21 ar
    45   21   22 ar
    46   21   50 1
    47   22   23 ar
    48   22   51 1
    49   23   24 ar
    50   23   26 1
    51   24   25 ar
    52   24   52 1
    53   25   53 1
    54   26   27 2
    55   26   28 2
    56   26   29 1
    57   29   54 1
    58   29   55 1
@<TRIPOS>MOLECULE
ZINC53230825
   54    56     0     0     0
SMALL
USER_CHARGES

@<TRIPOS>ATOM
      1 C1          1.1695   -0.8282   -0.0010 C.3       1 <0>         0.0293
      2 O1          0.0021   -0.0041   -0.0007 O.3       1 <0>        -0.3220
      3 C2         -1.2012   -0.6379    0.0083 C.ar      1 <0>         0.0681
      4 C3         -1.2544   -2.0238    0.0224 C.ar      1 <0>        -0.1563
      5 C4         -2.4759   -2.6683    0.0315 C.ar      1 <0>        -0.1614
      6 C5         -3.6509   -1.9284    0.0266 C.ar      1 <0>         0.1877
      7 C6         -3.5967   -0.5409    0.0124 C.ar      1 <0>        -0.1602
      8 C7         -2.3743    0.1020    0.0090 C.ar      1 <0>        -0.1005
      9 N1         -4.8890   -2.5806    0.0353 N.pl3     1 <0>        -0.6338
     10 C8         -6.1423   -1.8196    0.1498 C.3       1 <0>         0.1280
     11 C9         -6.9797   -2.4279    1.2798 C.3       1 <0>         0.0417
     12 N2         -7.1469   -3.8676    1.0407 N.3       1 <0>        -0.5318
     13 C10        -5.8549   -4.5660    1.0691 C.3       1 <0>         0.0339
     14 C11        -4.9717   -4.0449   -0.0757 C.3       1 <0>         0.1277
     15 C12        -8.0848   -4.4562    2.0060 C.3       1 <0>         0.0447
     16 C13        -8.4257   -5.8854    1.5793 C.3       1 <0>         0.1215
     17 N3         -9.3611   -6.4724    2.5420 N.am      1 <0>        -0.7260
     18 C14        -9.8038   -7.7335    2.3684 C.2       1 <0>         0.5616
     19 O2         -9.4269   -8.3839    1.4132 O.2       1 <0>        -0.5274
     20 C15       -10.7478   -8.3260    3.3400 C.ar      1 <0>        -0.0968
     21 C16       -11.1868   -7.5793    4.4349 C.ar      1 <0>        -0.1256
     22 C17       -12.0676   -8.1352    5.3395 C.ar      1 <0>        -0.0851
     23 C18       -12.5177   -9.4312    5.1659 C.ar      1 <0>        -0.1835
     24 C19       -12.0869  -10.1813    4.0804 C.ar      1 <0>         0.1228
     25 C20       -11.2075   -9.6309    3.1628 C.ar      1 <0>        -0.0918
     26 O3        -12.5322  -11.4547    3.9150 O.3       1 <0>        -0.3136
     27 C21       -13.4418  -11.9565    4.8963 C.3       1 <0>         0.0254
     28 H1          2.0590   -0.1982   -0.0086 H         1 <0>         0.0978
     29 H2          1.1739   -1.4523    0.8927 H         1 <0>         0.0522
     30 H3          1.1661   -1.4628   -0.8872 H         1 <0>         0.0527
     31 H4         -0.3404   -2.5992    0.0259 H         1 <0>         0.1266
     32 H5         -2.5171   -3.7475    0.0421 H         1 <0>         0.1249
     33 H6         -4.5101    0.0353    0.0086 H         1 <0>         0.1292
     34 H7         -2.3320    1.1811    0.0029 H         1 <0>         0.1299
     35 H8         -5.9185   -0.7779    0.3799 H         1 <0>         0.0867
     36 H9         -6.6943   -1.8799   -0.7882 H         1 <0>         0.0703
     37 H10        -6.4722   -2.2739    2.2321 H         1 <0>         0.0403
     38 H11        -7.9579   -1.9477    1.3068 H         1 <0>         0.0872
     39 H12        -5.3630   -4.3823    2.0243 H         1 <0>         0.0410
     40 H13        -6.0172   -5.6365    0.9431 H         1 <0>         0.0893
     41 H14        -5.4132   -4.3150   -1.0350 H         1 <0>         0.0713
     42 H15        -3.9735   -4.4752    0.0051 H         1 <0>         0.0860
     43 H16        -7.6265   -4.4717    2.9948 H         1 <0>         0.0420
     44 H17        -8.9963   -3.8592    2.0373 H         1 <0>         0.0843
     45 H18        -8.8841   -5.8699    0.5905 H         1 <0>         0.0813
     46 H19        -7.5143   -6.4824    1.5480 H         1 <0>         0.0708
     47 H20        -9.6619   -5.9534    3.3043 H         1 <0>         0.4003
     48 H21       -10.8367   -6.5671    4.5738 H         1 <0>         0.1272
     49 H22       -12.4065   -7.5565    6.1861 H         1 <0>         0.1335
     50 H23       -13.2067   -9.8614    5.8777 H         1 <0>         0.1343
     51 H24       -10.8750  -10.2120    2.3153 H         1 <0>         0.1456
     52 H25       -14.3361  -11.3336    4.9150 H         1 <0>         0.0575
     53 H26       -13.7177  -12.9808    4.6459 H         1 <0>         0.1038
     54 H27       -12.9654  -11.9378    5.8765 H         1 <0>         0.0574
@<TRIPOS>BOND
     1    1    2 1
     2    1   28 1
     3    1   29 1
     4    1   30 1
     5    2    3 1
     6    3    8 ar
     7    3    4 ar
     8    4    5 ar
     9    4   31 1
    10    5    6 ar
    11    5   32 1
    12    6    7 ar
    13    6    9 1
    14    7    8 ar
    15    7   33 1
    16    8   34 1
    17    9   14 1
    18    9   10 1
    19   10   11 1
    20   10   35 1
    21   10   36 1
    22   11   12 1
    23   11   37 1
    24   11   38 1
    25   12   13 1
    26   12   15 1
    27   13   14 1
    28   13   39 1
    29   13   40 1
    30   14   41 1
    31   14   42 1
    32   15   16 1
    33   15   43 1
    34   15   44 1
    35   16   17 1
    36   16   45 1
    37   16   46 1
    38   17   18 am
    39   17   47 1
    40   18   19 2
    41   18   20 1
    42   20   25 ar
    43   20   21 ar
    44   21   22 ar
    45   21   48 1
    46   22   23 ar
    47   22   49 1
    48   23   24 ar
    49   23   50 1
    50   24   25 ar
    51   24   26 1
    52   25   51 1
    53   26   27 1
    54   27   52 1
    55   27   53 1
    56   27   54 1
@<TRIPOS>MOLECULE
ZINC53231272
   50    52     0     0     0
SMALL
USER_CHARGES

@<TRIPOS>ATOM
      1 C1          0.0526    1.3904   -0.0006 C.3       1 <0>         0.0253
      2 O1          0.0630   -0.0385   -0.0007 O.3       1 <0>        -0.3135
      3 C2         -1.1434   -0.6644   -0.0001 C.ar      1 <0>         0.1229
      4 C3         -2.3132    0.0837   -0.0052 C.ar      1 <0>        -0.1832
      5 C4         -3.5432   -0.5475   -0.0046 C.ar      1 <0>        -0.0851
      6 C5         -3.6164   -1.9256    0.0015 C.ar      1 <0>        -0.1255
      7 C6         -2.4461   -2.6859    0.0067 C.ar      1 <0>        -0.0969
      8 C7         -1.2054   -2.0475   -0.0001 C.ar      1 <0>        -0.0921
      9 C8         -2.5207   -4.1625    0.0138 C.2       1 <0>         0.5618
     10 O2         -1.5000   -4.8226    0.0183 O.2       1 <0>        -0.5272
     11 N1         -3.7204   -4.7767    0.0153 N.am      1 <0>        -0.7262
     12 C9         -3.7943   -6.2398    0.0223 C.3       1 <0>         0.1215
     13 C10        -5.2606   -6.6764    0.0226 C.3       1 <0>         0.0447
     14 N2         -5.3347   -8.1435    0.0297 N.3       1 <0>        -0.5320
     15 C11        -4.7961   -8.7038   -1.2168 C.3       1 <0>         0.0333
     16 C12        -4.7233  -10.2298   -1.0975 C.3       1 <0>         0.1248
     17 N3         -6.0509  -10.7322   -0.7125 N.pl3     1 <0>        -0.6296
     18 C13        -6.7161  -10.1218    0.4486 C.3       1 <0>         0.1255
     19 C14        -6.7104   -8.6000    0.2684 C.3       1 <0>         0.0414
     20 C15        -6.6646  -11.7625   -1.4315 C.ar      1 <0>         0.2126
     21 C16        -6.0740  -12.2493   -2.5903 C.ar      1 <0>        -0.1737
     22 C17        -6.6817  -13.2674   -3.2987 C.ar      1 <0>        -0.1009
     23 C18        -7.8789  -13.8027   -2.8543 C.ar      1 <0>         0.0343
     24 C19        -8.4695  -13.3188   -1.6992 C.ar      1 <0>        -0.1012
     25 C20        -7.8627  -12.3044   -0.9847 C.ar      1 <0>        -0.1735
     26 F1         -8.4718  -14.7981   -3.5490 F         1 <0>        -0.1461
     27 H1          1.0776    1.7613   -0.0011 H         1 <0>         0.1039
     28 H2         -0.4643    1.7501   -0.8903 H         1 <0>         0.0574
     29 H3         -0.4634    1.7500    0.8897 H         1 <0>         0.0575
     30 H4         -2.2620    1.1624   -0.0092 H         1 <0>         0.1343
     31 H5         -4.4495    0.0398   -0.0086 H         1 <0>         0.1335
     32 H6         -4.5789   -2.4154    0.0027 H         1 <0>         0.1272
     33 H7         -0.2963   -2.6305   -0.0009 H         1 <0>         0.1456
     34 H8         -4.5349   -4.2499    0.0117 H         1 <0>         0.4004
     35 H9         -3.2983   -6.6329   -0.8651 H         1 <0>         0.0709
     36 H10        -3.3005   -6.6243    0.9148 H         1 <0>         0.0814
     37 H11        -5.7566   -6.2833    0.9101 H         1 <0>         0.0847
     38 H12        -5.7544   -6.2920   -0.8698 H         1 <0>         0.0426
     39 H13        -5.4477   -8.4347   -2.0481 H         1 <0>         0.0417
     40 H14        -3.7972   -8.3047   -1.3932 H         1 <0>         0.0914
     41 H15        -4.4335  -10.6587   -2.0568 H         1 <0>         0.0884
     42 H16        -3.9933  -10.5031   -0.3356 H         1 <0>         0.0742
     43 H17        -7.7439  -10.4792    0.5115 H         1 <0>         0.0880
     44 H18        -6.1777  -10.3847    1.3591 H         1 <0>         0.0734
     45 H19        -7.1000   -8.1256    1.1691 H         1 <0>         0.0887
     46 H20        -7.3355   -8.3323   -0.5836 H         1 <0>         0.0411
     47 H21        -5.1404  -11.8319   -2.9375 H         1 <0>         0.1321
     48 H22        -6.2230  -13.6460   -4.2002 H         1 <0>         0.1341
     49 H23        -9.4035  -13.7375   -1.3545 H         1 <0>         0.1341
     50 H24        -8.3214  -11.9304   -0.0814 H         1 <0>         0.1318
@<TRIPOS>BOND
     1    1    2 1
     2    1   27 1
     3    1   28 1
     4    1   29 1
     5    2    3 1
     6    3    8 ar
     7    3    4 ar
     8    4    5 ar
     9    4   30 1
    10    5    6 ar
    11    5   31 1
    12    6    7 ar
    13    6   32 1
    14    7    8 ar
    15    7    9 1
    16    8   33 1
    17    9   10 2
    18    9   11 am
    19   11   12 1
    20   11   34 1
    21   12   13 1
    22   12   35 1
    23   12   36 1
    24   13   14 1
    25   13   37 1
    26   13   38 1
    27   14   19 1
    28   14   15 1
    29   15   16 1
    30   15   39 1
    31   15   40 1
    32   16   17 1
    33   16   41 1
    34   16   42 1
    35   17   18 1
    36   17   20 1
    37   18   19 1
    38   18   43 1
    39   18   44 1
    40   19   45 1
    41   19   46 1
    42   20   25 ar
    43   20   21 ar
    44   21   22 ar
    45   21   47 1
    46   22   23 ar
    47   22   48 1
    48   23   24 ar
    49   23   26 1
    50   24   25 ar
    51   24   49 1
    52   25   50 1
@<TRIPOS>MOLECULE
ZINC21981239
   65    68     0     0     0
SMALL
USER_CHARGES
4-[4-(4-chlorophenyl)-4-hydroxy-1-piperidyl]-N-methyl-2,2-diphenyl-butanamide
@<TRIPOS>ATOM
      1 C1         -0.0855   -1.6023   -3.7609 C.3       1 <0>         0.0833
      2 N1         -0.4220   -0.7797   -2.5964 N.am      1 <0>        -0.7395
      3 C2          0.3089   -0.8777   -1.4682 C.2       1 <0>         0.5134
      4 O1          1.2452   -1.6469   -1.4172 O.2       1 <0>        -0.5125
      5 C3         -0.0372   -0.0315   -0.2703 C.3       1 <0>         0.0266
      6 C4         -1.4630   -0.3499    0.1843 C.3       1 <0>        -0.1369
      7 C5         -1.5965   -1.8544    0.4285 C.3       1 <0>        -0.0220
      8 N2         -2.9985   -2.1804    0.7214 N.4       1 <0>        -0.3936
      9 C6         -3.4255   -1.5760    1.9898 C.3       1 <0>        -0.0052
     10 C7         -4.9241   -1.8129    2.1903 C.3       1 <0>        -0.1281
     11 C8         -5.2007   -3.3189    2.2024 C.3       1 <0>         0.1877
     12 C9         -4.7028   -3.9318    0.8905 C.3       1 <0>        -0.1746
     13 C10        -3.2107   -3.6335    0.7277 C.3       1 <0>         0.0007
     14 C11        -6.6820   -3.5591    2.3403 C.ar      1 <0>        -0.1328
     15 C12        -7.4757   -3.6465    1.2119 C.ar      1 <0>        -0.1020
     16 C13        -8.8335   -3.8725    1.3375 C.ar      1 <0>        -0.1086
     17 C14        -9.4000   -3.9998    2.5933 C.ar      1 <0>        -0.0236
     18 C15        -8.6060   -3.9066    3.7225 C.ar      1 <0>        -0.1072
     19 C16        -7.2474   -3.6862    3.5954 C.ar      1 <0>        -0.0829
     20 Cl1       -11.1063   -4.2771    2.7522 Cl        1 <0>        -0.0522
     21 O2         -4.5148   -3.9216    3.3017 O.3       1 <0>        -0.5800
     22 C17         0.0583    1.4262   -0.6404 C.ar      1 <0>        -0.0900
     23 C18        -1.0131    2.2692   -0.4112 C.ar      1 <0>        -0.1196
     24 C19        -0.9237    3.6073   -0.7463 C.ar      1 <0>        -0.1128
     25 C20         0.2333    4.1004   -1.3199 C.ar      1 <0>        -0.1057
     26 C21         1.3026    3.2563   -1.5543 C.ar      1 <0>        -0.1086
     27 C22         1.2152    1.9192   -1.2144 C.ar      1 <0>        -0.0990
     28 C23         0.9255   -0.3293    0.8502 C.ar      1 <0>        -0.0872
     29 C24         1.5324    0.7075    1.5340 C.ar      1 <0>        -0.0984
     30 C25         2.4118    0.4343    2.5650 C.ar      1 <0>        -0.1172
     31 C26         2.6920   -0.8758    2.9055 C.ar      1 <0>        -0.1048
     32 C27         2.0895   -1.9127    2.2180 C.ar      1 <0>        -0.1213
     33 C28         1.2061   -1.6394    1.1905 C.ar      1 <0>        -0.0966
     34 H1         -0.7882   -1.3849   -4.5788 H         1 <0>         0.0814
     35 H2         -0.1552   -2.6663   -3.4907 H         1 <0>         0.0607
     36 H3          0.9396   -1.3734   -4.0876 H         1 <0>         0.0644
     37 H4         -1.2712   -0.0820   -2.6427 H         1 <0>         0.4214
     38 H5         -1.6809    0.1935    1.1156 H         1 <0>         0.1092
     39 H6         -2.1743   -0.0405   -0.5957 H         1 <0>         0.0991
     40 H7         -1.2726   -2.4017   -0.4690 H         1 <0>         0.1294
     41 H8         -0.9665   -2.1446    1.2822 H         1 <0>         0.1429
     42 H9         -2.8680   -2.0339    2.8202 H         1 <0>         0.1374
     43 H10        -3.2256   -0.4946    1.9663 H         1 <0>         0.1323
     44 H11        -5.2401   -1.3726    3.1475 H         1 <0>         0.1208
     45 H12        -5.4830   -1.3423    1.3680 H         1 <0>         0.1024
     46 H13        -4.8608   -5.0202    0.9111 H         1 <0>         0.1182
     47 H14        -5.2597   -3.4963    0.0477 H         1 <0>         0.0994
     48 H15        -2.8533   -4.0603   -0.2210 H         1 <0>         0.1306
     49 H16        -2.6543   -4.0817    1.5641 H         1 <0>         0.1341
     50 H17        -7.0341   -3.5427    0.2318 H         1 <0>         0.1312
     51 H18        -9.4528   -3.9451    0.4557 H         1 <0>         0.1387
     52 H19        -9.0476   -4.0062    4.7030 H         1 <0>         0.1398
     53 H20        -6.6275   -3.6138    4.4767 H         1 <0>         0.1406
     54 H21        -4.5955   -5.0052    3.4730 H         1 <0>         0.4267
     55 H22        -1.9186    1.8831    0.0331 H         1 <0>         0.1234
     56 H23        -1.7593    4.2668   -0.5635 H         1 <0>         0.1284
     57 H24         0.3018    5.1451   -1.5851 H         1 <0>         0.1289
     58 H25         2.2065    3.6415   -2.0028 H         1 <0>         0.1289
     59 H26         2.0506    1.2597   -1.3976 H         1 <0>         0.1219
     60 H27         1.3165    1.7310    1.2653 H         1 <0>         0.1271
     61 H28         2.8828    1.2444    3.1019 H         1 <0>         0.1270
     62 H29         3.3820   -1.0892    3.7086 H         1 <0>         0.1266
     63 H30         2.3088   -2.9362    2.4838 H         1 <0>         0.1251
     64 H31         0.7354   -2.4495    0.6533 H         1 <0>         0.1194
     65 H32        -3.6206   -1.7541   -0.0794 H         1 <0>         0.4340
@<TRIPOS>BOND
     1    1    2 1
     2    1   34 1
     3    1   35 1
     4    1   36 1
     5    2    3 am
     6    2   37 1
     7    3    4 2
     8    3    5 1
     9    5    6 1
    10    5   22 1
    11    5   28 1
    12    6    7 1
    13    6   38 1
    14    6   39 1
    15    7    8 1
    16    7   40 1
    17    7   41 1
    18    8   13 1
    19    8    9 1
    20    8   65 1
    21    9   10 1
    22    9   42 1
    23    9   43 1
    24   10   11 1
    25   10   44 1
    26   10   45 1
    27   11   12 1
    28   11   14 1
    29   11   21 1
    30   12   13 1
    31   12   46 1
    32   12   47 1
    33   13   48 1
    34   13   49 1
    35   14   19 ar
    36   14   15 ar
    37   15   16 ar
    38   15   50 1
    39   16   17 ar
    40   16   51 1
    41   17   18 ar
    42   17   20 1
    43   18   19 ar
    44   18   52 1
    45   19   53 1
    46   21   54 1
    47   22   27 ar
    48   22   23 ar
    49   23   24 ar
    50   23   55 1
    51   24   25 ar
    52   24   56 1
    53   25   26 ar
    54   25   57 1
    55   26   27 ar
    56   26   58 1
    57   27   59 1
    58   28   33 ar
    59   28   29 ar
    60   29   30 ar
    61   29   60 1
    62   30   31 ar
    63   30   61 1
    64   31   32 ar
    65   31   62 1
    66   32   33 ar
    67   32   63 1
    68   33   64 1
@<TRIPOS>MOLECULE
ZINC06398231
   39    39     0     0     0
SMALL
USER_CHARGES
4-ethynyl-N,N-dipropyl-cyclohex-3-en-1-amine
@<TRIPOS>ATOM
      1 C1          2.7641    4.0146    0.5920 C.3       1 <0>        -0.1562
      2 C2          1.3396    3.4686    0.4755 C.3       1 <0>        -0.1485
      3 C3          1.3860    2.0287   -0.0398 C.3       1 <0>        -0.0173
      4 C4         -0.8044    2.0689   -1.0709 C.3       1 <0>        -0.0133
      5 C5         -0.3159    1.6117   -2.4468 C.3       1 <0>        -0.1481
      6 C6         -1.0957    2.3504   -3.5363 C.3       1 <0>        -0.1559
      7 C7          0.0724   -0.0010   -0.1713 C.3       1 <0>         0.0221
      8 H1          0.5123   -0.2620   -1.1338 H         1 <0>         0.1450
      9 C8         -1.3502   -0.5674   -0.0843 C.3       1 <0>        -0.1398
     10 C9         -1.3014   -2.0576   -0.4280 C.3       1 <0>        -0.0785
     11 C10        -0.2275   -2.7372    0.3706 C.2       1 <0>         0.0029
     12 C11         0.7468   -2.0982    0.9786 C.2       1 <0>        -0.1415
     13 C12         0.9060   -0.6059    0.9604 C.3       1 <0>        -0.1006
     14 C13        -0.2671   -4.1647    0.4765 C.1       1 <0>        -0.1931
     15 C14        -0.2996   -5.3351    0.5634 C.1       1 <0>        -0.1369
     16 H2          2.7311    5.0404    0.9591 H         1 <0>         0.0772
     17 H3          3.3338    3.3981    1.2873 H         1 <0>         0.0669
     18 H4          3.2423    3.9944   -0.3873 H         1 <0>         0.0669
     19 H5          0.7700    4.0851   -0.2198 H         1 <0>         0.0855
     20 H6          0.8615    3.4888    1.4548 H         1 <0>         0.0846
     21 H7          2.0356    1.4338    0.6022 H         1 <0>         0.1316
     22 H8          1.7745    2.0196   -1.0582 H         1 <0>         0.1325
     23 H9         -1.8406    1.7603   -0.9322 H         1 <0>         0.1300
     24 H10        -0.7365    3.1547   -1.0035 H         1 <0>         0.1311
     25 H11         0.7467    1.8330   -2.5470 H         1 <0>         0.0838
     26 H12        -0.4748    0.5383   -2.5506 H         1 <0>         0.0864
     27 H13        -0.7476    2.0247   -4.5165 H         1 <0>         0.0769
     28 H14        -2.1583    2.1291   -3.4360 H         1 <0>         0.0673
     29 H15        -0.9367    3.4238   -3.4325 H         1 <0>         0.0665
     30 H16        -1.7349   -0.4373    0.9272 H         1 <0>         0.0934
     31 H17        -1.9956   -0.0464   -0.7914 H         1 <0>         0.0960
     32 H18        -2.2649   -2.5130   -0.1990 H         1 <0>         0.0994
     33 H19        -1.0913   -2.1766   -1.4910 H         1 <0>         0.0925
     34 H20         1.4752   -2.6808    1.5230 H         1 <0>         0.1294
     35 H21         1.9561   -0.3563    0.8088 H         1 <0>         0.1018
     36 H22         0.5730   -0.1953    1.9136 H         1 <0>         0.0993
     37 H23        -0.3286   -6.3818    0.6410 H         1 <0>         0.2274
     38 N1          0.0196    1.4664   -0.0019 N.4       1 <0>        -0.3926
     39 H24        -0.4046    1.6820    0.9079 H         1 <0>         0.4262
@<TRIPOS>BOND
     1    1    2 1
     2    1   16 1
     3    1   17 1
     4    1   18 1
     5    2    3 1
     6    2   19 1
     7    2   20 1
     8    3   21 1
     9    3   22 1
    10    3   38 1
    11    4    5 1
    12    4   23 1
    13    4   24 1
    14    4   38 1
    15    5    6 1
    16    5   25 1
    17    5   26 1
    18    6   27 1
    19    6   28 1
    20    6   29 1
    21    7    8 1
    22    7   13 1
    23    7    9 1
    24    7   38 1
    25    9   10 1
    26    9   30 1
    27    9   31 1
    28   10   11 1
    29   10   32 1
    30   10   33 1
    31   11   12 2
    32   11   14 1
    33   12   13 1
    34   12   34 1
    35   13   35 1
    36   13   36 1
    37   14   15 3
    38   15   37 1
    39   38   39 1
@<TRIPOS>MOLECULE
ZINC06398232
   39    39     0     0     0
SMALL
USER_CHARGES
4-ethynyl-N,N-dipropyl-cyclohex-3-en-1-amine
@<TRIPOS>ATOM
      1 C1         -0.6060    1.7396   -2.7128 C.3       1 <0>        -0.1563
      2 C2         -1.2120    1.9751   -1.3278 C.3       1 <0>        -0.1502
      3 C3         -0.2327    1.4958   -0.2544 C.3       1 <0>        -0.0143
      4 C4         -1.9995    0.8785    1.2818 C.3       1 <0>        -0.0135
      5 C5         -2.7781    1.3821    2.4987 C.3       1 <0>        -0.1500
      6 C6         -4.0772    0.5860    2.6382 C.3       1 <0>        -0.1560
      7 C7          0.1819    1.4971    2.1311 C.3       1 <0>         0.0218
      8 H1         -0.3107    1.4865    3.1033 H         1 <0>         0.1422
      9 C8          0.8877    0.1559    1.8964 C.3       1 <0>        -0.1334
     10 C9          1.7797   -0.1418    3.1026 C.3       1 <0>        -0.0796
     11 C10         2.6291    1.0520    3.4286 C.2       1 <0>         0.0030
     12 C11         2.3837    2.2660    2.9889 C.2       1 <0>        -0.1410
     13 C12         1.2278    2.6135    2.0969 C.3       1 <0>        -0.1024
     14 C13         3.7736    0.8568    4.2668 C.1       1 <0>        -0.1930
     15 C14         4.7118    0.6967    4.9541 C.1       1 <0>        -0.1368
     16 H2         -0.4109    0.6758   -2.8480 H         1 <0>         0.0668
     17 H3         -1.3037    2.0811   -3.4775 H         1 <0>         0.0774
     18 H4          0.3283    2.2943   -2.7997 H         1 <0>         0.0670
     19 H5         -2.1463    1.4204   -1.2409 H         1 <0>         0.0856
     20 H6         -1.4071    3.0389   -1.1926 H         1 <0>         0.0855
     21 H7         -0.0376    0.4319   -0.3896 H         1 <0>         0.1326
     22 H8          0.7016    2.0504   -0.3413 H         1 <0>         0.1299
     23 H9         -2.6364    0.9244    0.3984 H         1 <0>         0.1323
     24 H10        -1.6871   -0.1519    1.4513 H         1 <0>         0.1313
     25 H11        -2.1738    1.2514    3.3963 H         1 <0>         0.0850
     26 H12        -3.0118    2.4388    2.3687 H         1 <0>         0.0849
     27 H13        -4.6320    0.9448    3.5051 H         1 <0>         0.0772
     28 H14        -4.6816    0.7167    1.7405 H         1 <0>         0.0669
     29 H15        -3.8436   -0.4707    2.7682 H         1 <0>         0.0670
     30 H16         0.1450   -0.6339    1.7832 H         1 <0>         0.0930
     31 H17         1.5012    0.2172    0.9975 H         1 <0>         0.0934
     32 H18         2.4231   -0.9920    2.8762 H         1 <0>         0.0994
     33 H19         1.1526   -0.3842    3.9606 H         1 <0>         0.0924
     34 H20         3.0530    3.0597    3.2866 H         1 <0>         0.1295
     35 H21         1.5856    2.7422    1.0754 H         1 <0>         0.0991
     36 H22         0.7744    3.5439    2.4388 H         1 <0>         0.1023
     37 H23         5.5510    0.5536    5.5687 H         1 <0>         0.2275
     38 N1         -0.8228    1.7492    1.0768 N.4       1 <0>        -0.3930
     39 H24        -1.1211    2.7304    1.1280 H         1 <0>         0.4264
@<TRIPOS>BOND
     1    1    2 1
     2    1   16 1
     3    1   17 1
     4    1   18 1
     5    2    3 1
     6    2   19 1
     7    2   20 1
     8    3   21 1
     9    3   22 1
    10    3   38 1
    11    4    5 1
    12    4   23 1
    13    4   24 1
    14    4   38 1
    15    5    6 1
    16    5   25 1
    17    5   26 1
    18    6   27 1
    19    6   28 1
    20    6   29 1
    21    7    8 1
    22    7   13 1
    23    7    9 1
    24    7   38 1
    25    9   10 1
    26    9   30 1
    27    9   31 1
    28   10   11 1
    29   10   32 1
    30   10   33 1
    31   11   12 2
    32   11   14 1
    33   12   13 1
    34   12   34 1
    35   13   35 1
    36   13   36 1
    37   14   15 3
    38   15   37 1
    39   38   39 1
@<TRIPOS>MOLECULE
ZINC13492922
   43    44     0     0     0
SMALL
USER_CHARGES
(3S)-3-(3,4-dimethylphenyl)-1-propyl-piperidine
@<TRIPOS>ATOM
      1 C1          1.2793    7.3165    8.5727 C.3       1 <0>        -0.1569
      2 C2          1.2879    5.8299    8.2108 C.3       1 <0>        -0.1529
      3 C3          0.7241    5.6450    6.8005 C.3       1 <0>        -0.0060
      4 C4          0.2071    3.4043    7.5572 C.3       1 <0>        -0.0108
      5 C5          0.3653    1.9202    7.2192 C.3       1 <0>        -0.1462
      6 C6         -0.3957    1.6121    5.9267 C.3       1 <0>        -0.1304
      7 C7          0.1376    2.5067    4.8042 C.3       1 <0>        -0.0581
      8 H1          1.1904    2.2843    4.6299 H         1 <0>         0.0991
      9 C8         -0.0139    3.9738    5.2122 C.3       1 <0>         0.0031
     10 C9         -0.6460    2.2518    3.5425 C.ar      1 <0>        -0.1037
     11 C10        -2.0121    2.4638    3.5224 C.ar      1 <0>        -0.1160
     12 C11        -2.7308    2.2300    2.3652 C.ar      1 <0>        -0.1112
     13 C12        -2.0829    1.7892    1.2262 C.ar      1 <0>        -0.0695
     14 C13        -0.7181    1.5718    1.2479 C.ar      1 <0>        -0.0774
     15 C14         0.0008    1.8057    2.4054 C.ar      1 <0>        -0.1032
     16 C15        -0.0127    1.0858    0.0080 C.3       1 <0>        -0.1258
     17 C16        -2.8655    1.5402   -0.0373 C.3       1 <0>        -0.1283
     18 H2          1.8939    7.8673    7.8606 H         1 <0>         0.0668
     19 H3          0.2570    7.6930    8.5378 H         1 <0>         0.0666
     20 H4          1.6809    7.4482    9.5774 H         1 <0>         0.0771
     21 H5          0.6733    5.2791    8.9229 H         1 <0>         0.0883
     22 H6          2.3102    5.4534    8.2457 H         1 <0>         0.0854
     23 H7          1.3387    6.1958    6.0885 H         1 <0>         0.1282
     24 H8         -0.2982    6.0216    6.7656 H         1 <0>         0.1296
     25 H9          0.7596    3.6300    8.4693 H         1 <0>         0.1332
     26 H10        -0.8483    3.6325    7.7062 H         1 <0>         0.1295
     27 H11         1.4217    1.6883    7.0836 H         1 <0>         0.0879
     28 H12        -0.0383    1.3168    8.0324 H         1 <0>         0.1133
     29 H13        -1.4579    1.8070    6.0741 H         1 <0>         0.0833
     30 H14        -0.2501    0.5657    5.6588 H         1 <0>         0.0953
     31 H15         0.3780    4.6131    4.4211 H         1 <0>         0.1295
     32 H16        -1.0683    4.1993    5.3722 H         1 <0>         0.1305
     33 H17        -2.5177    2.8117    4.4111 H         1 <0>         0.1195
     34 H18        -3.7980    2.3953    2.3497 H         1 <0>         0.1278
     35 H19         1.0680    1.6401    2.4211 H         1 <0>         0.1242
     36 H20         0.0021   -0.0041    0.0020 H         1 <0>         0.0767
     37 H21         1.0099    1.4631    0.0003 H         1 <0>         0.0685
     38 H22        -0.5399    1.4469   -0.8751 H         1 <0>         0.0760
     39 H23        -3.2138    0.5075   -0.0515 H         1 <0>         0.0778
     40 H24        -3.7223    2.2131   -0.0725 H         1 <0>         0.0707
     41 H25        -2.2266    1.7201   -0.9019 H         1 <0>         0.0757
     42 N1          0.7611    4.2105    6.4486 N.4       1 <0>        -0.3937
     43 H26         1.7363    3.9315    6.2888 H         1 <0>         0.4264
@<TRIPOS>BOND
     1    1    2 1
     2    1   18 1
     3    1   19 1
     4    1   20 1
     5    2    3 1
     6    2   21 1
     7    2   22 1
     8    3   23 1
     9    3   24 1
    10    3   42 1
    11    4    5 1
    12    4   25 1
    13    4   26 1
    14    4   42 1
    15    5    6 1
    16    5   27 1
    17    5   28 1
    18    6    7 1
    19    6   29 1
    20    6   30 1
    21    7    8 1
    22    7    9 1
    23    7   10 1
    24    9   31 1
    25    9   32 1
    26    9   42 1
    27   10   15 ar
    28   10   11 ar
    29   11   12 ar
    30   11   33 1
    31   12   13 ar
    32   12   34 1
    33   13   14 ar
    34   13   17 1
    35   14   15 ar
    36   14   16 1
    37   15   35 1
    38   16   36 1
    39   16   37 1
    40   16   38 1
    41   17   39 1
    42   17   40 1
    43   17   41 1
    44   42   43 1
@<TRIPOS>MOLECULE
ZINC52619107
   59    62     0     0     0
SMALL
USER_CHARGES

@<TRIPOS>ATOM
      1 C1         -0.0167    1.3800    0.0096 C.ar      1 <0>        -0.0718
      2 C2          1.1935    2.0589    0.0017 C.ar      1 <0>        -0.1708
      3 C3          2.3747    1.3394   -0.0134 C.ar      1 <0>         0.1057
      4 N1          2.3643    0.0223   -0.0208 N.ar      1 <0>        -0.4761
      5 C4          1.2291   -0.6644   -0.0137 C.ar      1 <0>         0.1591
      6 C5          0.0021   -0.0041    0.0020 C.ar      1 <0>        -0.1591
      7 C6          1.2664   -2.1468   -0.0230 C.ar      1 <0>        -0.0227
      8 C7          0.0760   -2.8740   -0.0213 C.ar      1 <0>        -0.1086
      9 C8          0.1095   -4.2506   -0.0295 C.ar      1 <0>        -0.0602
     10 C9          1.3360   -4.9187   -0.0400 C.ar      1 <0>        -0.1263
     11 C10         2.5274   -4.1897   -0.0421 C.ar      1 <0>        -0.0900
     12 C11         2.4917   -2.8132   -0.0392 C.ar      1 <0>        -0.0872
     13 C12         1.3732   -6.3961   -0.0483 C.2       1 <0>         0.5581
     14 O1          0.3360   -7.0302   -0.0460 O.2       1 <0>        -0.5332
     15 N2          2.5569   -7.0404   -0.0583 N.am      1 <0>        -0.7231
     16 C13         2.5937   -8.5049   -0.0666 C.3       1 <0>         0.1519
     17 C14         4.0267   -8.9713   -0.0771 C.2       1 <0>        -0.1829
     18 C15         4.4532   -9.7979    0.8454 C.2       1 <0>        -0.1138
     19 C16         5.8862  -10.2643    0.8349 C.3       1 <0>         0.0804
     20 N3          6.5056   -9.9726    2.1346 N.3       1 <0>        -0.5294
     21 C17         6.6037   -8.5239    2.3577 C.3       1 <0>         0.0395
     22 C18         7.0840   -8.2623    3.7892 C.3       1 <0>         0.1519
     23 N4          8.3309   -9.0111    4.0078 N.pl3     1 <0>        -0.6750
     24 C19         8.3497  -10.4437    3.6756 C.3       1 <0>         0.1521
     25 C20         7.8196  -10.6195    2.2486 C.3       1 <0>         0.0385
     26 C21         9.4675   -8.3781    4.5182 C.ar      1 <0>         0.1934
     27 C22         9.6818   -8.3321    5.8897 C.ar      1 <0>        -0.1091
     28 C23        10.8059   -7.7060    6.3917 C.ar      1 <0>        -0.0961
     29 C24        11.7187   -7.1246    5.5309 C.ar      1 <0>        -0.1045
     30 C25        11.5093   -7.1675    4.1636 C.ar      1 <0>        -0.0286
     31 C26        10.3887   -7.7984    3.6542 C.ar      1 <0>        -0.0428
     32 Cl1        10.1296   -7.8592    1.9388 Cl        1 <0>        -0.0438
     33 Cl2        12.6577   -6.4358    3.0868 Cl        1 <0>        -0.0489
     34 H1         -0.9522    1.9194    0.0259 H         1 <0>         0.1389
     35 H2          1.2130    3.1387    0.0070 H         1 <0>         0.1383
     36 H3          3.3183    1.8647   -0.0196 H         1 <0>         0.1604
     37 H4         -0.9212   -0.5643    0.0082 H         1 <0>         0.1395
     38 H5         -0.8722   -2.3571   -0.0132 H         1 <0>         0.1352
     39 H6         -0.8122   -4.8134   -0.0275 H         1 <0>         0.1417
     40 H7          3.4763   -4.7055   -0.0502 H         1 <0>         0.1287
     41 H8          3.4128   -2.2492   -0.0453 H         1 <0>         0.1423
     42 H9          3.3845   -6.5344   -0.0601 H         1 <0>         0.4011
     43 H10         2.0941   -8.8859    0.8241 H         1 <0>         0.0749
     44 H11         2.0843   -8.8762   -0.9558 H         1 <0>         0.0778
     45 H12         4.7020   -8.6241   -0.8451 H         1 <0>         0.1143
     46 H13         3.7779  -10.1451    1.6134 H         1 <0>         0.1204
     47 H14         5.9174  -11.3381    0.6504 H         1 <0>         0.0869
     48 H15         6.4318   -9.7443    0.0475 H         1 <0>         0.0387
     49 H16         7.3142   -8.0945    1.6514 H         1 <0>         0.0400
     50 H17         5.6249   -8.0666    2.2131 H         1 <0>         0.0812
     51 H18         7.2683   -7.1966    3.9245 H         1 <0>         0.0710
     52 H19         6.3261   -8.5984    4.4968 H         1 <0>         0.0626
     53 H20         9.3708  -10.8202    3.7358 H         1 <0>         0.0720
     54 H21         7.7135  -10.9895    4.3723 H         1 <0>         0.0634
     55 H22         7.7226  -11.6819    2.0249 H         1 <0>         0.0813
     56 H23         8.5132  -10.1608    1.5439 H         1 <0>         0.0409
     57 H24         8.9696   -8.7854    6.5633 H         1 <0>         0.1388
     58 H25        10.9721   -7.6701    7.4582 H         1 <0>         0.1404
     59 H26        12.5967   -6.6358    5.9265 H         1 <0>         0.1425
@<TRIPOS>BOND
     1    1    6 ar
     2    1    2 ar
     3    1   34 1
     4    2    3 ar
     5    2   35 1
     6    3    4 ar
     7    3   36 1
     8    4    5 ar
     9    5    6 ar
    10    5    7 1
    11    6   37 1
    12    7   12 ar
    13    7    8 ar
    14    8    9 ar
    15    8   38 1
    16    9   10 ar
    17    9   39 1
    18   10   11 ar
    19   10   13 1
    20   11   12 ar
    21   11   40 1
    22   12   41 1
    23   13   14 2
    24   13   15 am
    25   15   16 1
    26   15   42 1
    27   16   17 1
    28   16   43 1
    29   16   44 1
    30   17   18 2
    31   17   45 1
    32   18   19 1
    33   18   46 1
    34   19   20 1
    35   19   47 1
    36   19   48 1
    37   20   25 1
    38   20   21 1
    39   21   22 1
    40   21   49 1
    41   21   50 1
    42   22   23 1
    43   22   51 1
    44   22   52 1
    45   23   24 1
    46   23   26 1
    47   24   25 1
    48   24   53 1
    49   24   54 1
    50   25   55 1
    51   25   56 1
    52   26   31 ar
    53   26   27 ar
    54   27   28 ar
    55   27   57 1
    56   28   29 ar
    57   28   58 1
    58   29   30 ar
    59   29   59 1
    60   30   31 ar
    61   30   33 1
    62   31   32 1
@<TRIPOS>MOLECULE
ZINC55662777
   50    52     0     0     0
SMALL
USER_CHARGES

@<TRIPOS>ATOM
      1 C1         -1.2505    1.2098   -0.1209 C.3       1 <0>        -0.1154
      2 C2         -0.5804   -0.1380   -0.0467 C.ar      1 <0>        -0.0685
      3 C3          0.0255   -0.6710   -1.1699 C.ar      1 <0>        -0.1346
      4 C4          0.6417   -1.9070   -1.1059 C.ar      1 <0>        -0.0978
      5 C5          0.6541   -2.6135    0.0810 C.ar      1 <0>        -0.1255
      6 C6          0.0467   -2.0812    1.2105 C.ar      1 <0>         0.1464
      7 C7         -0.5669   -0.8369    1.1442 C.ar      1 <0>        -0.1470
      8 N1          0.0570   -2.7946    2.4142 N.am      1 <0>        -0.6764
      9 C8         -0.0291   -4.1396    2.4012 C.2       1 <0>         0.5139
     10 O1         -0.0339   -4.7367    1.3455 O.2       1 <0>        -0.4980
     11 C9         -0.1194   -4.9014    3.6983 C.3       1 <0>         0.0376
     12 N2         -0.2030   -6.3406    3.4161 N.3       1 <0>        -0.5193
     13 C10        -1.4551   -6.6690    2.7216 C.3       1 <0>         0.0353
     14 C11        -1.4237   -8.1379    2.2860 C.3       1 <0>         0.1299
     15 N3         -1.1294   -8.9683    3.4638 N.pl3     1 <0>        -0.6277
     16 C12         0.0348   -8.6157    4.2905 C.3       1 <0>         0.1247
     17 C13        -0.0541   -7.1280    4.6472 C.3       1 <0>         0.0406
     18 C14        -1.9345  -10.0623    3.7887 C.ar      1 <0>         0.2575
     19 C15        -2.9576  -10.4520    2.9327 C.ar      1 <0>        -0.2345
     20 C16        -3.7535  -11.5340    3.2543 C.ar      1 <0>        -0.0319
     21 C17        -3.5348  -12.2320    4.4270 C.ar      1 <0>        -0.2674
     22 C18        -2.5144  -11.8477    5.2855 C.ar      1 <0>         0.1730
     23 C19        -1.7102  -10.7654    4.9642 C.ar      1 <0>        -0.2368
     24 O2         -2.3007  -12.5351    6.4381 O.3       1 <0>        -0.3193
     25 C20        -3.1642  -13.6425    6.7027 C.3       1 <0>         0.0287
     26 H1         -0.5267    1.9891    0.1179 H         1 <0>         0.0721
     27 H2         -1.6365    1.3687   -1.1278 H         1 <0>         0.0686
     28 H3         -2.0729    1.2465    0.5936 H         1 <0>         0.0661
     29 H4          0.0169   -0.1206   -2.0992 H         1 <0>         0.1231
     30 H5          1.1136   -2.3206   -1.9849 H         1 <0>         0.1261
     31 H6          1.1353   -3.5791    0.1303 H         1 <0>         0.1390
     32 H7         -1.0366   -0.4184    2.0220 H         1 <0>         0.1239
     33 H8          0.1262   -2.3212    3.2580 H         1 <0>         0.4104
     34 H9          0.7667   -4.7001    4.3003 H         1 <0>         0.1101
     35 H10        -1.0087   -4.5858    4.2438 H         1 <0>         0.0684
     36 H11        -2.2974   -6.5071    3.3943 H         1 <0>         0.0348
     37 H12        -1.5623   -6.0316    1.8440 H         1 <0>         0.1030
     38 H13        -2.3928   -8.4182    1.8732 H         1 <0>         0.0875
     39 H14        -0.6473   -8.2803    1.5344 H         1 <0>         0.0740
     40 H15         0.0300   -9.2119    5.2030 H         1 <0>         0.0905
     41 H16         0.9514   -8.8040    3.7315 H         1 <0>         0.0732
     42 H17         0.8548   -6.8234    5.1661 H         1 <0>         0.0888
     43 H18        -0.9159   -6.9597    5.2931 H         1 <0>         0.0420
     44 H19        -3.1306   -9.9084    2.0157 H         1 <0>         0.1234
     45 H20        -4.5486  -11.8350    2.5882 H         1 <0>         0.1235
     46 H21        -4.1591  -13.0774    4.6758 H         1 <0>         0.1235
     47 H22        -0.9130  -10.4675    5.6291 H         1 <0>         0.1293
     48 H23        -4.1956  -13.2942    6.7564 H         1 <0>         0.0558
     49 H24        -3.0696  -14.3763    5.9023 H         1 <0>         0.0562
     50 H25        -2.8859  -14.1017    7.6513 H         1 <0>         0.0992
@<TRIPOS>BOND
     1    1    2 1
     2    1   26 1
     3    1   27 1
     4    1   28 1
     5    2    7 ar
     6    2    3 ar
     7    3    4 ar
     8    3   29 1
     9    4    5 ar
    10    4   30 1
    11    5    6 ar
    12    5   31 1
    13    6    7 ar
    14    6    8 1
    15    7   32 1
    16    8    9 am
    17    8   33 1
    18    9   10 2
    19    9   11 1
    20   11   12 1
    21   11   34 1
    22   11   35 1
    23   12   17 1
    24   12   13 1
    25   13   14 1
    26   13   36 1
    27   13   37 1
    28   14   15 1
    29   14   38 1
    30   14   39 1
    31   15   16 1
    32   15   18 1
    33   16   17 1
    34   16   40 1
    35   16   41 1
    36   17   42 1
    37   17   43 1
    38   18   23 ar
    39   18   19 ar
    40   19   20 ar
    41   19   44 1
    42   20   21 ar
    43   20   45 1
    44   21   22 ar
    45   21   46 1
    46   22   23 ar
    47   22   24 1
    48   23   47 1
    49   24   25 1
    50   25   48 1
    51   25   49 1
    52   25   50 1
@<TRIPOS>MOLECULE
ZINC55564324
   50    52     0     0     0
SMALL
USER_CHARGES

@<TRIPOS>ATOM
      1 C1          1.5244    1.0610   -0.2751 C.3       1 <0>        -0.1152
      2 C2          0.7352   -0.2151   -0.1343 C.ar      1 <0>        -0.0676
      3 C3         -0.0113   -0.6867   -1.1988 C.ar      1 <0>        -0.1361
      4 C4         -0.7364   -1.8572   -1.0737 C.ar      1 <0>        -0.0960
      5 C5         -0.7174   -2.5595    0.1157 C.ar      1 <0>        -0.1258
      6 C6          0.0310   -2.0886    1.1863 C.ar      1 <0>         0.1508
      7 C7          0.7626   -0.9152    1.0557 C.ar      1 <0>        -0.1487
      8 N1          0.0521   -2.7974    2.3926 N.am      1 <0>        -0.6779
      9 C8         -0.0314   -4.1425    2.3854 C.2       1 <0>         0.5129
     10 O1         -0.0283   -4.7447    1.3326 O.2       1 <0>        -0.4957
     11 C9         -0.1286   -4.8984    3.6855 C.3       1 <0>         0.0377
     12 N2         -0.2077   -6.3391    3.4096 N.3       1 <0>        -0.5171
     13 C10         1.0384   -6.8284    2.8048 C.3       1 <0>         0.0369
     14 C11         0.8524   -8.2854    2.3678 C.3       1 <0>         0.1571
     15 N3          0.3744   -9.0619    3.5218 N.pl3     1 <0>        -0.6693
     16 C12        -0.7909   -8.5585    4.2647 C.3       1 <0>         0.1545
     17 C13        -0.5402   -7.0908    4.6270 C.3       1 <0>         0.0419
     18 C14         1.0111  -10.2487    3.9026 C.ar      1 <0>         0.1393
     19 C15         2.0533  -10.2162    4.8176 C.ar      1 <0>        -0.0881
     20 C16         2.6803  -11.3896    5.1924 C.ar      1 <0>        -0.1525
     21 C17         2.2714  -12.5971    4.6575 C.ar      1 <0>        -0.0839
     22 C18         1.2332  -12.6373    3.7449 C.ar      1 <0>        -0.2066
     23 C19         0.5962  -11.4665    3.3681 C.ar      1 <0>         0.1197
     24 O2         -0.4284  -11.5051    2.4745 O.3       1 <0>        -0.3035
     25 C20        -0.7998  -12.7888    1.9683 C.3       1 <0>         0.0252
     26 H1          2.5240    0.8311   -0.6440 H         1 <0>         0.0716
     27 H2          1.0210    1.7238   -0.9789 H         1 <0>         0.0684
     28 H3          1.5992    1.5510    0.6956 H         1 <0>         0.0662
     29 H4         -0.0281   -0.1393   -2.1296 H         1 <0>         0.1229
     30 H5         -1.3186   -2.2227   -1.9067 H         1 <0>         0.1260
     31 H6         -1.2843   -3.4736    0.2129 H         1 <0>         0.1346
     32 H7          1.3490   -0.5486    1.8852 H         1 <0>         0.1237
     33 H8          0.1268   -2.3206    3.2340 H         1 <0>         0.4099
     34 H9          0.7532   -4.6925    4.2923 H         1 <0>         0.0652
     35 H10        -1.0220   -4.5820    4.2238 H         1 <0>         0.1087
     36 H11         1.2861   -6.2172    1.9370 H         1 <0>         0.0962
     37 H12         1.8454   -6.7679    3.5351 H         1 <0>         0.0300
     38 H13         0.1186   -8.3355    1.5634 H         1 <0>         0.0604
     39 H14         1.8048   -8.6890    2.0241 H         1 <0>         0.0686
     40 H15        -1.6827   -8.6349    3.6426 H         1 <0>         0.0591
     41 H16        -0.9250   -9.1426    5.1751 H         1 <0>         0.0711
     42 H17         0.2887   -7.0266    5.3319 H         1 <0>         0.0372
     43 H18        -1.4375   -6.6698    5.0808 H         1 <0>         0.0816
     44 H19         2.3750   -9.2742    5.2366 H         1 <0>         0.1249
     45 H20         3.4918  -11.3631    5.9045 H         1 <0>         0.1236
     46 H21         2.7643  -13.5115    4.9530 H         1 <0>         0.1243
     47 H22         0.9163  -13.5823    3.3290 H         1 <0>         0.1275
     48 H23        -1.6271  -12.6776    1.2674 H         1 <0>         0.0992
     49 H24         0.0517  -13.2380    1.4571 H         1 <0>         0.0536
     50 H25        -1.1072  -13.4301    2.7944 H         1 <0>         0.0535
@<TRIPOS>BOND
     1    1    2 1
     2    1   26 1
     3    1   27 1
     4    1   28 1
     5    2    7 ar
     6    2    3 ar
     7    3    4 ar
     8    3   29 1
     9    4    5 ar
    10    4   30 1
    11    5    6 ar
    12    5   31 1
    13    6    7 ar
    14    6    8 1
    15    7   32 1
    16    8    9 am
    17    8   33 1
    18    9   10 2
    19    9   11 1
    20   11   12 1
    21   11   34 1
    22   11   35 1
    23   12   17 1
    24   12   13 1
    25   13   14 1
    26   13   36 1
    27   13   37 1
    28   14   15 1
    29   14   38 1
    30   14   39 1
    31   15   16 1
    32   15   18 1
    33   16   17 1
    34   16   40 1
    35   16   41 1
    36   17   42 1
    37   17   43 1
    38   18   23 ar
    39   18   19 ar
    40   19   20 ar
    41   19   44 1
    42   20   21 ar
    43   20   45 1
    44   21   22 ar
    45   21   46 1
    46   22   23 ar
    47   22   47 1
    48   23   24 1
    49   24   25 1
    50   25   48 1
    51   25   49 1
    52   25   50 1
@<TRIPOS>MOLECULE
ZINC55060306
   50    52     0     0     0
SMALL
USER_CHARGES

@<TRIPOS>ATOM
      1 C1          1.5134    1.0378   -0.3440 C.3       1 <0>        -0.1156
      2 C2          0.7236   -0.2361   -0.1880 C.ar      1 <0>        -0.0672
      3 C3         -0.0341   -0.7125   -1.2424 C.ar      1 <0>        -0.1355
      4 C4         -0.7599   -1.8811   -1.1035 C.ar      1 <0>        -0.0960
      5 C5         -0.7302   -2.5766    0.0896 C.ar      1 <0>        -0.1259
      6 C6          0.0295   -2.1009    1.1500 C.ar      1 <0>         0.1497
      7 C7          0.7616   -0.9295    1.0055 C.ar      1 <0>        -0.1483
      8 N1          0.0613   -2.8028    2.3601 N.am      1 <0>        -0.6769
      9 C8         -0.0268   -4.1477    2.3615 C.2       1 <0>         0.5134
     10 O1         -0.0370   -4.7559    1.3122 O.2       1 <0>        -0.4970
     11 C9         -0.1127   -4.8958    3.6669 C.3       1 <0>         0.0375
     12 N2         -0.1996   -6.3378    3.4001 N.3       1 <0>        -0.5190
     13 C10         1.0383   -6.8349    2.7849 C.3       1 <0>         0.0353
     14 C11         0.8427   -8.2936    2.3583 C.3       1 <0>         0.1312
     15 N3          0.3744   -9.0619    3.5218 N.pl3     1 <0>        -0.6339
     16 C12        -0.7812   -8.5502    4.2742 C.3       1 <0>         0.1291
     17 C13        -0.5217   -7.0814    4.6254 C.3       1 <0>         0.0406
     18 C14         1.0110  -10.2485    3.9025 C.ar      1 <0>         0.1887
     19 C15         0.4807  -11.0243    4.9248 C.ar      1 <0>        -0.1608
     20 C16         1.1094  -12.1955    5.2996 C.ar      1 <0>        -0.1003
     21 C17         2.2702  -12.5968    4.6552 C.ar      1 <0>         0.0671
     22 C18         2.8009  -11.8222    3.6343 C.ar      1 <0>        -0.1559
     23 C19         2.1703  -10.6537    3.2544 C.ar      1 <0>        -0.1618
     24 O2          2.8887  -13.7503    5.0249 O.3       1 <0>        -0.3221
     25 C20         4.0799  -14.1028    4.3187 C.3       1 <0>         0.0294
     26 H1          2.5090    0.8042   -0.7214 H         1 <0>         0.0719
     27 H2          1.0041    1.6975   -1.0465 H         1 <0>         0.0688
     28 H3          1.5986    1.5333    0.6232 H         1 <0>         0.0664
     29 H4         -0.0592   -0.1703   -2.1761 H         1 <0>         0.1233
     30 H5         -1.3509   -2.2503   -1.9286 H         1 <0>         0.1263
     31 H6         -1.2976   -3.4892    0.1976 H         1 <0>         0.1345
     32 H7          1.3567   -0.5591    1.8272 H         1 <0>         0.1239
     33 H8          0.1468   -2.3215    3.1979 H         1 <0>         0.4104
     34 H9          0.7762   -4.6895    4.2630 H         1 <0>         0.0672
     35 H10        -0.9992   -4.5732    4.2129 H         1 <0>         0.1107
     36 H11         1.2787   -6.2294    1.9110 H         1 <0>         0.1016
     37 H12         1.8532   -6.7730    3.5062 H         1 <0>         0.0340
     38 H13         0.1002   -8.3458    1.5621 H         1 <0>         0.0718
     39 H14         1.7900   -8.7025    2.0068 H         1 <0>         0.0844
     40 H15        -1.6798   -8.6271    3.6621 H         1 <0>         0.0705
     41 H16        -0.9075   -9.1287    5.1893 H         1 <0>         0.0873
     42 H17         0.3150   -7.0160    5.3210 H         1 <0>         0.0412
     43 H18        -1.4125   -6.6547    5.0862 H         1 <0>         0.0878
     44 H19        -0.4230  -10.7118    5.4269 H         1 <0>         0.1291
     45 H20         0.6972  -12.7988    6.0948 H         1 <0>         0.1297
     46 H21         3.7050  -12.1353    3.1333 H         1 <0>         0.1263
     47 H22         2.5810  -10.0531    2.4562 H         1 <0>         0.1247
     48 H23         4.4708  -15.0414    4.7114 H         1 <0>         0.0976
     49 H24         3.8531  -14.2188    3.2588 H         1 <0>         0.0526
     50 H25         4.8244  -13.3171    4.4470 H         1 <0>         0.0521
@<TRIPOS>BOND
     1    1    2 1
     2    1   26 1
     3    1   27 1
     4    1   28 1
     5    2    7 ar
     6    2    3 ar
     7    3    4 ar
     8    3   29 1
     9    4    5 ar
    10    4   30 1
    11    5    6 ar
    12    5   31 1
    13    6    7 ar
    14    6    8 1
    15    7   32 1
    16    8    9 am
    17    8   33 1
    18    9   10 2
    19    9   11 1
    20   11   12 1
    21   11   34 1
    22   11   35 1
    23   12   17 1
    24   12   13 1
    25   13   14 1
    26   13   36 1
    27   13   37 1
    28   14   15 1
    29   14   38 1
    30   14   39 1
    31   15   16 1
    32   15   18 1
    33   16   17 1
    34   16   40 1
    35   16   41 1
    36   17   42 1
    37   17   43 1
    38   18   23 ar
    39   18   19 ar
    40   19   20 ar
    41   19   44 1
    42   20   21 ar
    43   20   45 1
    44   21   22 ar
    45   21   24 1
    46   22   23 ar
    47   22   46 1
    48   23   47 1
    49   24   25 1
    50   25   48 1
    51   25   49 1
    52   25   50 1
@<TRIPOS>MOLECULE
ZINC55562002
   46    48     0     0     0
SMALL
USER_CHARGES

@<TRIPOS>ATOM
      1 C1         -1.2505    1.2095   -0.1217 C.3       1 <0>        -0.1155
      2 C2         -0.5804   -0.1382   -0.0473 C.ar      1 <0>        -0.0684
      3 C3          0.0256   -0.6713   -1.1705 C.ar      1 <0>        -0.1343
      4 C4          0.6419   -1.9073   -1.1063 C.ar      1 <0>        -0.0978
      5 C5          0.6541   -2.6138    0.0807 C.ar      1 <0>        -0.1254
      6 C6          0.0467   -2.0814    1.2100 C.ar      1 <0>         0.1460
      7 C7         -0.5670   -0.8371    1.1436 C.ar      1 <0>        -0.1468
      8 N1          0.0570   -2.7947    2.4138 N.am      1 <0>        -0.6761
      9 C8         -0.0291   -4.1396    2.4009 C.2       1 <0>         0.5138
     10 O1         -0.0338   -4.7369    1.3453 O.2       1 <0>        -0.4983
     11 C9         -0.1195   -4.9013    3.6980 C.3       1 <0>         0.0376
     12 N2         -0.2031   -6.3406    3.4159 N.3       1 <0>        -0.5193
     13 C10        -1.4551   -6.6691    2.7214 C.3       1 <0>         0.0351
     14 C11        -1.4236   -8.1380    2.2859 C.3       1 <0>         0.1290
     15 N3         -1.1294   -8.9683    3.4638 N.pl3     1 <0>        -0.6297
     16 C12         0.0347   -8.6156    4.2906 C.3       1 <0>         0.1260
     17 C13        -0.0543   -7.1279    4.6472 C.3       1 <0>         0.0401
     18 C14        -1.9354  -10.0635    3.7891 C.ar      1 <0>         0.2134
     19 C15        -2.9578  -10.4530    2.9337 C.ar      1 <0>        -0.1735
     20 C16        -3.7524  -11.5356    3.2568 C.ar      1 <0>        -0.1005
     21 C17        -3.5302  -12.2323    4.4326 C.ar      1 <0>         0.0332
     22 C18        -2.5114  -11.8458    5.2869 C.ar      1 <0>        -0.1010
     23 C19        -1.7110  -10.7671    4.9653 C.ar      1 <0>        -0.1749
     24 F1         -4.3089  -13.2907    4.7469 F         1 <0>        -0.1465
     25 H1         -0.5268    1.9888    0.1171 H         1 <0>         0.0722
     26 H2         -1.6365    1.3683   -1.1286 H         1 <0>         0.0687
     27 H3         -2.0729    1.2463    0.5927 H         1 <0>         0.0661
     28 H4          0.0170   -0.1210   -2.0998 H         1 <0>         0.1232
     29 H5          1.1139   -2.3210   -1.9852 H         1 <0>         0.1262
     30 H6          1.1354   -3.5793    0.1301 H         1 <0>         0.1389
     31 H7         -1.0367   -0.4185    2.0214 H         1 <0>         0.1239
     32 H8          0.1260   -2.3212    3.2576 H         1 <0>         0.4105
     33 H9          0.7664   -4.6999    4.3002 H         1 <0>         0.1103
     34 H10        -1.0090   -4.5858    4.2435 H         1 <0>         0.0687
     35 H11        -2.2975   -6.5071    3.3940 H         1 <0>         0.0350
     36 H12        -1.5622   -6.0317    1.8437 H         1 <0>         0.1034
     37 H13        -2.3926   -8.4184    1.8730 H         1 <0>         0.0864
     38 H14        -0.6471   -8.2804    1.5343 H         1 <0>         0.0748
     39 H15         0.0298   -9.2117    5.2031 H         1 <0>         0.0891
     40 H16         0.9513   -8.8039    3.7318 H         1 <0>         0.0738
     41 H17         0.8545   -6.8232    5.1661 H         1 <0>         0.0891
     42 H18        -0.9161   -6.9595    5.2929 H         1 <0>         0.0420
     43 H19        -3.1316   -9.9097    2.0167 H         1 <0>         0.1320
     44 H20        -4.5478  -11.8386    2.5921 H         1 <0>         0.1340
     45 H21        -2.3401  -12.3904    6.2037 H         1 <0>         0.1338
     46 H22        -0.9136  -10.4686    5.6297 H         1 <0>         0.1317
@<TRIPOS>BOND
     1    1    2 1
     2    1   25 1
     3    1   26 1
     4    1   27 1
     5    2    7 ar
     6    2    3 ar
     7    3    4 ar
     8    3   28 1
     9    4    5 ar
    10    4   29 1
    11    5    6 ar
    12    5   30 1
    13    6    7 ar
    14    6    8 1
    15    7   31 1
    16    8    9 am
    17    8   32 1
    18    9   10 2
    19    9   11 1
    20   11   12 1
    21   11   33 1
    22   11   34 1
    23   12   17 1
    24   12   13 1
    25   13   14 1
    26   13   35 1
    27   13   36 1
    28   14   15 1
    29   14   37 1
    30   14   38 1
    31   15   16 1
    32   15   18 1
    33   16   17 1
    34   16   39 1
    35   16   40 1
    36   17   41 1
    37   17   42 1
    38   18   23 ar
    39   18   19 ar
    40   19   20 ar
    41   19   43 1
    42   20   21 ar
    43   20   44 1
    44   21   22 ar
    45   21   24 1
    46   22   23 ar
    47   22   45 1
    48   23   46 1
@<TRIPOS>MOLECULE
ZINC00001931
   41    42     0     0     0
SMALL
USER_CHARGES

@<TRIPOS>ATOM
      1 C1         -0.0178    1.4648    0.0101 C.3       1 <0>        -0.0543
      2 N1          0.0021   -0.0041    0.0020 N.4       1 <0>        -0.3888
      3 C2          0.6897   -0.4778   -1.2066 C.3       1 <0>        -0.0480
      4 C3          0.7126   -0.4907    1.1921 C.3       1 <0>        -0.0022
      5 C4         -0.0711   -0.1034    2.4478 C.3       1 <0>         0.0237
      6 O1         -1.3280   -0.7834    2.4535 O.3       1 <0>        -0.3239
      7 C5         -2.1519   -0.5481    3.5084 C.ar      1 <0>         0.1190
      8 C6         -1.7611    0.3238    4.5145 C.ar      1 <0>        -0.2009
      9 C7         -2.6006    0.5616    5.5853 C.ar      1 <0>        -0.0812
     10 C8         -3.8295   -0.0686    5.6552 C.ar      1 <0>        -0.1366
     11 C9         -4.2210   -0.9381    4.6542 C.ar      1 <0>        -0.0754
     12 C10        -3.3874   -1.1749    3.5782 C.ar      1 <0>        -0.0972
     13 C11        -3.8174   -2.1181    2.4843 C.3       1 <0>        -0.0314
     14 C12        -3.2661   -3.4930    2.7611 C.ar      1 <0>        -0.0813
     15 C13        -2.0239   -3.8511    2.2715 C.ar      1 <0>        -0.1132
     16 C14        -1.5182   -5.1123    2.5253 C.ar      1 <0>        -0.1224
     17 C15        -2.2544   -6.0153    3.2692 C.ar      1 <0>        -0.1189
     18 C16        -3.4962   -5.6570    3.7596 C.ar      1 <0>        -0.1130
     19 C17        -4.0001   -4.3943    3.5093 C.ar      1 <0>        -0.1127
     20 H1          1.0047    1.8421    0.0024 H         1 <0>         0.1247
     21 H2         -0.5450    1.8259   -0.8730 H         1 <0>         0.1274
     22 H3         -0.5280    1.8163    0.9069 H         1 <0>         0.1217
     23 H4          1.7123   -0.1005   -1.2143 H         1 <0>         0.1234
     24 H5          0.7044   -1.5677   -1.2126 H         1 <0>         0.1247
     25 H6          0.1625   -0.1167   -2.0897 H         1 <0>         0.1261
     26 H7          0.8051   -1.5756    1.1418 H         1 <0>         0.1419
     27 H8          1.7055   -0.0428    1.2310 H         1 <0>         0.1494
     28 H9          0.4987   -0.3857    3.3332 H         1 <0>         0.1083
     29 H10        -0.2405    0.9733    2.4528 H         1 <0>         0.0867
     30 H11        -0.8013    0.8159    4.4605 H         1 <0>         0.1267
     31 H12        -2.2967    1.2399    6.3688 H         1 <0>         0.1306
     32 H13        -4.4845    0.1186    6.4932 H         1 <0>         0.1316
     33 H14        -5.1812   -1.4293    4.7113 H         1 <0>         0.1347
     34 H15        -4.9059   -2.1631    2.4505 H         1 <0>         0.0854
     35 H16        -3.4386   -1.7607    1.5267 H         1 <0>         0.0779
     36 H17        -1.4486   -3.1456    1.6903 H         1 <0>         0.1132
     37 H18        -0.5480   -5.3923    2.1422 H         1 <0>         0.1195
     38 H19        -1.8597   -7.0010    3.4669 H         1 <0>         0.1237
     39 H20        -4.0716   -6.3626    4.3404 H         1 <0>         0.1254
     40 H21        -4.9686   -4.1130    3.8955 H         1 <0>         0.1224
     41 H22        -0.9445   -0.3533    0.0092 H         1 <0>         0.4332
@<TRIPOS>BOND
     1    1    2 1
     2    1   20 1
     3    1   21 1
     4    1   22 1
     5    2    3 1
     6    2    4 1
     7    2   41 1
     8    3   23 1
     9    3   24 1
    10    3   25 1
    11    4    5 1
    12    4   26 1
    13    4   27 1
    14    5    6 1
    15    5   28 1
    16    5   29 1
    17    6    7 1
    18    7   12 ar
    19    7    8 ar
    20    8    9 ar
    21    8   30 1
    22    9   10 ar
    23    9   31 1
    24   10   11 ar
    25   10   32 1
    26   11   12 ar
    27   11   33 1
    28   12   13 1
    29   13   14 1
    30   13   34 1
    31   13   35 1
    32   14   19 ar
    33   14   15 ar
    34   15   16 ar
    35   15   36 1
    36   16   17 ar
    37   16   37 1
    38   17   18 ar
    39   17   38 1
    40   18   19 ar
    41   18   39 1
    42   19   40 1
@<TRIPOS>MOLECULE
ZINC00056583
   39    41     0     0     0
SMALL
USER_CHARGES
1-[(3,4-dihydroxyphenyl)methyl]-1,2,3,4-tetrahydroisoquinoline-6,7-diol
@<TRIPOS>ATOM
      1 C1         -1.2416    3.1328    0.0308 C.ar      1 <0>        -0.0950
      2 C2         -0.0572    3.8465    0.0234 C.ar      1 <0>        -0.1182
      3 C3          1.1551    3.1765    0.0081 C.ar      1 <0>         0.1003
      4 C4          1.1775    1.7847    0.0004 C.ar      1 <0>         0.0938
      5 C5         -0.0126    1.0758    0.0080 C.ar      1 <0>        -0.1517
      6 C6         -1.2194    1.7509    0.0173 C.ar      1 <0>        -0.1213
      7 C7         -2.5132    0.9781    0.0187 C.3       1 <0>        -0.0967
      8 C8         -2.9445    0.7082    1.4617 C.3       1 <0>         0.0925
      9 H1         -2.9995    1.6525    2.0033 H         1 <0>         0.1498
     10 C9         -4.3023    0.0556    1.4610 C.ar      1 <0>        -0.1207
     11 C10        -5.2663    0.5427    0.5895 C.ar      1 <0>        -0.1074
     12 C11        -6.5285   -0.0218    0.5552 C.ar      1 <0>         0.0986
     13 C12        -6.8320   -1.0850    1.4010 C.ar      1 <0>         0.1136
     14 C13        -5.8686   -1.5667    2.2667 C.ar      1 <0>        -0.1190
     15 C14        -4.6033   -0.9986    2.2960 C.ar      1 <0>        -0.0788
     16 C15        -3.5858   -1.5642    3.2537 C.3       1 <0>        -0.1063
     17 C16        -2.4344   -0.5751    3.4367 C.3       1 <0>        -0.0003
     18 O1         -8.0707   -1.6458    1.3762 O.3       1 <0>        -0.4815
     19 O2         -7.4688    0.4594   -0.3014 O.3       1 <0>        -0.4805
     20 O3          2.3652    1.1224   -0.0141 O.3       1 <0>        -0.4868
     21 O4          2.3208    3.8768    0.0003 O.3       1 <0>        -0.4852
     22 H2         -2.1861    3.6564    0.0427 H         1 <0>         0.1385
     23 H3         -0.0774    4.9263    0.0297 H         1 <0>         0.1442
     24 H4          0.0021   -0.0041    0.0020 H         1 <0>         0.1327
     25 H5         -3.2838    1.5588   -0.4882 H         1 <0>         0.1247
     26 H6         -2.3711    0.0307   -0.5013 H         1 <0>         0.1026
     27 H7         -5.0296    1.3680   -0.0656 H         1 <0>         0.1466
     28 H8         -6.1021   -2.3915    2.9236 H         1 <0>         0.1466
     29 H9         -3.1975   -2.5021    2.8567 H         1 <0>         0.1070
     30 H10        -4.0600   -1.7497    4.2175 H         1 <0>         0.1262
     31 H11        -1.6233   -1.0547    3.9845 H         1 <0>         0.1427
     32 H12        -2.7823    0.2985    3.9879 H         1 <0>         0.1355
     33 H13        -8.1587   -2.3775    0.7501 H         1 <0>         0.4006
     34 H14        -7.4691    0.0289   -1.1673 H         1 <0>         0.3988
     35 H15         2.7004    0.9353   -0.9016 H         1 <0>         0.3989
     36 H16         2.6491    4.0842   -0.8853 H         1 <0>         0.3996
     37 N1         -1.9526   -0.1644    2.1048 N.4       1 <0>        -0.5139
     38 H17        -1.0661    0.3438    2.2051 H         1 <0>         0.4381
     39 H18        -1.8053   -0.9982    1.5240 H         1 <0>         0.4312
@<TRIPOS>BOND
     1    1    6 ar
     2    1    2 ar
     3    1   22 1
     4    2    3 ar
     5    2   23 1
     6    3    4 ar
     7    3   21 1
     8    4    5 ar
     9    4   20 1
    10    5    6 ar
    11    5   24 1
    12    6    7 1
    13    7    8 1
    14    7   25 1
    15    7   26 1
    16    8    9 1
    17    8   10 1
    18    8   37 1
    19   10   15 ar
    20   10   11 ar
    21   11   12 ar
    22   11   27 1
    23   12   13 ar
    24   12   19 1
    25   13   14 ar
    26   13   18 1
    27   14   15 ar
    28   14   28 1
    29   15   16 1
    30   16   17 1
    31   16   29 1
    32   16   30 1
    33   17   31 1
    34   17   32 1
    35   17   37 1
    36   18   33 1
    37   19   34 1
    38   20   35 1
    39   21   36 1
    40   37   38 1
    41   37   39 1
@<TRIPOS>MOLECULE
ZINC00056584
   39    41     0     0     0
SMALL
USER_CHARGES

@<TRIPOS>ATOM
      1 C1         -0.0167    1.3779    0.0096 C.ar      1 <0>        -0.0949
      2 C2          1.1696    2.0886    0.0021 C.ar      1 <0>        -0.1186
      3 C3          2.3802    1.4154   -0.0130 C.ar      1 <0>         0.1002
      4 C4          2.3990    0.0236   -0.0206 C.ar      1 <0>         0.0940
      5 C5          1.2071   -0.6822   -0.0130 C.ar      1 <0>        -0.1515
      6 C6          0.0021   -0.0041    0.0020 C.ar      1 <0>        -0.1210
      7 C7         -1.2936   -0.7736    0.0102 C.3       1 <0>        -0.0983
      8 C8         -1.7458   -1.0263   -1.4294 C.3       1 <0>         0.0902
      9 H1         -1.8058   -0.0756   -1.9593 H         1 <0>         0.1504
     10 C9         -3.1055   -1.6742   -1.4164 C.ar      1 <0>        -0.1223
     11 C10        -4.0486   -1.2136   -0.5088 C.ar      1 <0>        -0.1063
     12 C11        -5.3108   -1.7777   -0.4645 C.ar      1 <0>         0.0982
     13 C12        -5.6353   -2.8134   -1.3361 C.ar      1 <0>         0.1143
     14 C13        -4.6912   -3.2704   -2.2384 C.ar      1 <0>        -0.1186
     15 C14        -3.4272   -2.7016   -2.2779 C.ar      1 <0>        -0.0788
     16 C15        -2.4271   -3.2355   -3.2719 C.3       1 <0>        -0.1067
     17 C16        -1.2761   -2.2418   -3.4332 C.3       1 <0>        -0.0036
     18 N1         -0.7695   -1.8912   -2.0978 N.4       1 <0>        -0.5057
     19 O1         -6.8742   -3.3731   -1.3012 O.3       1 <0>        -0.4819
     20 O2         -6.2313   -1.3220    0.4269 O.3       1 <0>        -0.4810
     21 O3          3.5850   -0.6417   -0.0359 O.3       1 <0>        -0.4868
     22 O4          3.5476    2.1129   -0.0209 O.3       1 <0>        -0.4853
     23 H2         -0.9598    1.9038    0.0259 H         1 <0>         0.1383
     24 H3          1.1522    3.1684    0.0077 H         1 <0>         0.1441
     25 H4          1.2190   -1.7621   -0.0189 H         1 <0>         0.1328
     26 H5         -1.1467   -1.7271    0.5175 H         1 <0>         0.1034
     27 H6         -2.0555   -0.1967    0.5344 H         1 <0>         0.1254
     28 H7         -3.7959   -0.4097    0.1667 H         1 <0>         0.1469
     29 H8         -4.9402   -4.0739   -2.9158 H         1 <0>         0.1470
     30 H9         -2.0359   -4.1886   -2.9160 H         1 <0>         0.1079
     31 H10        -2.9164   -3.3827   -4.2348 H         1 <0>         0.1267
     32 H11        -0.4783   -2.6979   -4.0194 H         1 <0>         0.1434
     33 H12        -1.6356   -1.3439   -3.9357 H         1 <0>         0.1363
     34 H13         0.1086   -1.4025   -2.1881 H         1 <0>         0.4340
     35 H14        -7.5153   -2.9459   -1.8857 H         1 <0>         0.4013
     36 H15        -6.7815   -0.6015    0.0904 H         1 <0>         0.3994
     37 H16         3.9367   -0.8389    0.8430 H         1 <0>         0.3991
     38 H17         3.8938    2.3101    0.8602 H         1 <0>         0.3997
     39 H18        -0.6357   -2.7315   -1.5555 H         1 <0>         0.4283
@<TRIPOS>BOND
     1    1    6 ar
     2    1    2 ar
     3    1   23 1
     4    2    3 ar
     5    2   24 1
     6    3    4 ar
     7    3   22 1
     8    4    5 ar
     9    4   21 1
    10    5    6 ar
    11    5   25 1
    12    6    7 1
    13    7    8 1
    14    7   26 1
    15    7   27 1
    16    8    9 1
    17    8   18 1
    18    8   10 1
    19   10   15 ar
    20   10   11 ar
    21   11   12 ar
    22   11   28 1
    23   12   13 ar
    24   12   20 1
    25   13   14 ar
    26   13   19 1
    27   14   15 ar
    28   14   29 1
    29   15   16 1
    30   16   17 1
    31   16   30 1
    32   16   31 1
    33   17   18 1
    34   17   32 1
    35   17   33 1
    36   18   34 1
    37   18   39 1
    38   19   35 1
    39   20   36 1
    40   21   37 1
    41   22   38 1
@<TRIPOS>MOLECULE
ZINC00056584
   38    40     0     0     0
SMALL
USER_CHARGES

@<TRIPOS>ATOM
      1 C1         -0.0167    1.3779    0.0096 C.ar      1 <0>        -0.1099
      2 C2          1.1696    2.0886    0.0021 C.ar      1 <0>        -0.1284
      3 C3          2.3802    1.4154   -0.0130 C.ar      1 <0>         0.0769
      4 C4          2.3990    0.0236   -0.0206 C.ar      1 <0>         0.0828
      5 C5          1.2071   -0.6822   -0.0130 C.ar      1 <0>        -0.1216
      6 C6          0.0021   -0.0041    0.0020 C.ar      1 <0>        -0.0784
      7 C7         -1.2936   -0.7736    0.0102 C.3       1 <0>        -0.0737
      8 C8         -1.7458   -1.0263   -1.4294 C.3       1 <0>         0.1353
      9 H1         -1.8059   -0.0758   -1.9596 H         1 <0>         0.0554
     10 C9         -3.1052   -1.6755   -1.4169 C.ar      1 <0>        -0.0674
     11 C10        -4.0541   -1.1991   -0.5232 C.ar      1 <0>        -0.1266
     12 C11        -5.3174   -1.7603   -0.4780 C.ar      1 <0>         0.0781
     13 C12        -5.6373   -2.8094   -1.3352 C.ar      1 <0>         0.0838
     14 C13        -4.6876   -3.2824   -2.2229 C.ar      1 <0>        -0.1322
     15 C14        -3.4212   -2.7172   -2.2627 C.ar      1 <0>        -0.0556
     16 C15        -2.4178   -3.2751   -3.2395 C.3       1 <0>        -0.0779
     17 C16        -1.2657   -2.2875   -3.4261 C.3       1 <0>         0.0533
     18 N1         -0.7700   -1.8926   -2.0982 N.3       1 <0>        -0.6791
     19 O1         -6.8774   -3.3663   -1.3005 O.3       1 <0>        -0.4877
     20 O2         -6.2428   -1.2896    0.4003 O.3       1 <0>        -0.4869
     21 O3          3.5850   -0.6417   -0.0359 O.3       1 <0>        -0.4877
     22 O4          3.5476    2.1129   -0.0209 O.3       1 <0>        -0.4888
     23 H2         -0.9598    1.9038    0.0259 H         1 <0>         0.1292
     24 H3          1.1522    3.1684    0.0077 H         1 <0>         0.1334
     25 H4          1.2190   -1.7621   -0.0189 H         1 <0>         0.1398
     26 H5         -1.1467   -1.7271    0.5175 H         1 <0>         0.0888
     27 H6         -2.0555   -0.1967    0.5344 H         1 <0>         0.0842
     28 H7         -3.8046   -0.3847    0.1409 H         1 <0>         0.1356
     29 H8         -4.9335   -4.0960   -2.8891 H         1 <0>         0.1339
     30 H9         -2.0274   -4.2186   -2.8581 H         1 <0>         0.0882
     31 H10        -2.9048   -3.4483   -4.1992 H         1 <0>         0.0801
     32 H11        -0.4633   -2.7633   -3.9900 H         1 <0>         0.0839
     33 H12        -1.6211   -1.4071   -3.9614 H         1 <0>         0.0381
     34 H13        -7.5134   -2.9476   -1.8965 H         1 <0>         0.3877
     35 H14        -6.7898   -0.5736    0.0493 H         1 <0>         0.3869
     36 H15         3.9367   -0.8389    0.8430 H         1 <0>         0.3885
     37 H16         3.8938    2.3101    0.8602 H         1 <0>         0.3879
     38 H17         0.1283   -1.4385   -2.1684 H         1 <0>         0.3504
@<TRIPOS>BOND
     1    1    6 ar
     2    1    2 ar
     3    1   23 1
     4    2    3 ar
     5    2   24 1
     6    3    4 ar
     7    3   22 1
     8    4    5 ar
     9    4   21 1
    10    5    6 ar
    11    5   25 1
    12    6    7 1
    13    7    8 1
    14    7   26 1
    15    7   27 1
    16    8    9 1
    17    8   18 1
    18    8   10 1
    19   10   15 ar
    20   10   11 ar
    21   11   12 ar
    22   11   28 1
    23   12   13 ar
    24   12   20 1
    25   13   14 ar
    26   13   19 1
    27   14   15 ar
    28   14   29 1
    29   15   16 1
    30   16   17 1
    31   16   30 1
    32   16   31 1
    33   17   18 1
    34   17   32 1
    35   17   33 1
    36   18   38 1
    37   19   34 1
    38   20   35 1
    39   21   36 1
    40   22   37 1
@<TRIPOS>MOLECULE
ZINC13462664
   19    20     0     0     0
SMALL
USER_CHARGES
indolin-5-ol
@<TRIPOS>ATOM
      1 C1          3.4528    2.3920   -0.0191 C.ar      1 <0>        -0.0968
      2 C2          2.4724    1.4226   -0.0139 C.ar      1 <0>        -0.1662
      3 C3          1.1240    1.7831    0.0009 C.ar      1 <0>         0.1881
      4 C4          0.7850    3.1270    0.0109 C.ar      1 <0>        -0.1596
      5 C5          1.7673    4.0984    0.0059 C.ar      1 <0>        -0.0851
      6 C6          3.1055    3.7345   -0.0091 C.ar      1 <0>         0.0484
      7 O1          4.0730    4.6903   -0.0135 O.3       1 <0>        -0.4968
      8 C7         -0.7227    3.2430    0.0255 C.3       1 <0>        -0.0851
      9 C8         -1.2230    1.7894    0.0170 C.3       1 <0>         0.1177
     10 N1         -0.0111    0.9658    0.0074 N.pl3     1 <0>        -0.7472
     11 H1          4.4939    2.1051   -0.0308 H         1 <0>         0.1299
     12 H2          2.7493    0.3787   -0.0218 H         1 <0>         0.1225
     13 H3          1.4927    5.1428    0.0141 H         1 <0>         0.1265
     14 H4          4.3615    4.9620    0.8686 H         1 <0>         0.3838
     15 H5         -1.0556    3.7580    0.9267 H         1 <0>         0.0857
     16 H6         -1.0723    3.7671   -0.8640 H         1 <0>         0.0852
     17 H7         -1.8177    1.5974   -0.8761 H         1 <0>         0.0681
     18 H8         -1.8097    1.5882    0.9133 H         1 <0>         0.0680
     19 H9          0.0021   -0.0041    0.0020 H         1 <0>         0.4129
@<TRIPOS>BOND
     1    1    6 ar
     2    1    2 ar
     3    1   11 1
     4    2    3 ar
     5    2   12 1
     6    3   10 1
     7    3    4 ar
     8    4    5 ar
     9    4    8 1
    10    5    6 ar
    11    5   13 1
    12    6    7 1
    13    7   14 1
    14    8    9 1
    15    8   15 1
    16    8   16 1
    17    9   10 1
    18    9   17 1
    19    9   18 1
    20   10   19 1
@<TRIPOS>MOLECULE
ZINC00000857
   38    40     0     0     0
SMALL
USER_CHARGES
1-[(4-hydroxyphenyl)methyl]-1,2,3,4-tetrahydroisoquinoline-6,7-diol
@<TRIPOS>ATOM
      1 C1          0.0622   -2.2549    5.7676 C.ar      1 <0>        -0.0845
      2 C2         -0.0079   -2.8404    7.0169 C.ar      1 <0>        -0.1350
      3 C3          0.8300   -3.9000    7.3330 C.ar      1 <0>         0.1283
      4 C4          1.7325   -4.3725    6.3912 C.ar      1 <0>        -0.1372
      5 C5          1.7947   -3.7872    5.1414 C.ar      1 <0>        -0.1202
      6 C6          0.9585   -2.7314    4.8288 C.ar      1 <0>        -0.1408
      7 C7          1.0285   -2.0948    3.4646 C.3       1 <0>        -0.0964
      8 C8          0.0604   -2.8082    2.5187 C.3       1 <0>         0.0928
      9 H1         -0.9406   -2.7917    2.9497 H         1 <0>         0.1489
     10 C9          0.0427   -2.0927    1.1930 C.ar      1 <0>        -0.1205
     11 C10         0.0229   -0.7050    1.1942 C.ar      1 <0>        -0.1071
     12 C11         0.0021   -0.0041    0.0020 C.ar      1 <0>         0.0985
     13 C12        -0.0058   -0.6967   -1.2054 C.ar      1 <0>         0.1134
     14 C13         0.0194   -2.0797   -1.2017 C.ar      1 <0>        -0.1192
     15 C14         0.0425   -2.7779   -0.0031 C.ar      1 <0>        -0.0797
     16 C15         0.0698   -4.2844   -0.0516 C.3       1 <0>        -0.1060
     17 C16        -0.3225   -4.8579    1.3102 C.3       1 <0>        -0.0002
     18 O1         -0.0329   -0.0169   -2.3830 O.3       1 <0>        -0.4815
     19 O2         -0.0164    1.3557    0.0095 O.3       1 <0>        -0.4806
     20 O3          0.7666   -4.4743    8.5630 O.3       1 <0>        -0.4973
     21 H2         -0.5866   -1.4270    5.5226 H         1 <0>         0.1348
     22 H3         -0.7113   -2.4708    7.7483 H         1 <0>         0.1391
     23 H4          2.3856   -5.1974    6.6348 H         1 <0>         0.1382
     24 H5          2.4968   -4.1550    4.4078 H         1 <0>         0.1265
     25 H6          2.0436   -2.1783    3.0764 H         1 <0>         0.1013
     26 H7          0.7537   -1.0427    3.5401 H         1 <0>         0.1221
     27 H8          0.0241   -0.1691    2.1318 H         1 <0>         0.1465
     28 H9          0.0169   -2.6192   -2.1373 H         1 <0>         0.1466
     29 H10         1.0742   -4.6199   -0.3098 H         1 <0>         0.1070
     30 H11        -0.6337   -4.6334   -0.8075 H         1 <0>         0.1259
     31 H12        -0.1333   -5.9312    1.3239 H         1 <0>         0.1423
     32 H13        -1.3794   -4.6699    1.4994 H         1 <0>         0.1351
     33 H14         0.8425    0.1924   -2.7365 H         1 <0>         0.4005
     34 H15         0.8616    1.7610    0.0033 H         1 <0>         0.3989
     35 H16         1.3557   -4.0720    9.2158 H         1 <0>         0.4036
     36 N1          0.4938   -4.2017    2.3484 N.4       1 <0>        -0.5132
     37 H17         0.3824   -4.7039    3.2370 H         1 <0>         0.4376
     38 H18         1.4811   -4.2192    2.0669 H         1 <0>         0.4312
@<TRIPOS>BOND
     1    1    6 ar
     2    1    2 ar
     3    1   21 1
     4    2    3 ar
     5    2   22 1
     6    3    4 ar
     7    3   20 1
     8    4    5 ar
     9    4   23 1
    10    5    6 ar
    11    5   24 1
    12    6    7 1
    13    7    8 1
    14    7   25 1
    15    7   26 1
    16    8    9 1
    17    8   10 1
    18    8   36 1
    19   10   15 ar
    20   10   11 ar
    21   11   12 ar
    22   11   27 1
    23   12   13 ar
    24   12   19 1
    25   13   14 ar
    26   13   18 1
    27   14   15 ar
    28   14   28 1
    29   15   16 1
    30   16   17 1
    31   16   29 1
    32   16   30 1
    33   17   31 1
    34   17   32 1
    35   17   36 1
    36   18   33 1
    37   19   34 1
    38   20   35 1
    39   36   37 1
    40   36   38 1
@<TRIPOS>MOLECULE
ZINC00896041
   38    40     0     0     0
SMALL
USER_CHARGES
1-[(4-hydroxyphenyl)methyl]-1,2,3,4-tetrahydroisoquinoline-6,7-diol
@<TRIPOS>ATOM
      1 C1         -1.5041    1.6839    4.2221 C.ar      1 <0>        -0.1199
      2 C2         -1.0902    1.0990    5.4032 C.ar      1 <0>        -0.1374
      3 C3         -0.1229    1.7187    6.1810 C.ar      1 <0>         0.1284
      4 C4          0.4307    2.9217    5.7672 C.ar      1 <0>        -0.1351
      5 C5          0.0177    3.4994    4.5823 C.ar      1 <0>        -0.0845
      6 C6         -0.9468    2.8800    3.8092 C.ar      1 <0>        -0.1411
      7 C7         -1.3959    3.5127    2.5172 C.3       1 <0>        -0.0964
      8 C8         -0.5177    3.0086    1.3702 C.3       1 <0>         0.0927
      9 H1          0.5284    3.2061    1.6046 H         1 <0>         0.1485
     10 C9         -0.8890    3.7348    0.1036 C.ar      1 <0>        -0.1201
     11 C10        -1.1212    5.1013    0.1720 C.ar      1 <0>        -0.1071
     12 C11        -1.4565    5.8124   -0.9660 C.ar      1 <0>         0.0986
     13 C12        -1.5621    5.1513   -2.1864 C.ar      1 <0>         0.1131
     14 C13        -1.3322    3.7888   -2.2494 C.ar      1 <0>        -0.1190
     15 C14        -0.9972    3.0800   -1.1048 C.ar      1 <0>        -0.0796
     16 C15        -0.7600    1.5962   -1.2243 C.3       1 <0>        -0.1058
     17 C16        -0.0127    1.0858    0.0080 C.3       1 <0>        -0.0005
     18 O1         -1.8893    5.8418   -3.3115 O.3       1 <0>        -0.4815
     19 O2         -1.6824    7.1514   -0.8927 O.3       1 <0>        -0.4805
     20 O3          0.2814    1.1486    7.3465 O.3       1 <0>        -0.4973
     21 H2         -2.2608    1.2045    3.6188 H         1 <0>         0.1267
     22 H3         -1.5229    0.1627    5.7234 H         1 <0>         0.1382
     23 H4          1.1836    3.4062    6.3712 H         1 <0>         0.1391
     24 H5          0.4483    4.4358    4.2598 H         1 <0>         0.1348
     25 H6         -1.3073    4.5964    2.5934 H         1 <0>         0.1221
     26 H7         -2.4348    3.2457    2.3237 H         1 <0>         0.1014
     27 H8         -1.0395    5.6127    1.1197 H         1 <0>         0.1465
     28 H9         -1.4143    3.2736   -3.1950 H         1 <0>         0.1466
     29 H10        -0.1666    1.3953   -2.1162 H         1 <0>         0.1259
     30 H11        -1.7177    1.0821   -1.3053 H         1 <0>         0.1068
     31 H12         0.0021   -0.0041    0.0020 H         1 <0>         0.1424
     32 H13         1.0088    1.4659    0.0003 H         1 <0>         0.1350
     33 H14        -2.8402    5.8898   -3.4809 H         1 <0>         0.4006
     34 H15        -2.6035    7.3857   -0.7146 H         1 <0>         0.3989
     35 H16        -0.2328    1.4234    8.1179 H         1 <0>         0.4036
     36 N1         -0.7121    1.5610    1.2164 N.4       1 <0>        -0.5129
     37 H17        -1.7153    1.3595    1.1304 H         1 <0>         0.4311
     38 H18        -0.3353    1.0775    2.0401 H         1 <0>         0.4379
@<TRIPOS>BOND
     1    1    6 ar
     2    1    2 ar
     3    1   21 1
     4    2    3 ar
     5    2   22 1
     6    3    4 ar
     7    3   20 1
     8    4    5 ar
     9    4   23 1
    10    5    6 ar
    11    5   24 1
    12    6    7 1
    13    7    8 1
    14    7   25 1
    15    7   26 1
    16    8    9 1
    17    8   10 1
    18    8   36 1
    19   10   15 ar
    20   10   11 ar
    21   11   12 ar
    22   11   27 1
    23   12   13 ar
    24   12   19 1
    25   13   14 ar
    26   13   18 1
    27   14   15 ar
    28   14   28 1
    29   15   16 1
    30   16   17 1
    31   16   29 1
    32   16   30 1
    33   17   31 1
    34   17   32 1
    35   17   36 1
    36   18   33 1
    37   19   34 1
    38   20   35 1
    39   36   37 1
    40   36   38 1
@<TRIPOS>MOLECULE
ZINC00056408
   42    44     0     0     0
SMALL
USER_CHARGES

@<TRIPOS>ATOM
      1 C1          0.2792    1.8828    0.1278 C.3       1 <0>        -0.0569
      2 N1          0.0839    0.4380   -0.0517 N.4       1 <0>        -0.3863
      3 C2         -1.3531    0.1269   -0.0119 C.3       1 <0>        -0.0049
      4 C3         -1.5551   -1.3076   -0.5015 C.3       1 <0>        -0.1057
      5 C4         -0.6325   -2.2367    0.2459 C.ar      1 <0>        -0.0793
      6 C5         -0.8907   -3.5986    0.2089 C.ar      1 <0>        -0.1181
      7 C6         -0.0658   -4.4847    0.8786 C.ar      1 <0>         0.1127
      8 C7          1.0281   -4.0031    1.5922 C.ar      1 <0>         0.0977
      9 C8          1.2798   -2.6434    1.6271 C.ar      1 <0>        -0.1071
     10 C9          0.4490   -1.7583    0.9550 C.ar      1 <0>        -0.1139
     11 C10         0.7589   -0.2862    1.0290 C.3       1 <0>         0.0869
     12 H1          0.4212    0.1044    1.9889 H         1 <0>         0.1533
     13 C11         2.2702   -0.0822    0.9058 C.3       1 <0>        -0.1021
     14 C12         2.7368   -0.5821   -0.4371 C.ar      1 <0>        -0.1099
     15 C13         3.2111   -1.8744   -0.5652 C.ar      1 <0>        -0.0901
     16 C14         3.6402   -2.3378   -1.7949 C.ar      1 <0>        -0.1180
     17 C15         3.5952   -1.5066   -2.9026 C.ar      1 <0>         0.0993
     18 C16         3.1175   -0.2060   -2.7738 C.ar      1 <0>         0.0967
     19 C17         2.6843    0.2506   -1.5393 C.ar      1 <0>        -0.1626
     20 O1          3.0714    0.6136   -3.8580 O.3       1 <0>        -0.4805
     21 O2          4.0175   -1.9607   -4.1130 O.3       1 <0>        -0.4820
     22 O3          1.8457   -4.8659    2.2527 O.3       1 <0>        -0.4795
     23 O4         -0.3226   -5.8197    0.8402 O.3       1 <0>        -0.4812
     24 H2          1.3356    2.1242    0.0092 H         1 <0>         0.1253
     25 H3         -0.3030    2.4237   -0.6182 H         1 <0>         0.1302
     26 H4         -0.0499    2.1727    1.1257 H         1 <0>         0.1297
     27 H5         -1.7194    0.2195    1.0106 H         1 <0>         0.1361
     28 H6         -1.8947    0.8149   -0.6611 H         1 <0>         0.1404
     29 H7         -2.5888   -1.6072   -0.3291 H         1 <0>         0.1271
     30 H8         -1.3366   -1.3606   -1.5681 H         1 <0>         0.1029
     31 H9         -1.7399   -3.9696   -0.3457 H         1 <0>         0.1457
     32 H10         2.1282   -2.2686    2.1803 H         1 <0>         0.1462
     33 H11         2.5024    0.9787    0.9993 H         1 <0>         0.1071
     34 H12         2.7772   -0.6360    1.6959 H         1 <0>         0.1245
     35 H13         3.2466   -2.5233    0.2974 H         1 <0>         0.1343
     36 H14         4.0109   -3.3475   -1.8921 H         1 <0>         0.1425
     37 H15         2.3096    1.2584   -1.4374 H         1 <0>         0.1325
     38 H16         2.2404    0.5680   -4.3505 H         1 <0>         0.3927
     39 H17         3.3221   -2.3749   -4.6421 H         1 <0>         0.3961
     40 H18         2.5861   -5.1905    1.7220 H         1 <0>         0.3972
     41 H19         0.1071   -6.2820    0.1076 H         1 <0>         0.3995
     42 H20         0.4679    0.1532   -0.9403 H         1 <0>         0.4216
@<TRIPOS>BOND
     1    1    2 1
     2    1   24 1
     3    1   25 1
     4    1   26 1
     5    2   11 1
     6    2    3 1
     7    2   42 1
     8    3    4 1
     9    3   27 1
    10    3   28 1
    11    4    5 1
    12    4   29 1
    13    4   30 1
    14    5   10 ar
    15    5    6 ar
    16    6    7 ar
    17    6   31 1
    18    7    8 ar
    19    7   23 1
    20    8    9 ar
    21    8   22 1
    22    9   10 ar
    23    9   32 1
    24   10   11 1
    25   11   12 1
    26   11   13 1
    27   13   14 1
    28   13   33 1
    29   13   34 1
    30   14   19 ar
    31   14   15 ar
    32   15   16 ar
    33   15   35 1
    34   16   17 ar
    35   16   36 1
    36   17   18 ar
    37   17   21 1
    38   18   19 ar
    39   18   20 1
    40   19   37 1
    41   20   38 1
    42   21   39 1
    43   22   40 1
    44   23   41 1
@<TRIPOS>MOLECULE
ZINC00056408
   41    43     0     0     0
SMALL
USER_CHARGES

@<TRIPOS>ATOM
      1 C1          0.3211    1.9602    0.2289 C.3       1 <0>         0.0158
      2 N1          0.0931    0.5293   -0.0129 N.3       1 <0>        -0.5269
      3 C2         -1.3459    0.2263   -0.0671 C.3       1 <0>         0.0511
      4 C3         -1.5263   -1.1650   -0.6747 C.3       1 <0>        -0.0755
      5 C4         -0.6363   -2.1549    0.0327 C.ar      1 <0>        -0.0561
      6 C5         -0.9051   -3.5077   -0.1169 C.ar      1 <0>        -0.1321
      7 C6         -0.1126   -4.4521    0.5103 C.ar      1 <0>         0.0837
      8 C7          0.9605   -4.0395    1.2952 C.ar      1 <0>         0.0786
      9 C8          1.2231   -2.6896    1.4425 C.ar      1 <0>        -0.1244
     10 C9          0.4237   -1.7456    0.8133 C.ar      1 <0>        -0.0597
     11 C10         0.7456   -0.2878    1.0149 C.3       1 <0>         0.1290
     12 H1          0.3958    0.0251    1.9987 H         1 <0>         0.0622
     13 C11         2.2603   -0.0890    0.9318 C.3       1 <0>        -0.0772
     14 C12         2.7507   -0.5266   -0.4244 C.ar      1 <0>        -0.0552
     15 C13         3.2445   -1.8060   -0.5994 C.ar      1 <0>        -0.1075
     16 C14         3.6955   -2.2123   -1.8414 C.ar      1 <0>        -0.1332
     17 C15         3.6528   -1.3366   -2.9144 C.ar      1 <0>         0.0746
     18 C16         3.1553   -0.0490   -2.7384 C.ar      1 <0>         0.0783
     19 C17         2.7004    0.3502   -1.4919 C.ar      1 <0>        -0.1000
     20 O1          3.1114    0.8140   -3.7885 O.3       1 <0>        -0.4893
     21 O2          4.0965   -1.7346   -4.1368 O.3       1 <0>        -0.4901
     22 O3          1.7470   -4.9598    1.9147 O.3       1 <0>        -0.4869
     23 O4         -0.3807   -5.7770    0.3613 O.3       1 <0>        -0.4880
     24 H2          1.3836    2.1811    0.1271 H         1 <0>         0.0738
     25 H3         -0.2430    2.5458   -0.4970 H         1 <0>         0.0732
     26 H4         -0.0081    2.2154    1.2362 H         1 <0>         0.0303
     27 H5         -1.7617    0.2427    0.9403 H         1 <0>         0.0414
     28 H6         -1.8526    0.9654   -0.6876 H         1 <0>         0.0840
     29 H7         -2.5663   -1.4737   -0.5694 H         1 <0>         0.0807
     30 H8         -1.2646   -1.1346   -1.7324 H         1 <0>         0.0852
     31 H9         -1.7383   -3.8253   -0.7264 H         1 <0>         0.1321
     32 H10         2.0552   -2.3681    2.0512 H         1 <0>         0.1342
     33 H11         2.4972    0.9644    1.0812 H         1 <0>         0.0826
     34 H12         2.7478   -0.6841    1.7039 H         1 <0>         0.0830
     35 H13         3.2783   -2.4895    0.2362 H         1 <0>         0.1232
     36 H14         4.0815   -3.2120   -1.9752 H         1 <0>         0.1280
     37 H15         2.3103    1.3478   -1.3535 H         1 <0>         0.1327
     38 H16         2.2874    0.7777   -4.2932 H         1 <0>         0.3857
     39 H17         3.4137   -2.1359   -4.6916 H         1 <0>         0.3851
     40 H18         2.5022   -5.2517    1.3859 H         1 <0>         0.3863
     41 H19         0.0696   -6.1873   -0.3897 H         1 <0>         0.3873
@<TRIPOS>BOND
     1    1    2 1
     2    1   24 1
     3    1   25 1
     4    1   26 1
     5    2   11 1
     6    2    3 1
     7    3    4 1
     8    3   27 1
     9    3   28 1
    10    4    5 1
    11    4   29 1
    12    4   30 1
    13    5   10 ar
    14    5    6 ar
    15    6    7 ar
    16    6   31 1
    17    7    8 ar
    18    7   23 1
    19    8    9 ar
    20    8   22 1
    21    9   10 ar
    22    9   32 1
    23   10   11 1
    24   11   12 1
    25   11   13 1
    26   13   14 1
    27   13   33 1
    28   13   34 1
    29   14   19 ar
    30   14   15 ar
    31   15   16 ar
    32   15   35 1
    33   16   17 ar
    34   16   36 1
    35   17   18 ar
    36   17   21 1
    37   18   19 ar
    38   18   20 1
    39   19   37 1
    40   20   38 1
    41   21   39 1
    42   22   40 1
    43   23   41 1
