@<TRIPOS>MOLECULE
ZINC12502867
   20    19     0     0     0
SMALL
USER_CHARGES
3-(formyl-hydroxy-amino)propylphosphonic acid
@<TRIPOS>ATOM
      1 C1          3.1165    0.7148    1.3696 C.3       1 <0>        -0.1245
      2 C2          2.4713    0.7114   -0.0177 C.3       1 <0>         0.1345
      3 N1          1.2746    1.5563   -0.0018 N.am      1 <0>        -0.4668
      4 C3          1.3972    2.8985    0.0043 C.2       1 <0>         0.4747
      5 O1          0.4065    3.5979    0.0175 O.2       1 <0>        -0.5673
      6 O2         -0.0110    0.9628    0.0073 O.3       1 <0>        -0.3648
      7 C4          4.3663   -0.1675    1.3529 C.3       1 <0>        -0.7315
      8 P1          5.1351   -0.1635    3.0059 P.3       1 <0>         2.2797
      9 O3          4.1351   -0.5758    4.0160 O.2       1 <0>        -1.0879
     10 O4          6.3728   -1.1930    3.0246 O.3       1 <0>        -1.1190
     11 O5          5.6642    1.3181    3.3480 O.3       1 <0>        -0.9389
     12 H1          3.3972    1.7432    1.6409 H         1 <0>         0.0646
     13 H2          2.4010    0.3232    2.1077 H         1 <0>         0.0848
     14 H3          3.1868    1.1029   -0.7558 H         1 <0>         0.0875
     15 H4          2.1905   -0.3170   -0.2890 H         1 <0>         0.0921
     16 H5          2.3959    3.3596   -0.0027 H         1 <0>         0.1509
     17 H6         -0.9096    1.5972    0.0192 H         1 <0>         0.4249
     18 H7          4.0855   -1.1959    1.0816 H         1 <0>         0.0896
     19 H8          5.0818    0.2241    0.6148 H         1 <0>         0.0722
     20 H9          6.1604    1.5166    4.3095 H         1 <0>         0.4451
@<TRIPOS>BOND
     1    1    2 1
     2    1    7 1
     3    1   12 1
     4    1   13 1
     5    2    3 1
     6    2   14 1
     7    2   15 1
     8    3    4 am
     9    3    6 1
    10    4    5 2
    11    4   16 1
    12    6   17 1
    13    7    8 1
    14    7   18 1
    15    7   19 1
    16    8    9 2
    17    8   10 1
    18    8   11 1
    19   11   20 1
