@<TRIPOS>MOLECULE
ZINC36177025
   68    67     0     0     0
SMALL
USER_CHARGES

@<TRIPOS>ATOM
      1 C1         -0.0187    1.5258    0.0104 C.3       1 <0>        -0.1547
      2 C2          0.0021   -0.0041    0.0020 C.3       1 <0>        -0.1262
      3 C3         -1.4333   -0.5336    0.0129 C.3       1 <0>        -0.1213
      4 C4         -1.4126   -2.0635    0.0045 C.3       1 <0>        -0.1212
      5 C5         -2.8479   -2.5931    0.0153 C.3       1 <0>        -0.1207
      6 C6         -2.8272   -4.1229    0.0069 C.3       1 <0>        -0.1207
      7 C7         -4.2626   -4.6525    0.0178 C.3       1 <0>        -0.1207
      8 C8         -4.2418   -6.1823    0.0094 C.3       1 <0>        -0.1207
      9 C9         -5.6772   -6.7119    0.0202 C.3       1 <0>        -0.1207
     10 C10        -5.6565   -8.2417    0.0118 C.3       1 <0>        -0.1209
     11 C11        -7.0918   -8.7713    0.0227 C.3       1 <0>        -0.1208
     12 C12        -7.0711  -10.3012    0.0143 C.3       1 <0>        -0.1212
     13 C13        -8.5065  -10.8307    0.0251 C.3       1 <0>        -0.1210
     14 C14        -8.4857  -12.3606    0.0167 C.3       1 <0>        -0.1218
     15 C15        -9.9211  -12.8902    0.0276 C.3       1 <0>        -0.1207
     16 C16        -9.9004  -14.4200    0.0191 C.3       1 <0>        -0.1181
     17 C17       -11.3358  -14.9496    0.0300 C.3       1 <0>        -0.1507
     18 C18       -11.3150  -16.4794    0.0216 C.3       1 <0>        -0.0093
     19 N1        -12.6932  -16.9879    0.0320 N.4       1 <0>        -0.2715
     20 C19       -13.4037  -16.5012   -1.1581 C.3       1 <0>        -0.0506
     21 C20       -12.6732  -18.4567    0.0239 C.3       1 <0>        -0.0451
     22 C21       -13.3808  -16.5141    1.2406 C.3       1 <0>        -0.0506
     23 H1          1.0039    1.9031    0.0027 H         1 <0>         0.0541
     24 H2         -0.5459    1.8868   -0.8726 H         1 <0>         0.0535
     25 H3         -0.5289    1.8773    0.9072 H         1 <0>         0.0535
     26 H4          0.5123   -0.3556   -0.8948 H         1 <0>         0.0603
     27 H5          0.5293   -0.3651    0.8851 H         1 <0>         0.0603
     28 H6         -1.9435   -0.1821    0.9097 H         1 <0>         0.0606
     29 H7         -1.9605   -0.1726   -0.8702 H         1 <0>         0.0606
     30 H8         -0.9024   -2.4150   -0.8923 H         1 <0>         0.0606
     31 H9         -0.8854   -2.4246    0.8875 H         1 <0>         0.0606
     32 H10        -3.3581   -2.2415    0.9121 H         1 <0>         0.0605
     33 H11        -3.3751   -2.2320   -0.8677 H         1 <0>         0.0605
     34 H12        -2.3170   -4.4744   -0.8899 H         1 <0>         0.0605
     35 H13        -2.3000   -4.4840    0.8900 H         1 <0>         0.0605
     36 H14        -4.7728   -4.3010    0.9146 H         1 <0>         0.0605
     37 H15        -4.7898   -4.2914   -0.8653 H         1 <0>         0.0605
     38 H16        -3.7316   -6.5338   -0.8874 H         1 <0>         0.0605
     39 H17        -3.7146   -6.5434    0.8924 H         1 <0>         0.0606
     40 H18        -6.1874   -6.3604    0.9170 H         1 <0>         0.0605
     41 H19        -6.2044   -6.3508   -0.8628 H         1 <0>         0.0605
     42 H20        -5.1463   -8.5933   -0.8850 H         1 <0>         0.0607
     43 H21        -5.1293   -8.6028    0.8949 H         1 <0>         0.0607
     44 H22        -7.6020   -8.4198    0.9195 H         1 <0>         0.0608
     45 H23        -7.6190   -8.4102   -0.8604 H         1 <0>         0.0608
     46 H24        -6.5609  -10.6527   -0.8825 H         1 <0>         0.0613
     47 H25        -6.5439  -10.6622    0.8973 H         1 <0>         0.0613
     48 H26        -9.0167  -10.4792    0.9219 H         1 <0>         0.0616
     49 H27        -9.0337  -10.4697   -0.8579 H         1 <0>         0.0616
     50 H28        -7.9755  -12.7121   -0.8801 H         1 <0>         0.0635
     51 H29        -7.9586  -12.7217    0.8998 H         1 <0>         0.0635
     52 H30       -10.4313  -12.5386    0.9244 H         1 <0>         0.0652
     53 H31       -10.4483  -12.5291   -0.8555 H         1 <0>         0.0652
     54 H32        -9.3902  -14.7715   -0.8776 H         1 <0>         0.0731
     55 H33        -9.3732  -14.7811    0.9022 H         1 <0>         0.0731
     56 H34       -11.8459  -14.5981    0.9268 H         1 <0>         0.0870
     57 H35       -11.8629  -14.5885   -0.8531 H         1 <0>         0.0870
     58 H36       -10.8048  -16.8309   -0.8752 H         1 <0>         0.1279
     59 H37       -10.7878  -16.8405    0.9047 H         1 <0>         0.1279
     60 H38       -12.8935  -16.8528   -2.0549 H         1 <0>         0.1215
     61 H39       -14.4262  -16.8785   -1.1503 H         1 <0>         0.1221
     62 H40       -13.4184  -15.4114   -1.1521 H         1 <0>         0.1232
     63 H41       -12.1461  -18.8178    0.9070 H         1 <0>         0.1211
     64 H42       -13.6958  -18.8340    0.0317 H         1 <0>         0.1223
     65 H43       -12.1631  -18.8082   -0.8728 H         1 <0>         0.1211
     66 H44       -13.3955  -15.4242    1.2466 H         1 <0>         0.1232
     67 H45       -14.4033  -16.8914    1.2484 H         1 <0>         0.1221
     68 H46       -12.8536  -16.8752    2.1237 H         1 <0>         0.1215
@<TRIPOS>BOND
     1    1    2 1
     2    1   23 1
     3    1   24 1
     4    1   25 1
     5    2    3 1
     6    2   26 1
     7    2   27 1
     8    3    4 1
     9    3   28 1
    10    3   29 1
    11    4    5 1
    12    4   30 1
    13    4   31 1
    14    5    6 1
    15    5   32 1
    16    5   33 1
    17    6    7 1
    18    6   34 1
    19    6   35 1
    20    7    8 1
    21    7   36 1
    22    7   37 1
    23    8    9 1
    24    8   38 1
    25    8   39 1
    26    9   10 1
    27    9   40 1
    28    9   41 1
    29   10   11 1
    30   10   42 1
    31   10   43 1
    32   11   12 1
    33   11   44 1
    34   11   45 1
    35   12   13 1
    36   12   46 1
    37   12   47 1
    38   13   14 1
    39   13   48 1
    40   13   49 1
    41   14   15 1
    42   14   50 1
    43   14   51 1
    44   15   16 1
    45   15   52 1
    46   15   53 1
    47   16   17 1
    48   16   54 1
    49   16   55 1
    50   17   18 1
    51   17   56 1
    52   17   57 1
    53   18   19 1
    54   18   58 1
    55   18   59 1
    56   19   20 1
    57   19   21 1
    58   19   22 1
    59   20   60 1
    60   20   61 1
    61   20   62 1
    62   21   63 1
    63   21   64 1
    64   21   65 1
    65   22   66 1
    66   22   67 1
    67   22   68 1
@<TRIPOS>MOLECULE
ZINC06845519
   56    55     0     0     0
SMALL
USER_CHARGES
trimethyl-tetradecyl-ammonium
@<TRIPOS>ATOM
      1 C1          0.1777    1.3512   17.4482 C.3       1 <0>        -0.1549
      2 C2         -0.5623    1.8580   16.2087 C.3       1 <0>        -0.1262
      3 C3          0.1538    1.3646   14.9499 C.3       1 <0>        -0.1214
      4 C4         -0.5862    1.8714   13.7104 C.3       1 <0>        -0.1213
      5 C5          0.1300    1.3780   12.4516 C.3       1 <0>        -0.1208
      6 C6         -0.6100    1.8849   11.2120 C.3       1 <0>        -0.1210
      7 C7          0.1061    1.3914    9.9532 C.3       1 <0>        -0.1209
      8 C8         -0.6339    1.8983    8.7137 C.3       1 <0>        -0.1212
      9 C9          0.0823    1.4049    7.4549 C.3       1 <0>        -0.1210
     10 C10        -0.6577    1.9117    6.2154 C.3       1 <0>        -0.1218
     11 C11         0.0584    1.4183    4.9566 C.3       1 <0>        -0.1207
     12 C12        -0.6816    1.9251    3.7170 C.3       1 <0>        -0.1181
     13 C13         0.0346    1.4317    2.4582 C.3       1 <0>        -0.1507
     14 C14        -0.7054    1.9385    1.2187 C.3       1 <0>        -0.0094
     15 N1         -0.0178    1.4648    0.0101 N.4       1 <0>        -0.2715
     16 C15         0.0021   -0.0041    0.0020 C.3       1 <0>        -0.0506
     17 C16         1.3603    1.9732   -0.0003 C.3       1 <0>        -0.0506
     18 C17        -0.7283    1.9514   -1.1800 C.3       1 <0>        -0.0451
     19 H1         -0.3325    1.7027   18.3450 H         1 <0>         0.0546
     20 H2          0.1925    0.2613   17.4422 H         1 <0>         0.0536
     21 H3          1.2003    1.7285   17.4405 H         1 <0>         0.0536
     22 H4         -0.5771    2.9479   16.2147 H         1 <0>         0.0604
     23 H5         -1.5849    1.4807   16.2164 H         1 <0>         0.0604
     24 H6          0.1686    0.2747   14.9439 H         1 <0>         0.0607
     25 H7          1.1764    1.7419   14.9421 H         1 <0>         0.0607
     26 H8         -0.6009    2.9613   13.7164 H         1 <0>         0.0607
     27 H9         -1.6088    1.4942   13.7181 H         1 <0>         0.0607
     28 H10         0.1448    0.2881   12.4456 H         1 <0>         0.0606
     29 H11         1.1526    1.7553   12.4438 H         1 <0>         0.0606
     30 H12        -0.6248    2.9747   11.2180 H         1 <0>         0.0608
     31 H13        -1.6326    1.5076   11.2198 H         1 <0>         0.0608
     32 H14         0.1209    0.3016    9.9472 H         1 <0>         0.0608
     33 H15         1.1287    1.7687    9.9455 H         1 <0>         0.0608
     34 H16        -0.6486    2.9882    8.7197 H         1 <0>         0.0613
     35 H17        -1.6565    1.5210    8.7214 H         1 <0>         0.0613
     36 H18         0.0971    0.3150    7.4489 H         1 <0>         0.0616
     37 H19         1.1049    1.7821    7.4472 H         1 <0>         0.0616
     38 H20        -0.6725    3.0016    6.2214 H         1 <0>         0.0635
     39 H21        -1.6803    1.5344    6.2231 H         1 <0>         0.0635
     40 H22         0.0732    0.3284    4.9506 H         1 <0>         0.0652
     41 H23         1.0810    1.7956    4.9488 H         1 <0>         0.0652
     42 H24        -0.6964    3.0150    3.7230 H         1 <0>         0.0731
     43 H25        -1.7042    1.5478    3.7248 H         1 <0>         0.0731
     44 H26         0.0493    0.3418    2.4522 H         1 <0>         0.0870
     45 H27         1.0572    1.8090    2.4505 H         1 <0>         0.0870
     46 H28        -0.7202    3.0284    1.2247 H         1 <0>         0.1279
     47 H29        -1.7280    1.5612    1.2264 H         1 <0>         0.1279
     48 H30         0.5293   -0.3651    0.8851 H         1 <0>         0.1231
     49 H31        -1.0205   -0.3814    0.0098 H         1 <0>         0.1215
     50 H32         0.5123   -0.3556   -0.8948 H         1 <0>         0.1221
     51 H33         1.8705    1.6217   -0.8971 H         1 <0>         0.1221
     52 H34         1.3455    3.0631    0.0057 H         1 <0>         0.1215
     53 H35         1.8875    1.6122    0.8827 H         1 <0>         0.1232
     54 H36        -1.7509    1.5741   -1.1723 H         1 <0>         0.1212
     55 H37        -0.7431    3.0413   -1.1740 H         1 <0>         0.1211
     56 H38        -0.2181    1.5999   -2.0768 H         1 <0>         0.1223
@<TRIPOS>BOND
     1    1    2 1
     2    1   19 1
     3    1   20 1
     4    1   21 1
     5    2    3 1
     6    2   22 1
     7    2   23 1
     8    3    4 1
     9    3   24 1
    10    3   25 1
    11    4    5 1
    12    4   26 1
    13    4   27 1
    14    5    6 1
    15    5   28 1
    16    5   29 1
    17    6    7 1
    18    6   30 1
    19    6   31 1
    20    7    8 1
    21    7   32 1
    22    7   33 1
    23    8    9 1
    24    8   34 1
    25    8   35 1
    26    9   10 1
    27    9   36 1
    28    9   37 1
    29   10   11 1
    30   10   38 1
    31   10   39 1
    32   11   12 1
    33   11   40 1
    34   11   41 1
    35   12   13 1
    36   12   42 1
    37   12   43 1
    38   13   14 1
    39   13   44 1
    40   13   45 1
    41   14   15 1
    42   14   46 1
    43   14   47 1
    44   15   16 1
    45   15   17 1
    46   15   18 1
    47   16   48 1
    48   16   49 1
    49   16   50 1
    50   17   51 1
    51   17   52 1
    52   17   53 1
    53   18   54 1
    54   18   55 1
    55   18   56 1
@<TRIPOS>MOLECULE
ZINC36177047
   60    59     0     0     0
SMALL
USER_CHARGES

@<TRIPOS>ATOM
      1 C1         -3.3261    2.7129    4.2871 C.3       1 <0>        -0.1549
      2 C2         -3.0109    1.2247    4.1238 C.3       1 <0>        -0.1262
      3 C3         -4.2689    0.4842    3.6655 C.3       1 <0>        -0.1214
      4 C4         -3.9536   -1.0040    3.5022 C.3       1 <0>        -0.1213
      5 C5         -5.2116   -1.7445    3.0439 C.3       1 <0>        -0.1208
      6 C6         -4.8964   -3.2328    2.8806 C.3       1 <0>        -0.1209
      7 C7         -6.1544   -3.9733    2.4223 C.3       1 <0>        -0.1208
      8 C8         -5.8391   -5.4615    2.2590 C.3       1 <0>        -0.1212
      9 C9         -7.0971   -6.2020    1.8007 C.3       1 <0>        -0.1210
     10 C10        -6.7819   -7.6902    1.6374 C.3       1 <0>        -0.1216
     11 C11        -8.0399   -8.4307    1.1791 C.3       1 <0>        -0.1207
     12 C12        -7.7246   -9.9190    1.0158 C.3       1 <0>        -0.1178
     13 C13        -8.9826  -10.6595    0.5575 C.3       1 <0>        -0.1498
     14 C14        -8.6674  -12.1477    0.3942 C.3       1 <0>        -0.0098
     15 N1         -9.8752  -12.8587   -0.0458 N.4       1 <0>        -0.2657
     16 C15       -10.9354  -12.6898    0.9569 C.3       1 <0>        -0.0567
     17 C16       -10.3255  -12.3095   -1.3318 C.3       1 <0>        -0.0516
     18 C17        -9.5725  -14.2876   -0.2026 C.3       1 <0>        -0.0044
     19 C18       -10.8574  -15.0471   -0.5390 C.3       1 <0>         0.0455
     20 O1        -11.3122  -14.6620   -1.8378 O.3       1 <0>        -0.5735
     21 H1         -2.4299    3.2405    4.6136 H         1 <0>         0.0545
     22 H2         -3.6602    3.1204    3.3329 H         1 <0>         0.0536
     23 H3         -4.1128    2.8382    5.0311 H         1 <0>         0.0536
     24 H4         -2.2242    1.0994    3.3798 H         1 <0>         0.0604
     25 H5         -2.6768    0.8172    5.0780 H         1 <0>         0.0604
     26 H6         -5.0556    0.6095    4.4095 H         1 <0>         0.0607
     27 H7         -4.6030    0.8916    2.7113 H         1 <0>         0.0607
     28 H8         -3.1669   -1.1293    2.7582 H         1 <0>         0.0607
     29 H9         -3.6195   -1.4115    4.4564 H         1 <0>         0.0607
     30 H10        -5.9983   -1.6193    3.7879 H         1 <0>         0.0606
     31 H11        -5.5457   -1.3371    2.0897 H         1 <0>         0.0606
     32 H12        -4.1097   -3.3580    2.1367 H         1 <0>         0.0608
     33 H13        -4.5623   -3.6402    3.8348 H         1 <0>         0.0608
     34 H14        -6.9411   -3.8480    3.1663 H         1 <0>         0.0608
     35 H15        -6.4885   -3.5658    1.4681 H         1 <0>         0.0608
     36 H16        -5.0524   -5.5868    1.5151 H         1 <0>         0.0613
     37 H17        -5.5050   -5.8690    3.2132 H         1 <0>         0.0612
     38 H18        -7.8838   -6.0767    2.5447 H         1 <0>         0.0615
     39 H19        -7.4312   -5.7945    0.8465 H         1 <0>         0.0616
     40 H20        -5.9952   -7.8155    0.8935 H         1 <0>         0.0634
     41 H21        -6.4478   -8.0977    2.5916 H         1 <0>         0.0633
     42 H22        -8.8266   -8.3055    1.9231 H         1 <0>         0.0652
     43 H23        -8.3739   -8.0233    0.2249 H         1 <0>         0.0653
     44 H24        -6.9379  -10.0442    0.2719 H         1 <0>         0.0731
     45 H25        -7.3905  -10.3264    1.9700 H         1 <0>         0.0728
     46 H26        -9.7693  -10.5342    1.3015 H         1 <0>         0.0868
     47 H27        -9.3167  -10.2520   -0.3967 H         1 <0>         0.0880
     48 H28        -7.8807  -12.2730   -0.3497 H         1 <0>         0.1274
     49 H29        -8.3333  -12.5551    1.3484 H         1 <0>         0.1267
     50 H30       -11.1600  -11.6296    1.0732 H         1 <0>         0.1248
     51 H31       -11.8316  -13.2174    0.6304 H         1 <0>         0.1228
     52 H32       -10.6013  -13.0973    1.9111 H         1 <0>         0.1208
     53 H33        -9.6066  -12.5685   -2.1091 H         1 <0>         0.1176
     54 H34       -11.2999  -12.7277   -1.5842 H         1 <0>         0.1403
     55 H35       -10.4040  -11.2250   -1.2562 H         1 <0>         0.1153
     56 H36        -8.8507  -14.4198   -1.0085 H         1 <0>         0.1348
     57 H37        -9.1545  -14.6745    0.7267 H         1 <0>         0.1392
     58 H38       -10.6597  -16.1190   -0.5263 H         1 <0>         0.0941
     59 H39       -11.6234  -14.8102    0.1993 H         1 <0>         0.0738
     60 H40       -12.1248  -15.1053   -2.1174 H         1 <0>         0.4040
@<TRIPOS>BOND
     1    1    2 1
     2    1   21 1
     3    1   22 1
     4    1   23 1
     5    2    3 1
     6    2   24 1
     7    2   25 1
     8    3    4 1
     9    3   26 1
    10    3   27 1
    11    4    5 1
    12    4   28 1
    13    4   29 1
    14    5    6 1
    15    5   30 1
    16    5   31 1
    17    6    7 1
    18    6   32 1
    19    6   33 1
    20    7    8 1
    21    7   34 1
    22    7   35 1
    23    8    9 1
    24    8   36 1
    25    8   37 1
    26    9   10 1
    27    9   38 1
    28    9   39 1
    29   10   11 1
    30   10   40 1
    31   10   41 1
    32   11   12 1
    33   11   42 1
    34   11   43 1
    35   12   13 1
    36   12   44 1
    37   12   45 1
    38   13   14 1
    39   13   46 1
    40   13   47 1
    41   14   15 1
    42   14   48 1
    43   14   49 1
    44   15   16 1
    45   15   17 1
    46   15   18 1
    47   16   50 1
    48   16   51 1
    49   16   52 1
    50   17   53 1
    51   17   54 1
    52   17   55 1
    53   18   19 1
    54   18   56 1
    55   18   57 1
    56   19   20 1
    57   19   58 1
    58   19   59 1
    59   20   60 1
@<TRIPOS>MOLECULE
ZINC00257134
   41    43     0     0     0
SMALL
USER_CHARGES
3-hydroxy-N-[(3-hydroxy-4-methoxy-phenyl)methyleneamino]naphthalene-2-carboxamide
@<TRIPOS>ATOM
      1 C1        -11.1224    7.2470    0.1549 C.3       1 <0>         0.0223
      2 O1         -9.9459    8.0580    0.1471 O.3       1 <0>        -0.3053
      3 C2         -8.7505    7.4110    0.1312 C.ar      1 <0>         0.1224
      4 C3         -8.7144    6.0242    0.1230 C.ar      1 <0>        -0.2008
      5 C4         -7.5046    5.3628    0.1015 C.ar      1 <0>        -0.0421
      6 C5         -6.3112    6.0896    0.0989 C.ar      1 <0>        -0.0810
      7 C6         -6.3480    7.4864    0.1067 C.ar      1 <0>        -0.0751
      8 C7         -7.5647    8.1423    0.1229 C.ar      1 <0>         0.0698
      9 O2         -7.6042    9.5017    0.1310 O.3       1 <0>        -0.4837
     10 C8         -5.0167    5.3846    0.0817 C.2       1 <0>         0.1170
     11 N1         -4.9844    4.0869    0.0745 N.2       1 <0>        -0.2279
     12 N2         -3.7541    3.4169    0.0582 N.am      1 <0>        -0.5826
     13 C9         -3.7205    2.0696    0.0506 C.2       1 <0>         0.5760
     14 O3         -4.7583    1.4354    0.0579 O.2       1 <0>        -0.4783
     15 C10        -2.4250    1.3640    0.0335 C.ar      1 <0>        -0.1535
     16 C11        -1.2451    2.0909    0.0310 C.ar      1 <0>        -0.0464
     17 C12        -0.0172    1.4148    0.0098 C.ar      1 <0>        -0.0718
     18 C13         1.1999    2.1208    0.0020 C.ar      1 <0>        -0.0956
     19 C14         2.3757    1.4363   -0.0133 C.ar      1 <0>        -0.1181
     20 C15         2.3944    0.0425   -0.0205 C.ar      1 <0>        -0.0982
     21 C16         1.2376   -0.6745   -0.0134 C.ar      1 <0>        -0.1134
     22 C17         0.0021   -0.0041    0.0020 C.ar      1 <0>        -0.0148
     23 C18        -1.2078   -0.7176    0.0102 C.ar      1 <0>        -0.1402
     24 C19        -2.3950   -0.0467    0.0256 C.ar      1 <0>         0.1643
     25 O4         -3.5600   -0.7432    0.0330 O.3       1 <0>        -0.4775
     26 H1        -11.1392    6.6225   -0.7383 H         1 <0>         0.0586
     27 H2        -11.1208    6.6130    1.0416 H         1 <0>         0.0590
     28 H3        -12.0047    7.8869    0.1675 H         1 <0>         0.1039
     29 H4         -9.6360    5.4612    0.1292 H         1 <0>         0.1384
     30 H5         -7.4794    4.2831    0.0910 H         1 <0>         0.1422
     31 H6         -5.4281    8.0522    0.1006 H         1 <0>         0.1431
     32 H7         -7.6246    9.8998   -0.7500 H         1 <0>         0.3883
     33 H8         -4.0952    5.9478    0.0752 H         1 <0>         0.1222
     34 H9         -2.9264    3.9227    0.0523 H         1 <0>         0.3839
     35 H10        -1.2715    3.1706    0.0371 H         1 <0>         0.1338
     36 H11         1.2008    3.2008    0.0078 H         1 <0>         0.1313
     37 H12         3.3083    1.9810   -0.0197 H         1 <0>         0.1283
     38 H13         3.3415   -0.4765   -0.0323 H         1 <0>         0.1286
     39 H14         1.2687   -1.7541   -0.0198 H         1 <0>         0.1329
     40 H15        -1.1979   -1.7976    0.0046 H         1 <0>         0.1434
     41 H16        -3.8890   -0.9500    0.9185 H         1 <0>         0.3969
@<TRIPOS>BOND
     1    1    2 1
     2    1   26 1
     3    1   27 1
     4    1   28 1
     5    2    3 1
     6    3    8 ar
     7    3    4 ar
     8    4    5 ar
     9    4   29 1
    10    5    6 ar
    11    5   30 1
    12    6    7 ar
    13    6   10 1
    14    7    8 ar
    15    7   31 1
    16    8    9 1
    17    9   32 1
    18   10   11 2
    19   10   33 1
    20   11   12 1
    21   12   13 am
    22   12   34 1
    23   13   14 2
    24   13   15 1
    25   15   24 ar
    26   15   16 ar
    27   16   17 ar
    28   16   35 1
    29   17   22 ar
    30   17   18 ar
    31   18   19 ar
    32   18   36 1
    33   19   20 ar
    34   19   37 1
    35   20   21 ar
    36   20   38 1
    37   21   22 ar
    38   21   39 1
    39   22   23 ar
    40   23   24 ar
    41   23   40 1
    42   24   25 1
    43   25   41 1
@<TRIPOS>MOLECULE
ZINC06846023
   62    61     0     0     0
SMALL
USER_CHARGES
hexadecyl-trimethyl-ammonium
@<TRIPOS>ATOM
      1 C1          0.2015    1.3378   19.9465 C.3       1 <0>        -0.1548
      2 C2         -0.5384    1.8446   18.7070 C.3       1 <0>        -0.1261
      3 C3          0.1777    1.3512   17.4482 C.3       1 <0>        -0.1214
      4 C4         -0.5623    1.8580   16.2087 C.3       1 <0>        -0.1213
      5 C5          0.1538    1.3646   14.9499 C.3       1 <0>        -0.1208
      6 C6         -0.5862    1.8714   13.7104 C.3       1 <0>        -0.1208
      7 C7          0.1300    1.3780   12.4516 C.3       1 <0>        -0.1207
      8 C8         -0.6100    1.8849   11.2120 C.3       1 <0>        -0.1209
      9 C9          0.1061    1.3914    9.9532 C.3       1 <0>        -0.1208
     10 C10        -0.6339    1.8983    8.7137 C.3       1 <0>        -0.1212
     11 C11         0.0823    1.4049    7.4549 C.3       1 <0>        -0.1210
     12 C12        -0.6577    1.9117    6.2154 C.3       1 <0>        -0.1218
     13 C13         0.0584    1.4183    4.9566 C.3       1 <0>        -0.1207
     14 C14        -0.6816    1.9251    3.7170 C.3       1 <0>        -0.1181
     15 C15         0.0346    1.4317    2.4582 C.3       1 <0>        -0.1507
     16 C16        -0.7054    1.9385    1.2187 C.3       1 <0>        -0.0094
     17 N1         -0.0178    1.4648    0.0101 N.4       1 <0>        -0.2715
     18 C17         0.0021   -0.0041    0.0020 C.3       1 <0>        -0.0506
     19 C18         1.3603    1.9732   -0.0003 C.3       1 <0>        -0.0507
     20 C19        -0.7283    1.9514   -1.1800 C.3       1 <0>        -0.0451
     21 H1          1.2241    1.7150   19.9388 H         1 <0>         0.0535
     22 H2         -0.3086    1.6893   20.8433 H         1 <0>         0.0543
     23 H3          0.2163    0.2479   19.9406 H         1 <0>         0.0535
     24 H4         -0.5532    2.9345   18.7130 H         1 <0>         0.0604
     25 H5         -1.5610    1.4673   18.7148 H         1 <0>         0.0604
     26 H6          0.1925    0.2613   17.4422 H         1 <0>         0.0606
     27 H7          1.2003    1.7285   17.4405 H         1 <0>         0.0606
     28 H8         -0.5771    2.9479   16.2147 H         1 <0>         0.0606
     29 H9         -1.5849    1.4807   16.2164 H         1 <0>         0.0606
     30 H10         0.1686    0.2747   14.9439 H         1 <0>         0.0605
     31 H11         1.1764    1.7419   14.9421 H         1 <0>         0.0605
     32 H12        -0.6009    2.9613   13.7164 H         1 <0>         0.0606
     33 H13        -1.6088    1.4942   13.7181 H         1 <0>         0.0606
     34 H14         0.1448    0.2881   12.4456 H         1 <0>         0.0606
     35 H15         1.1526    1.7553   12.4438 H         1 <0>         0.0606
     36 H16        -0.6248    2.9747   11.2180 H         1 <0>         0.0608
     37 H17        -1.6326    1.5076   11.2198 H         1 <0>         0.0608
     38 H18         0.1209    0.3016    9.9472 H         1 <0>         0.0608
     39 H19         1.1287    1.7687    9.9455 H         1 <0>         0.0608
     40 H20        -0.6486    2.9882    8.7197 H         1 <0>         0.0613
     41 H21        -1.6565    1.5210    8.7214 H         1 <0>         0.0613
     42 H22         0.0971    0.3150    7.4489 H         1 <0>         0.0616
     43 H23         1.1049    1.7821    7.4472 H         1 <0>         0.0616
     44 H24        -0.6725    3.0016    6.2214 H         1 <0>         0.0635
     45 H25        -1.6803    1.5344    6.2231 H         1 <0>         0.0635
     46 H26         0.0732    0.3284    4.9506 H         1 <0>         0.0652
     47 H27         1.0810    1.7956    4.9488 H         1 <0>         0.0652
     48 H28        -0.6964    3.0150    3.7230 H         1 <0>         0.0731
     49 H29        -1.7042    1.5478    3.7248 H         1 <0>         0.0731
     50 H30         0.0493    0.3418    2.4522 H         1 <0>         0.0870
     51 H31         1.0572    1.8090    2.4505 H         1 <0>         0.0870
     52 H32        -0.7202    3.0284    1.2247 H         1 <0>         0.1279
     53 H33        -1.7280    1.5612    1.2264 H         1 <0>         0.1279
     54 H34         0.5293   -0.3651    0.8851 H         1 <0>         0.1232
     55 H35        -1.0205   -0.3814    0.0098 H         1 <0>         0.1215
     56 H36         0.5123   -0.3556   -0.8948 H         1 <0>         0.1221
     57 H37         1.8705    1.6217   -0.8971 H         1 <0>         0.1221
     58 H38         1.3455    3.0631    0.0057 H         1 <0>         0.1215
     59 H39         1.8875    1.6122    0.8827 H         1 <0>         0.1232
     60 H40        -1.7509    1.5741   -1.1723 H         1 <0>         0.1211
     61 H41        -0.7431    3.0413   -1.1740 H         1 <0>         0.1211
     62 H42        -0.2181    1.5999   -2.0768 H         1 <0>         0.1223
@<TRIPOS>BOND
     1    1    2 1
     2    1   21 1
     3    1   22 1
     4    1   23 1
     5    2    3 1
     6    2   24 1
     7    2   25 1
     8    3    4 1
     9    3   26 1
    10    3   27 1
    11    4    5 1
    12    4   28 1
    13    4   29 1
    14    5    6 1
    15    5   30 1
    16    5   31 1
    17    6    7 1
    18    6   32 1
    19    6   33 1
    20    7    8 1
    21    7   34 1
    22    7   35 1
    23    8    9 1
    24    8   36 1
    25    8   37 1
    26    9   10 1
    27    9   38 1
    28    9   39 1
    29   10   11 1
    30   10   40 1
    31   10   41 1
    32   11   12 1
    33   11   42 1
    34   11   43 1
    35   12   13 1
    36   12   44 1
    37   12   45 1
    38   13   14 1
    39   13   46 1
    40   13   47 1
    41   14   15 1
    42   14   48 1
    43   14   49 1
    44   15   16 1
    45   15   50 1
    46   15   51 1
    47   16   17 1
    48   16   52 1
    49   16   53 1
    50   17   18 1
    51   17   19 1
    52   17   20 1
    53   18   54 1
    54   18   55 1
    55   18   56 1
    56   19   57 1
    57   19   58 1
    58   19   59 1
    59   20   60 1
    60   20   61 1
    61   20   62 1
@<TRIPOS>MOLECULE
ZINC01545440
   47    46     0     0     0
SMALL
USER_CHARGES
tetradecan-1-amine
@<TRIPOS>ATOM
      1 C1        -15.5742    0.6675   -7.8556 C.3       1 <0>        -0.1549
      2 C2        -14.1628    1.2563   -7.8998 C.3       1 <0>        -0.1262
      3 C3        -13.3464    0.7126   -6.7256 C.3       1 <0>        -0.1214
      4 C4        -11.9349    1.3014   -6.7698 C.3       1 <0>        -0.1213
      5 C5        -11.1185    0.7577   -5.5956 C.3       1 <0>        -0.1209
      6 C6         -9.7070    1.3465   -5.6398 C.3       1 <0>        -0.1210
      7 C7         -8.8906    0.8028   -4.4656 C.3       1 <0>        -0.1210
      8 C8         -7.4791    1.3916   -4.5098 C.3       1 <0>        -0.1212
      9 C9         -6.6627    0.8479   -3.3356 C.3       1 <0>        -0.1213
     10 C10        -5.2512    1.4367   -3.3798 C.3       1 <0>        -0.1221
     11 C11        -4.4348    0.8930   -2.2056 C.3       1 <0>        -0.1216
     12 C12        -3.0234    1.4818   -2.2498 C.3       1 <0>        -0.1198
     13 C13        -2.2069    0.9381   -1.0756 C.3       1 <0>        -0.1536
     14 C14        -0.7955    1.5269   -1.1198 C.3       1 <0>        -0.0056
     15 H1        -15.5171   -0.4188   -7.9250 H         1 <0>         0.0536
     16 H2        -16.0553    0.9469   -6.9183 H         1 <0>         0.0536
     17 H3        -16.1559    1.0549   -8.6921 H         1 <0>         0.0546
     18 H4        -14.2199    2.3426   -7.8305 H         1 <0>         0.0604
     19 H5        -13.6817    0.9769   -8.8371 H         1 <0>         0.0604
     20 H6        -13.2892   -0.3737   -6.7950 H         1 <0>         0.0607
     21 H7        -13.8274    0.9920   -5.7883 H         1 <0>         0.0607
     22 H8        -11.9921    2.3877   -6.7004 H         1 <0>         0.0607
     23 H9        -11.4538    1.0220   -7.7071 H         1 <0>         0.0608
     24 H10       -11.0613   -0.3286   -5.6650 H         1 <0>         0.0607
     25 H11       -11.5996    1.0371   -4.6583 H         1 <0>         0.0607
     26 H12        -9.7642    2.4328   -5.5704 H         1 <0>         0.0608
     27 H13        -9.2259    1.0671   -6.5771 H         1 <0>         0.0609
     28 H14        -8.8334   -0.2835   -4.5350 H         1 <0>         0.0609
     29 H15        -9.3717    1.0822   -3.5283 H         1 <0>         0.0609
     30 H16        -7.5363    2.4779   -4.4404 H         1 <0>         0.0614
     31 H17        -6.9981    1.1122   -5.4471 H         1 <0>         0.0614
     32 H18        -6.6055   -0.2384   -3.4050 H         1 <0>         0.0617
     33 H19        -7.1438    1.1273   -2.3983 H         1 <0>         0.0617
     34 H20        -5.3084    2.5230   -3.3104 H         1 <0>         0.0636
     35 H21        -4.7702    1.1573   -4.3171 H         1 <0>         0.0636
     36 H22        -4.3777   -0.1933   -2.2750 H         1 <0>         0.0657
     37 H23        -4.9159    1.1724   -1.2683 H         1 <0>         0.0657
     38 H24        -3.0805    2.5681   -2.1804 H         1 <0>         0.0739
     39 H25        -2.5423    1.2024   -3.1871 H         1 <0>         0.0740
     40 H26        -2.1498   -0.1482   -1.1450 H         1 <0>         0.0873
     41 H27        -2.6880    1.2175   -0.1383 H         1 <0>         0.0869
     42 H28        -0.8526    2.6132   -1.0504 H         1 <0>         0.1314
     43 H29        -0.3144    1.2475   -2.0571 H         1 <0>         0.1343
     44 H30         0.0021   -0.0041    0.0020 H         1 <0>         0.4371
     45 H31         0.9253    1.3792    0.0006 H         1 <0>         0.4402
     46 N1         -0.0252    1.0139    0.0269 N.4       1 <0>        -0.6477
     47 H32        -0.4761    1.3157    0.8986 H         1 <0>         0.4394
@<TRIPOS>BOND
     1    1    2 1
     2    1   15 1
     3    1   16 1
     4    1   17 1
     5    2    3 1
     6    2   18 1
     7    2   19 1
     8    3    4 1
     9    3   20 1
    10    3   21 1
    11    4    5 1
    12    4   22 1
    13    4   23 1
    14    5    6 1
    15    5   24 1
    16    5   25 1
    17    6    7 1
    18    6   26 1
    19    6   27 1
    20    7    8 1
    21    7   28 1
    22    7   29 1
    23    8    9 1
    24    8   30 1
    25    8   31 1
    26    9   10 1
    27    9   32 1
    28    9   33 1
    29   10   11 1
    30   10   34 1
    31   10   35 1
    32   11   12 1
    33   11   36 1
    34   11   37 1
    35   12   13 1
    36   12   38 1
    37   12   39 1
    38   13   14 1
    39   13   40 1
    40   13   41 1
    41   14   42 1
    42   14   43 1
    43   14   46 1
    44   44   46 1
    45   45   46 1
    46   46   47 1
@<TRIPOS>MOLECULE
ZINC49872225
   67    68     0     0     0
SMALL
USER_CHARGES

@<TRIPOS>ATOM
      1 C1         -1.1998    1.3411   -0.4928 C.3       1 <0>        -0.1548
      2 C2         -1.0098   -0.1757   -0.4281 C.3       1 <0>        -0.1264
      3 C3         -0.2506   -0.6480   -1.6696 C.3       1 <0>        -0.1211
      4 C4         -0.0606   -2.1648   -1.6049 C.3       1 <0>        -0.1217
      5 C5          0.6985   -2.6371   -2.8465 C.3       1 <0>        -0.1194
      6 C6          0.8886   -4.1539   -2.7818 C.3       1 <0>        -0.1172
      7 C7          1.6477   -4.6262   -4.0233 C.3       1 <0>        -0.1330
      8 C8          1.8378   -6.1430   -3.9586 C.3       1 <0>         0.1177
      9 N1          2.5646   -6.5953   -5.1474 N.am      1 <0>        -0.7275
     10 C9          2.8480   -7.9032   -5.3070 C.2       1 <0>         0.5756
     11 O1          2.5001   -8.7085   -4.4636 O.2       1 <0>        -0.5298
     12 C10         3.5765   -8.3565   -6.4985 C.2       1 <0>        -0.1761
     13 C11         3.8675   -9.6996   -6.6624 C.2       1 <0>         0.1259
     14 C12         4.4337  -10.1571   -7.8732 C.2       1 <0>        -0.1942
     15 C13         4.4544   -9.4913   -9.0840 C.2       1 <0>         0.1108
     16 N2          5.0833  -10.2480  -10.0042 N.pl3     1 <0>        -0.4635
     17 C14         5.5052  -11.4404   -9.4510 C.ar      1 <0>         0.0786
     18 C15         5.1285  -11.4406   -8.0987 C.ar      1 <0>        -0.0688
     19 C16         5.4346  -12.5287   -7.2877 C.ar      1 <0>        -0.0709
     20 C17         6.1131  -13.6055   -7.8176 C.ar      1 <0>        -0.1236
     21 C18         6.4895  -13.6063   -9.1522 C.ar      1 <0>        -0.0925
     22 C19         6.1848  -12.5382   -9.9685 C.ar      1 <0>        -0.1257
     23 C20         5.2905   -9.8590  -11.4014 C.3       1 <0>         0.1085
     24 C21         4.1690  -10.4407  -12.2644 C.3       1 <0>        -0.1736
     25 C22         4.3854  -10.0345  -13.7235 C.3       1 <0>        -0.0074
     26 N3          3.3087  -10.5930  -14.5522 N.4       1 <0>        -0.3867
     27 C23         3.4487  -10.1055  -15.9308 C.3       1 <0>        -0.0478
     28 C24         3.3925  -12.0596  -14.5406 C.3       1 <0>        -0.0541
     29 C25         3.9859   -7.4088   -7.4910 C.1       1 <0>         0.2623
     30 N4          4.3107   -6.6571   -8.2783 N.1       1 <0>        -0.4309
     31 H1         -0.2254    1.8281   -0.5300 H         1 <0>         0.0534
     32 H2         -1.7688    1.5981   -1.3863 H         1 <0>         0.0531
     33 H3         -1.7406    1.6776    0.3917 H         1 <0>         0.0545
     34 H4         -0.4408   -0.4328    0.4654 H         1 <0>         0.0610
     35 H5         -1.9842   -0.6627   -0.3909 H         1 <0>         0.0607
     36 H6         -0.8196   -0.3910   -2.5631 H         1 <0>         0.0602
     37 H7          0.7238   -0.1610   -1.7068 H         1 <0>         0.0607
     38 H8          0.5084   -2.4219   -0.7115 H         1 <0>         0.0625
     39 H9         -1.0350   -2.6518   -1.5677 H         1 <0>         0.0620
     40 H10         0.1295   -2.3801   -3.7399 H         1 <0>         0.0611
     41 H11         1.6730   -2.1501   -2.8837 H         1 <0>         0.0618
     42 H12         1.4576   -4.4110   -1.8883 H         1 <0>         0.0675
     43 H13        -0.0859   -4.6409   -2.7446 H         1 <0>         0.0669
     44 H14         1.0787   -4.3691   -4.9168 H         1 <0>         0.0681
     45 H15         2.6222   -4.1392   -4.0605 H         1 <0>         0.0693
     46 H16         2.4068   -6.4001   -3.0651 H         1 <0>         0.0738
     47 H17         0.8633   -6.6300   -3.9214 H         1 <0>         0.0731
     48 H18         2.8420   -5.9534   -5.8197 H         1 <0>         0.3980
     49 H19         3.6618  -10.3980   -5.8646 H         1 <0>         0.1636
     50 H20         4.0308   -8.5144   -9.2649 H         1 <0>         0.1819
     51 H21         5.1425  -12.5297   -6.2479 H         1 <0>         0.1347
     52 H22         6.3526  -14.4517   -7.1907 H         1 <0>         0.1339
     53 H23         7.0210  -14.4546   -9.5575 H         1 <0>         0.1325
     54 H24         6.4842  -12.5484  -11.0061 H         1 <0>         0.1183
     55 H25         5.2833   -8.7719  -11.4807 H         1 <0>         0.1059
     56 H26         6.2507  -10.2421  -11.7466 H         1 <0>         0.1043
     57 H27         4.1762  -11.5278  -12.1850 H         1 <0>         0.0987
     58 H28         3.2088  -10.0575  -11.9191 H         1 <0>         0.0963
     59 H29         4.3782   -8.9474  -13.8029 H         1 <0>         0.1360
     60 H30         5.3456  -10.4177  -14.0688 H         1 <0>         0.1350
     61 H31         4.4137  -10.4174  -16.3303 H         1 <0>         0.1235
     62 H32         2.6497  -10.5199  -16.5456 H         1 <0>         0.1269
     63 H33         3.3865   -9.0173  -15.9394 H         1 <0>         0.1247
     64 H34         3.2886  -12.4214  -13.5176 H         1 <0>         0.1235
     65 H35         2.5936  -12.4741  -15.1554 H         1 <0>         0.1273
     66 H36         4.3575  -12.3715  -14.9400 H         1 <0>         0.1242
     67 H37         2.4154  -10.3043  -14.1824 H         1 <0>         0.4284
@<TRIPOS>BOND
     1    1    2 1
     2    1   31 1
     3    1   32 1
     4    1   33 1
     5    2    3 1
     6    2   34 1
     7    2   35 1
     8    3    4 1
     9    3   36 1
    10    3   37 1
    11    4    5 1
    12    4   38 1
    13    4   39 1
    14    5    6 1
    15    5   40 1
    16    5   41 1
    17    6    7 1
    18    6   42 1
    19    6   43 1
    20    7    8 1
    21    7   44 1
    22    7   45 1
    23    8    9 1
    24    8   46 1
    25    8   47 1
    26    9   10 am
    27    9   48 1
    28   10   11 2
    29   10   12 1
    30   12   13 2
    31   12   29 1
    32   13   14 1
    33   13   49 1
    34   14   18 1
    35   14   15 2
    36   15   16 1
    37   15   50 1
    38   16   17 1
    39   16   23 1
    40   17   22 ar
    41   17   18 ar
    42   18   19 ar
    43   19   20 ar
    44   19   51 1
    45   20   21 ar
    46   20   52 1
    47   21   22 ar
    48   21   53 1
    49   22   54 1
    50   23   24 1
    51   23   55 1
    52   23   56 1
    53   24   25 1
    54   24   57 1
    55   24   58 1
    56   25   26 1
    57   25   59 1
    58   25   60 1
    59   26   27 1
    60   26   28 1
    61   26   67 1
    62   27   61 1
    63   27   62 1
    64   27   63 1
    65   28   64 1
    66   28   65 1
    67   28   66 1
    68   29   30 3
@<TRIPOS>MOLECULE
ZINC01645882
   53    54     0     0     0
SMALL
USER_CHARGES

@<TRIPOS>ATOM
      1 C1          2.1171    1.2753    0.1797 C.ar      1 <0>        -0.0677
      2 C2          1.1530    2.0383   -0.4942 C.ar      1 <0>        -0.1015
      3 C3          0.2121    1.4022   -1.3171 C.ar      1 <0>        -0.1050
      4 C4          0.2410    0.0302   -1.4584 C.ar      1 <0>         0.0807
      5 C5          1.2042   -0.7215   -0.7839 C.ar      1 <0>         0.1095
      6 C6          2.1371   -0.0931    0.0317 C.ar      1 <0>        -0.1354
      7 O1          1.2297   -2.0714   -0.9253 O.3       1 <0>        -0.4849
      8 O2         -0.6699   -0.5902   -2.2551 O.3       1 <0>        -0.4826
      9 C7          1.1282    3.4942   -0.3389 C.2       1 <0>         0.0753
     10 C8         -0.0631    4.1783   -0.4456 C.2       1 <0>        -0.1298
     11 C9         -0.0700    5.6495   -0.4368 C.2       1 <0>         0.5764
     12 O3          0.9761    6.2620   -0.3354 O.2       1 <0>        -0.5237
     13 N1         -1.2353    6.3186   -0.5412 N.am      1 <0>        -0.7257
     14 C10        -1.2421    7.7835   -0.5325 C.3       1 <0>         0.1234
     15 C11        -2.6807    8.2876   -0.6634 C.3       1 <0>        -0.1499
     16 C12        -2.6879    9.8176   -0.6543 C.3       1 <0>         0.1234
     17 N2         -4.0654   10.3002   -0.7796 N.am      1 <0>        -0.7257
     18 C13        -4.3168   11.6243   -0.7946 C.2       1 <0>         0.5764
     19 O4         -3.3998   12.4185   -0.7040 O.2       1 <0>        -0.5238
     20 C14        -5.7002   12.1090   -0.9205 C.2       1 <0>        -0.1299
     21 C15        -5.9572   13.4626   -0.9358 C.2       1 <0>         0.0754
     22 C16        -7.3392   13.9458   -0.9072 C.ar      1 <0>        -0.1015
     23 C17        -8.3354   13.1915   -0.2703 C.ar      1 <0>        -0.1048
     24 C18        -9.6354   13.6528   -0.2473 C.ar      1 <0>         0.0807
     25 C19        -9.9569   14.8666   -0.8563 C.ar      1 <0>         0.1096
     26 C20        -8.9714   15.6153   -1.4877 C.ar      1 <0>        -0.1354
     27 C21        -7.6701   15.1670   -1.5115 C.ar      1 <0>        -0.0677
     28 O5        -11.2373   15.3173   -0.8321 O.3       1 <0>        -0.4850
     29 O6        -10.6042   12.9240    0.3689 O.3       1 <0>        -0.4826
     30 C22        -6.7795   11.1740   -1.0272 C.1       1 <0>         0.2374
     31 N3         -7.6358   10.4323   -1.1118 N.1       1 <0>        -0.3944
     32 C23        -1.2946    3.4572   -0.5651 C.1       1 <0>         0.2374
     33 N4         -2.2714    2.8852   -0.6599 N.1       1 <0>        -0.3943
     34 H1          2.8463    1.7612    0.8109 H         1 <0>         0.1450
     35 H2         -0.5331    1.9848   -1.8384 H         1 <0>         0.1382
     36 H3          2.8803   -0.6800    0.5509 H         1 <0>         0.1439
     37 H4          1.7839   -2.3800   -1.6552 H         1 <0>         0.3941
     38 H5         -0.3868   -0.6872   -3.1747 H         1 <0>         0.3903
     39 H6          2.0437    4.0318   -0.1408 H         1 <0>         0.1707
     40 H7         -2.0694    5.8301   -0.6222 H         1 <0>         0.4016
     41 H8         -0.8148    8.1433    0.4035 H         1 <0>         0.0799
     42 H9         -0.6495    8.1546   -1.3687 H         1 <0>         0.0798
     43 H10        -3.1080    7.9279   -1.5994 H         1 <0>         0.0795
     44 H11        -3.2733    7.9165    0.1728 H         1 <0>         0.0795
     45 H12        -2.2606   10.1773    0.2818 H         1 <0>         0.0798
     46 H13        -2.0953   10.1887   -1.4905 H         1 <0>         0.0799
     47 H14        -4.7965    9.6669   -0.8519 H         1 <0>         0.4016
     48 H15        -5.1393   14.1672   -0.9688 H         1 <0>         0.1707
     49 H16        -8.0857   12.2521    0.2004 H         1 <0>         0.1381
     50 H17        -9.2262   16.5539   -1.9573 H         1 <0>         0.1439
     51 H18        -6.9054   15.7533   -1.9992 H         1 <0>         0.1450
     52 H19       -11.4448   15.8714   -0.0672 H         1 <0>         0.3941
     53 H20       -10.7208   13.1365    1.3050 H         1 <0>         0.3903
@<TRIPOS>BOND
     1    1    6 ar
     2    1    2 ar
     3    1   34 1
     4    2    3 ar
     5    2    9 1
     6    3    4 ar
     7    3   35 1
     8    4    5 ar
     9    4    8 1
    10    5    6 ar
    11    5    7 1
    12    6   36 1
    13    7   37 1
    14    8   38 1
    15    9   10 2
    16    9   39 1
    17   10   11 1
    18   10   32 1
    19   11   12 2
    20   11   13 am
    21   13   14 1
    22   13   40 1
    23   14   15 1
    24   14   41 1
    25   14   42 1
    26   15   16 1
    27   15   43 1
    28   15   44 1
    29   16   17 1
    30   16   45 1
    31   16   46 1
    32   17   18 am
    33   17   47 1
    34   18   19 2
    35   18   20 1
    36   20   21 2
    37   20   30 1
    38   21   22 1
    39   21   48 1
    40   22   27 ar
    41   22   23 ar
    42   23   24 ar
    43   23   49 1
    44   24   25 ar
    45   24   29 1
    46   25   26 ar
    47   25   28 1
    48   26   27 ar
    49   26   50 1
    50   27   51 1
    51   28   52 1
    52   29   53 1
    53   30   31 3
    54   32   33 3
