@<TRIPOS>MOLECULE
ZINC01649340
   52    54     0     0     0
SMALL
USER_CHARGES

@<TRIPOS>ATOM
      1 C1         -0.0187    1.5258    0.0104 C.3       1 <0>        -0.1531
      2 C2          0.0021   -0.0041    0.0020 C.3       1 <0>        -0.1278
      3 C3         -1.4333   -0.5336    0.0129 C.3       1 <0>         0.1689
      4 H1         -1.9701   -0.1109    0.8621 H         1 <0>         0.1030
      5 C4         -1.4133   -2.0590    0.1302 C.3       1 <0>         0.0625
      6 O1         -0.6117   -2.6069   -0.9183 O.3       1 <0>        -0.5692
      7 N1         -2.1054   -0.1483   -1.2305 N.pl3     1 <0>        -0.6816
      8 C5         -3.4856   -0.0365   -1.2658 C.ar      1 <0>         0.6305
      9 N2         -4.1766   -0.2783   -0.1589 N.ar      1 <0>        -0.6256
     10 C6         -5.5013   -0.1844   -0.1423 C.ar      1 <0>         0.5407
     11 C7         -6.1646    0.1788   -1.3275 C.ar      1 <0>        -0.1560
     12 C8         -5.3921    0.4251   -2.4741 C.ar      1 <0>         0.3485
     13 N3         -4.0693    0.3129   -2.4004 N.ar      1 <0>        -0.6161
     14 N4         -6.2808    0.7538   -3.4662 N.pl3     1 <0>        -0.4704
     15 C9         -7.5330    0.7038   -2.9264 C.2       1 <0>         0.2320
     16 N5         -7.4624    0.3664   -1.6720 N.2       1 <0>        -0.4548
     17 C10        -5.9467    1.0964   -4.8508 C.3       1 <0>         0.1344
     18 C11        -6.6196    0.1019   -5.7989 C.3       1 <0>        -0.1626
     19 C12        -6.4419    2.5107   -5.1599 C.3       1 <0>        -0.1626
     20 N6         -6.2133   -0.4389    1.0165 N.pl3     1 <0>        -0.6899
     21 C13        -5.5062   -0.8166    2.2427 C.3       1 <0>         0.1717
     22 C14        -6.5039   -1.0364    3.3505 C.ar      1 <0>        -0.1135
     23 C15        -6.8801    0.0183    4.1611 C.ar      1 <0>        -0.0982
     24 C16        -7.7953   -0.1833    5.1773 C.ar      1 <0>        -0.1219
     25 C17        -8.3347   -1.4394    5.3826 C.ar      1 <0>        -0.1101
     26 C18        -7.9592   -2.4939    4.5714 C.ar      1 <0>        -0.1221
     27 C19        -7.0472   -2.2913    3.5524 C.ar      1 <0>        -0.0986
     28 H2          1.0039    1.9031    0.0027 H         1 <0>         0.0563
     29 H3         -0.5459    1.8868   -0.8726 H         1 <0>         0.0552
     30 H4         -0.5289    1.8773    0.9072 H         1 <0>         0.0537
     31 H5          0.5123   -0.3556   -0.8948 H         1 <0>         0.0768
     32 H6          0.5293   -0.3651    0.8851 H         1 <0>         0.0774
     33 H7         -0.9936   -2.3437    1.0951 H         1 <0>         0.0524
     34 H8         -2.4301   -2.4431    0.0488 H         1 <0>         0.0503
     35 H9         -0.5540   -3.5721   -0.9058 H         1 <0>         0.3776
     36 H10        -1.5839    0.0285   -2.0291 H         1 <0>         0.4145
     37 H11        -8.4474    0.9139   -3.4613 H         1 <0>         0.2138
     38 H12        -4.8660    1.0524   -4.9853 H         1 <0>         0.1061
     39 H13        -7.7004    0.1459   -5.6644 H         1 <0>         0.0654
     40 H14        -6.3710    0.3568   -6.8291 H         1 <0>         0.0793
     41 H15        -6.2668   -0.9057   -5.5787 H         1 <0>         0.0629
     42 H16        -5.9625    3.2193   -4.4845 H         1 <0>         0.0629
     43 H17        -6.1933    2.7656   -6.1901 H         1 <0>         0.0793
     44 H18        -7.5227    2.5547   -5.0254 H         1 <0>         0.0654
     45 H19        -7.1807   -0.3672    1.0169 H         1 <0>         0.4195
     46 H20        -4.9460   -1.7357    2.0706 H         1 <0>         0.0763
     47 H21        -4.8186   -0.0196    2.5258 H         1 <0>         0.0773
     48 H22        -6.4587    0.9996    4.0008 H         1 <0>         0.1237
     49 H23        -8.0886    0.6405    5.8111 H         1 <0>         0.1245
     50 H24        -9.0492   -1.5971    6.1770 H         1 <0>         0.1237
     51 H25        -8.3804   -3.4753    4.7320 H         1 <0>         0.1244
     52 H26        -6.7567   -3.1143    2.9163 H         1 <0>         0.1232
@<TRIPOS>BOND
     1    1    2 1
     2    1   28 1
     3    1   29 1
     4    1   30 1
     5    2    3 1
     6    2   31 1
     7    2   32 1
     8    3    4 1
     9    3    5 1
    10    3    7 1
    11    5    6 1
    12    5   33 1
    13    5   34 1
    14    6   35 1
    15    7    8 1
    16    7   36 1
    17    8   13 ar
    18    8    9 ar
    19    9   10 ar
    20   10   11 ar
    21   10   20 1
    22   11   16 1
    23   11   12 ar
    24   12   13 ar
    25   12   14 1
    26   14   15 1
    27   14   17 1
    28   15   16 2
    29   15   37 1
    30   17   18 1
    31   17   19 1
    32   17   38 1
    33   18   39 1
    34   18   40 1
    35   18   41 1
    36   19   42 1
    37   19   43 1
    38   19   44 1
    39   20   21 1
    40   20   45 1
    41   21   22 1
    42   21   46 1
    43   21   47 1
    44   22   27 ar
    45   22   23 ar
    46   23   24 ar
    47   23   48 1
    48   24   25 ar
    49   24   49 1
    50   25   26 ar
    51   25   50 1
    52   26   27 ar
    53   26   51 1
    54   27   52 1
@<TRIPOS>MOLECULE
ZINC00921302
   54    56     0     0     0
SMALL
USER_CHARGES
diethyl 4-(4-acetylaminophenyl)aminoquinoline-3,6-dicarboxylate
@<TRIPOS>ATOM
      1 C1         -3.8135    0.5439    8.3988 C.3       1 <0>        -0.1536
      2 C2         -4.0928   -0.1722    7.0758 C.3       1 <0>         0.0628
      3 O1         -4.1948    0.8063    6.0079 O.3       1 <0>        -0.3521
      4 C3         -4.4404    0.3365    4.7692 C.2       1 <0>         0.5093
      5 O2         -4.5658   -0.8580    4.5863 O.2       1 <0>        -0.4978
      6 C4         -4.5508    1.2722    3.6338 C.ar      1 <0>        -0.1262
      7 C5         -4.4994    2.6585    3.8616 C.ar      1 <0>        -0.0403
      8 C6         -4.5937    3.5379    2.8309 C.ar      1 <0>        -0.1076
      9 C7         -4.7559    3.0700    1.5146 C.ar      1 <0>         0.1838
     10 C8         -4.8146    1.6749    1.2761 C.ar      1 <0>        -0.1386
     11 C9         -4.7109    0.7801    2.3452 C.ar      1 <0>         0.0051
     12 C10        -4.9782    1.2100   -0.0528 C.ar      1 <0>         0.3105
     13 C11        -5.0740    2.1699   -1.0740 C.ar      1 <0>        -0.1991
     14 C12        -5.0050    3.5320   -0.7430 C.ar      1 <0>         0.2017
     15 N1         -4.8538    3.9321    0.4941 N.ar      1 <0>        -0.4790
     16 C13        -5.2447    1.7523   -2.4738 C.2       1 <0>         0.5138
     17 O3         -5.4076    0.5779   -2.7422 O.2       1 <0>        -0.4819
     18 O4         -5.2205    2.6718   -3.4593 O.3       1 <0>        -0.3547
     19 C14        -5.4946    2.2024   -4.8057 C.3       1 <0>         0.0656
     20 C15        -5.3298    3.3598   -5.7927 C.3       1 <0>        -0.1541
     21 N2         -5.0405   -0.1353   -0.3331 N.pl3     1 <0>        -0.6974
     22 C16        -3.8628   -0.8628   -0.5357 C.ar      1 <0>         0.2030
     23 C17        -2.6434   -0.2023   -0.6162 C.ar      1 <0>        -0.1664
     24 C18        -1.4809   -0.9210   -0.8098 C.ar      1 <0>        -0.1002
     25 C19        -1.5317   -2.3031   -0.9361 C.ar      1 <0>         0.0961
     26 C20        -2.7514   -2.9630   -0.8618 C.ar      1 <0>        -0.0792
     27 C21        -3.9134   -2.2453   -0.6620 C.ar      1 <0>        -0.1524
     28 N3         -0.3524   -3.0317   -1.1380 N.am      1 <0>        -0.6695
     29 C22        -0.2525   -4.2937   -0.6757 C.2       1 <0>         0.5086
     30 O5         -1.2111   -4.8280   -0.1591 O.2       1 <0>        -0.5281
     31 C23         1.0502   -5.0411   -0.8006 C.3       1 <0>        -0.1702
     32 H1         -2.8773    1.0969    8.3220 H         1 <0>         0.0681
     33 H2         -4.6273    1.2357    8.6163 H         1 <0>         0.0681
     34 H3         -3.7370   -0.1907    9.2004 H         1 <0>         0.0825
     35 H4         -5.0290   -0.7252    7.1526 H         1 <0>         0.0728
     36 H5         -3.2790   -0.8639    6.8583 H         1 <0>         0.0728
     37 H6         -4.3791    3.0289    4.8689 H         1 <0>         0.1509
     38 H7         -4.5478    4.5996    3.0231 H         1 <0>         0.1522
     39 H8         -4.7545   -0.2848    2.1703 H         1 <0>         0.1512
     40 H9         -5.0788    4.2690   -1.5291 H         1 <0>         0.1805
     41 H10        -4.7972    1.4047   -5.0614 H         1 <0>         0.0726
     42 H11        -6.5152    1.8232   -4.8575 H         1 <0>         0.0714
     43 H12        -4.3092    3.7389   -5.7408 H         1 <0>         0.0679
     44 H13        -5.5355    3.0074   -6.8034 H         1 <0>         0.0820
     45 H14        -6.0272    4.1575   -5.5370 H         1 <0>         0.0686
     46 H15        -5.9009   -0.5794   -0.3902 H         1 <0>         0.4211
     47 H16        -2.6044    0.8729   -0.5228 H         1 <0>         0.1167
     48 H17        -0.5322   -0.4081   -0.8673 H         1 <0>         0.1259
     49 H18        -2.7907   -4.0378   -0.9601 H         1 <0>         0.1487
     50 H19        -4.8619   -2.7586   -0.6035 H         1 <0>         0.1286
     51 H20         0.3923   -2.6279   -1.6105 H         1 <0>         0.4101
     52 H21         1.7891   -4.4043   -1.2870 H         1 <0>         0.0778
     53 H22         1.4064   -5.3187    0.1914 H         1 <0>         0.0992
     54 H23         0.8972   -5.9408   -1.3967 H         1 <0>         0.0987
@<TRIPOS>BOND
     1    1    2 1
     2    1   32 1
     3    1   33 1
     4    1   34 1
     5    2    3 1
     6    2   35 1
     7    2   36 1
     8    3    4 1
     9    4    5 2
    10    4    6 1
    11    6   11 ar
    12    6    7 ar
    13    7    8 ar
    14    7   37 1
    15    8    9 ar
    16    8   38 1
    17    9   15 ar
    18    9   10 ar
    19   10   11 ar
    20   10   12 ar
    21   11   39 1
    22   12   13 ar
    23   12   21 1
    24   13   14 ar
    25   13   16 1
    26   14   15 ar
    27   14   40 1
    28   16   17 2
    29   16   18 1
    30   18   19 1
    31   19   20 1
    32   19   41 1
    33   19   42 1
    34   20   43 1
    35   20   44 1
    36   20   45 1
    37   21   22 1
    38   21   46 1
    39   22   27 ar
    40   22   23 ar
    41   23   24 ar
    42   23   47 1
    43   24   25 ar
    44   24   48 1
    45   25   26 ar
    46   25   28 1
    47   26   27 ar
    48   26   49 1
    49   27   50 1
    50   28   29 am
    51   28   51 1
    52   29   30 2
    53   29   31 1
    54   31   52 1
    55   31   53 1
    56   31   54 1
@<TRIPOS>MOLECULE
ZINC08766923
   36    38     0     0     0
SMALL
USER_CHARGES
1-(3-methoxyphenyl)-3-[5-(4-pyridyl)-1,3,4-thiadiazol-2-yl]urea
@<TRIPOS>ATOM
      1 C1          1.4667    5.4404    1.4188 C.3       1 <0>         0.0236
      2 O1          0.2117    4.7599    1.4825 O.3       1 <0>        -0.3167
      3 C2          0.0891    3.6220    0.7497 C.ar      1 <0>         0.1470
      4 C3          1.1557    3.1701   -0.0150 C.ar      1 <0>        -0.2211
      5 C4          1.0323    2.0136   -0.7609 C.ar      1 <0>        -0.0574
      6 C5         -0.1528    1.3034   -0.7481 C.ar      1 <0>        -0.1575
      7 C6         -1.2252    1.7539    0.0107 C.ar      1 <0>         0.2046
      8 C7         -1.1012    2.9124    0.7651 C.ar      1 <0>        -0.1793
      9 N1         -2.4274    1.0378    0.0192 N.am      1 <0>        -0.6862
     10 C8         -2.4124   -0.3054   -0.0900 C.2       1 <0>         0.7036
     11 O2         -1.3535   -0.9028   -0.0984 O.2       1 <0>        -0.5050
     12 N2         -3.5711   -0.9864   -0.1898 N.am      1 <0>        -0.6294
     13 C9         -3.5557   -2.3703   -0.3022 C.2       1 <0>         0.2911
     14 N3         -2.5252   -3.2015   -0.3367 N.2       1 <0>        -0.2878
     15 N4         -2.6782   -4.4503   -0.4400 N.2       1 <0>        -0.2180
     16 C10        -3.8952   -4.9724   -0.5288 C.2       1 <0>         0.0601
     17 S1         -4.8840   -3.4840   -0.4438 S.3       1 <0>         0.0634
     18 C11        -4.3146   -6.3832   -0.6609 C.ar      1 <0>         0.0393
     19 C12        -5.6699   -6.7272   -0.7349 C.ar      1 <0>        -0.1517
     20 C13        -6.0162   -8.0559   -0.8630 C.ar      1 <0>         0.1079
     21 N5         -5.0914   -8.9963   -0.9053 N.ar      1 <0>        -0.4747
     22 C14        -3.8038   -8.7163   -0.8337 C.ar      1 <0>         0.1080
     23 C15        -3.3680   -7.4138   -0.7098 C.ar      1 <0>        -0.1284
     24 H1          1.4297    6.3380    2.0536 H         1 <0>         0.1032
     25 H2          1.6717    5.7349    0.3790 H         1 <0>         0.0582
     26 H3          2.2646    4.7721    1.7748 H         1 <0>         0.0583
     27 H4          2.0832    3.7233   -0.0273 H         1 <0>         0.1304
     28 H5          1.8636    1.6643   -1.3553 H         1 <0>         0.1307
     29 H6         -0.2467    0.3997   -1.3320 H         1 <0>         0.1369
     30 H7         -1.9322    3.2625    1.3595 H         1 <0>         0.1349
     31 H8         -3.3846    1.5712    0.1150 H         1 <0>         0.4350
     32 H9         -4.5291   -0.4459   -0.1822 H         1 <0>         0.4550
     33 H10        -6.4323   -5.9632   -0.6963 H         1 <0>         0.1390
     34 H11        -7.0587   -8.3310   -0.9249 H         1 <0>         0.1656
     35 H12        -3.0814   -9.5182   -0.8723 H         1 <0>         0.1671
     36 H13        -2.3126   -7.1920   -0.6518 H         1 <0>         0.1502
@<TRIPOS>BOND
     1    1    2 1
     2    1   24 1
     3    1   25 1
     4    1   26 1
     5    2    3 1
     6    3    8 ar
     7    3    4 ar
     8    4    5 ar
     9    4   27 1
    10    5    6 ar
    11    5   28 1
    12    6    7 ar
    13    6   29 1
    14    7    8 ar
    15    7    9 1
    16    8   30 1
    17    9   10 am
    18    9   31 1
    19   10   11 2
    20   10   12 am
    21   12   13 1
    22   12   32 1
    23   13   17 1
    24   13   14 2
    25   14   15 1
    26   15   16 2
    27   16   17 1
    28   16   18 1
    29   18   23 ar
    30   18   19 ar
    31   19   20 ar
    32   19   33 1
    33   20   21 ar
    34   20   34 1
    35   21   22 ar
    36   22   23 ar
    37   22   35 1
    38   23   36 1
@<TRIPOS>MOLECULE
ZINC01144923
   40    43     0     0     0
SMALL
USER_CHARGES
N-(4-bromophenyl)-N'-(2-furylmethyl)quinazoline-2,4-diamine
@<TRIPOS>ATOM
      1 C1          2.2893    1.4163   -0.9282 C.ar      1 <0>        -0.1488
      2 C2          1.0591    2.0674   -0.9213 C.ar      1 <0>        -0.0625
      3 C3         -0.1007    1.3756   -0.7340 C.ar      1 <0>        -0.1232
      4 C4         -0.0559   -0.0125   -0.5453 C.ar      1 <0>         0.2281
      5 C5          1.1969   -0.6728   -0.5527 C.ar      1 <0>        -0.2276
      6 C6          2.3684    0.0665   -0.7475 C.ar      1 <0>        -0.0572
      7 C7          1.2178   -2.0769   -0.3604 C.ar      1 <0>         0.5117
      8 N1          0.0642   -2.7039   -0.1830 N.ar      1 <0>        -0.6256
      9 C8         -1.0908   -2.0445   -0.1832 C.ar      1 <0>         0.6054
     10 N2         -1.1675   -0.7388   -0.3575 N.ar      1 <0>        -0.5900
     11 N3         -2.2617   -2.7578    0.0075 N.pl3     1 <0>        -0.6373
     12 C9         -3.4803   -2.0823    0.1283 C.ar      1 <0>         0.1870
     13 C10        -3.5287   -0.8398    0.7471 C.ar      1 <0>        -0.1063
     14 C11        -4.7326   -0.1727    0.8604 C.ar      1 <0>        -0.0702
     15 C12        -5.8917   -0.7461    0.3683 C.ar      1 <0>        -0.1109
     16 C13        -5.8473   -1.9862   -0.2440 C.ar      1 <0>        -0.0688
     17 C14        -4.6453   -2.6553   -0.3651 C.ar      1 <0>        -0.1456
     18 Br1        -7.5395    0.1669    0.5323 Br        1 <0>        -0.0543
     19 N4          2.4078   -2.7724   -0.3585 N.pl3     1 <0>        -0.6930
     20 C15         2.4078   -4.2236   -0.1580 C.3       1 <0>         0.2122
     21 C16         3.8243   -4.7364   -0.1992 C.2       1 <0>        -0.0494
     22 C17         4.6489   -4.8553    0.8568 C.2       1 <0>        -0.1762
     23 C18         5.8699   -5.3729    0.3669 C.2       1 <0>        -0.2187
     24 C19         5.7184   -5.5394   -0.9593 C.2       1 <0>        -0.0228
     25 O1          4.4755   -5.1577   -1.2957 O.3       1 <0>        -0.1709
     26 H1          3.1934    1.9875   -1.0790 H         1 <0>         0.1285
     27 H2          1.0227    3.1369   -1.0669 H         1 <0>         0.1321
     28 H3         -1.0485    1.8934   -0.7355 H         1 <0>         0.1384
     29 H4          3.3286   -0.4279   -0.7552 H         1 <0>         0.1221
     30 H5         -2.2369   -3.7262    0.0573 H         1 <0>         0.4238
     31 H6         -2.6250   -0.3937    1.1354 H         1 <0>         0.1444
     32 H7         -4.7701    0.7956    1.3372 H         1 <0>         0.1341
     33 H8         -6.7535   -2.4310   -0.6278 H         1 <0>         0.1355
     34 H9         -4.6112   -3.6230   -0.8434 H         1 <0>         0.1333
     35 H10         3.2453   -2.3010   -0.4899 H         1 <0>         0.4167
     36 H11         1.9651   -4.4566    0.8104 H         1 <0>         0.1039
     37 H12         1.8260   -4.6994   -0.9475 H         1 <0>         0.0899
     38 H13         4.4220   -4.6031    1.8822 H         1 <0>         0.1519
     39 H14         6.7547   -5.5922    0.9462 H         1 <0>         0.1528
     40 H15         6.4675   -5.9204   -1.6376 H         1 <0>         0.2071
@<TRIPOS>BOND
     1    1    6 ar
     2    1    2 ar
     3    1   26 1
     4    2    3 ar
     5    2   27 1
     6    3    4 ar
     7    3   28 1
     8    4   10 ar
     9    4    5 ar
    10    5    6 ar
    11    5    7 ar
    12    6   29 1
    13    7    8 ar
    14    7   19 1
    15    8    9 ar
    16    9   10 ar
    17    9   11 1
    18   11   12 1
    19   11   30 1
    20   12   17 ar
    21   12   13 ar
    22   13   14 ar
    23   13   31 1
    24   14   15 ar
    25   14   32 1
    26   15   16 ar
    27   15   18 1
    28   16   17 ar
    29   16   33 1
    30   17   34 1
    31   19   20 1
    32   19   35 1
    33   20   21 1
    34   20   36 1
    35   20   37 1
    36   21   25 1
    37   21   22 2
    38   22   23 1
    39   22   38 1
    40   23   24 2
    41   23   39 1
    42   24   25 1
    43   24   40 1
@<TRIPOS>MOLECULE
ZINC00830943
   37    39     0     0     0
SMALL
USER_CHARGES
1-(3,4-dichlorophenyl)-4-[(4-hydroxy-3-methoxy-phenyl)methylene]pyrazolidine-3,5-dione
@<TRIPOS>ATOM
      1 C1          3.0893    2.5969    2.3384 C.3       1 <0>         0.0225
      2 O1          3.3082    1.5019    1.4468 O.3       1 <0>        -0.3058
      3 C2          2.2633    1.1269    0.6613 C.ar      1 <0>         0.0891
      4 C3          1.0603    1.7964    0.7486 C.ar      1 <0>        -0.1527
      5 C4         -0.0152    1.4062   -0.0630 C.ar      1 <0>        -0.0944
      6 C5          0.1398    0.3376   -0.9582 C.ar      1 <0>        -0.0534
      7 C6          1.3441   -0.3233   -1.0372 C.ar      1 <0>        -0.1183
      8 C7          2.4086    0.0647   -0.2322 C.ar      1 <0>         0.1131
      9 O2          3.5938   -0.5914   -0.3158 O.3       1 <0>        -0.4842
     10 C8         -1.2928    2.1156    0.0197 C.2       1 <0>         0.1297
     11 C9         -2.4774    1.4168   -0.0826 C.2       1 <0>        -0.2911
     12 C10        -2.6566   -0.0480   -0.1061 C.2       1 <0>         0.5702
     13 O3         -1.7782   -0.8869   -0.0387 O.2       1 <0>        -0.4772
     14 N1         -3.9787   -0.2778   -0.2170 N.am      1 <0>        -0.5173
     15 N2         -4.6833    0.9246   -0.2683 N.am      1 <0>        -0.3556
     16 C11        -3.8407    1.9717   -0.1857 C.2       1 <0>         0.5717
     17 O4         -4.1450    3.1496   -0.1969 O.2       1 <0>        -0.4753
     18 C12        -6.0737    1.0285   -0.3824 C.ar      1 <0>         0.1818
     19 C13        -6.8535   -0.1188   -0.4539 C.ar      1 <0>        -0.1410
     20 C14        -8.2259   -0.0141   -0.5666 C.ar      1 <0>        -0.0619
     21 C15        -8.8251    1.2325   -0.6089 C.ar      1 <0>        -0.0530
     22 C16        -8.0505    2.3782   -0.5379 C.ar      1 <0>         0.0032
     23 C17        -6.6769    2.2786   -0.4188 C.ar      1 <0>        -0.1307
     24 Cl1        -8.8057    3.9405   -0.5907 Cl        1 <0>        -0.0302
     25 Cl2       -10.5504    1.3603   -0.7518 Cl        1 <0>        -0.0399
     26 H1          2.2802    2.3498    3.0257 H         1 <0>         0.0570
     27 H2          4.0000    2.7921    2.9046 H         1 <0>         0.1043
     28 H3          2.8207    3.4842    1.7651 H         1 <0>         0.0574
     29 H4          0.9470    2.6187    1.4395 H         1 <0>         0.1407
     30 H5         -0.6856    0.0334   -1.5848 H         1 <0>         0.1345
     31 H6          1.4626   -1.1458   -1.7271 H         1 <0>         0.1430
     32 H7          4.2050   -0.2182   -0.9656 H         1 <0>         0.3929
     33 H8         -1.3079    3.1862    0.1608 H         1 <0>         0.1602
     34 H9         -4.3848   -1.1579   -0.2554 H         1 <0>         0.4396
     35 H10        -6.3867   -1.0922   -0.4217 H         1 <0>         0.1403
     36 H11        -8.8321   -0.9062   -0.6222 H         1 <0>         0.1536
     37 H12        -6.0733    3.1721   -0.3586 H         1 <0>         0.1770
@<TRIPOS>BOND
     1    1    2 1
     2    1   26 1
     3    1   27 1
     4    1   28 1
     5    2    3 1
     6    3    8 ar
     7    3    4 ar
     8    4    5 ar
     9    4   29 1
    10    5    6 ar
    11    5   10 1
    12    6    7 ar
    13    6   30 1
    14    7    8 ar
    15    7   31 1
    16    8    9 1
    17    9   32 1
    18   10   11 2
    19   10   33 1
    20   11   16 1
    21   11   12 1
    22   12   13 2
    23   12   14 am
    24   14   15 1
    25   14   34 1
    26   15   16 am
    27   15   18 1
    28   16   17 2
    29   18   23 ar
    30   18   19 ar
    31   19   20 ar
    32   19   35 1
    33   20   21 ar
    34   20   36 1
    35   21   22 ar
    36   21   25 1
    37   22   23 ar
    38   22   24 1
    39   23   37 1
