@<TRIPOS>MOLECULE
ZINC06627681
   39    40     0     0     0
SMALL
USER_CHARGES

@<TRIPOS>ATOM
      1 C1         -0.0173    1.4248    0.0099 C.3       1 <0>         0.0239
      2 O1          0.0021   -0.0041    0.0020 O.3       1 <0>        -0.3021
      3 C2         -1.2011   -0.6379    0.0101 C.ar      1 <0>         0.1549
      4 C3         -2.3748    0.1005    0.0195 C.ar      1 <0>        -0.2271
      5 C4         -3.5982   -0.5428    0.0277 C.ar      1 <0>        -0.0020
      6 C5         -3.6572   -1.9238    0.0266 C.ar      1 <0>        -0.2327
      7 C6         -2.4882   -2.6696    0.0172 C.ar      1 <0>         0.1543
      8 C7         -1.2561   -2.0266    0.0032 C.ar      1 <0>         0.0227
      9 O2         -0.1065   -2.7549   -0.0117 O.3       1 <0>        -0.3126
     10 C8          0.4536   -3.1089    1.2544 C.3       1 <0>         0.0351
     11 O3         -2.5472   -4.0282    0.0166 O.3       1 <0>        -0.3013
     12 C9         -3.8474   -4.6211    0.0259 C.3       1 <0>         0.0236
     13 C10        -4.8712    0.2637    0.0384 C.3       1 <0>        -0.0163
     14 C11        -5.3062    0.5346   -1.3789 C.ar      1 <0>        -0.3083
     15 C12        -4.9545    1.7101   -2.0132 C.ar      1 <0>         0.2250
     16 N1         -5.3522    1.9181   -3.2597 N.ar      1 <0>        -0.6043
     17 C13        -6.0798    1.0161   -3.9019 C.ar      1 <0>         0.6032
     18 N2         -6.4382   -0.1231   -3.3293 N.ar      1 <0>        -0.6263
     19 C14        -6.0690   -0.3996   -2.0826 C.ar      1 <0>         0.4894
     20 N3         -6.4404   -1.5946   -1.4883 N.pl3     1 <0>        -0.8360
     21 N4         -6.4756    1.2708   -5.2034 N.pl3     1 <0>        -0.8207
     22 H1          1.0053    1.8021    0.0021 H         1 <0>         0.1035
     23 H2         -0.5445    1.7859   -0.8732 H         1 <0>         0.0589
     24 H3         -0.5275    1.7763    0.9067 H         1 <0>         0.0581
     25 H4         -2.3329    1.1797    0.0207 H         1 <0>         0.1363
     26 H5         -4.6151   -2.4227    0.0334 H         1 <0>         0.1280
     27 H6         -0.2648   -3.7070    1.8151 H         1 <0>         0.0438
     28 H7          1.3650   -3.6864    1.0998 H         1 <0>         0.0924
     29 H8          0.6878   -2.2033    1.8141 H         1 <0>         0.0441
     30 H9         -4.3845   -4.3050    0.9202 H         1 <0>         0.0570
     31 H10        -4.3978   -4.3036   -0.8597 H         1 <0>         0.0568
     32 H11        -3.7517   -5.7069    0.0243 H         1 <0>         0.1041
     33 H12        -5.6506   -0.2944    0.5572 H         1 <0>         0.0773
     34 H13        -4.6980    1.2092    0.5523 H         1 <0>         0.0904
     35 H14        -4.3619    2.4519   -1.4984 H         1 <0>         0.1633
     36 H15        -6.1706   -1.7873   -0.5767 H         1 <0>         0.4079
     37 H16        -6.2200    2.1014   -5.6342 H         1 <0>         0.4156
     38 H17        -7.0085    0.6187   -5.6847 H         1 <0>         0.4133
     39 H18        -6.9704   -2.2385   -1.9837 H         1 <0>         0.4067
@<TRIPOS>BOND
     1    1    2 1
     2    1   22 1
     3    1   23 1
     4    1   24 1
     5    2    3 1
     6    3    8 ar
     7    3    4 ar
     8    4    5 ar
     9    4   25 1
    10    5    6 ar
    11    5   13 1
    12    6    7 ar
    13    6   26 1
    14    7    8 ar
    15    7   11 1
    16    8    9 1
    17    9   10 1
    18   10   27 1
    19   10   28 1
    20   10   29 1
    21   11   12 1
    22   12   30 1
    23   12   31 1
    24   12   32 1
    25   13   14 1
    26   13   33 1
    27   13   34 1
    28   14   19 ar
    29   14   15 ar
    30   15   16 ar
    31   15   35 1
    32   16   17 ar
    33   17   18 ar
    34   17   21 1
    35   18   19 ar
    36   19   20 1
    37   20   36 1
    38   20   39 1
    39   21   37 1
    40   21   38 1
@<TRIPOS>MOLECULE
ZINC06627681
   40    41     0     0     0
SMALL
USER_CHARGES

@<TRIPOS>ATOM
      1 C1         -0.0173    1.4248    0.0099 C.3       1 <0>         0.0236
      2 O1          0.0021   -0.0041    0.0020 O.3       1 <0>        -0.2966
      3 C2          0.6062   -0.6075   -1.0565 C.ar      1 <0>         0.1590
      4 C3          1.1731    0.1601   -2.0626 C.ar      1 <0>        -0.2276
      5 C4          1.7874   -0.4523   -3.1388 C.ar      1 <0>        -0.0278
      6 C5          1.8393   -1.8314   -3.2169 C.ar      1 <0>        -0.2351
      7 C6          1.2749   -2.6062   -2.2150 C.ar      1 <0>         0.1601
      8 C7          0.6613   -1.9944   -1.1284 C.ar      1 <0>         0.0371
      9 O2          0.1111   -2.7512   -0.1402 O.3       1 <0>        -0.3127
     10 C8         -1.2598   -3.1236   -0.2953 C.3       1 <0>         0.0346
     11 O3          1.3261   -3.9630   -2.2930 O.3       1 <0>        -0.2955
     12 C9          1.9770   -4.5231   -3.4352 C.3       1 <0>         0.0221
     13 C10         2.4017    0.3858   -4.2302 C.3       1 <0>        -0.0295
     14 C11         3.8422    0.6725   -3.8928 C.ar      1 <0>        -0.2227
     15 C12         4.1975    1.8410   -3.2477 C.ar      1 <0>         0.2105
     16 N1          5.4726    2.0633   -2.9647 N.ar      1 <0>        -0.5697
     17 C13         6.4065    1.1822   -3.2920 C.ar      1 <0>         0.6625
     18 N2          6.1075    0.0504   -3.9114 N.ar      1 <0>        -0.5720
     19 C14         4.8475   -0.2398   -4.2201 C.ar      1 <0>         0.5372
     20 N3          4.5370   -1.4272   -4.8628 N.pl3     1 <0>        -0.7792
     21 N4          7.7275    1.4516   -2.9793 N.pl3     1 <0>        -0.7906
     22 H1          1.0053    1.8021    0.0021 H         1 <0>         0.0555
     23 H2         -0.5445    1.7859   -0.8732 H         1 <0>         0.0607
     24 H3         -0.5275    1.7763    0.9067 H         1 <0>         0.1087
     25 H4          1.1343    1.2379   -2.0054 H         1 <0>         0.1378
     26 H5          2.3199   -2.3061   -4.0596 H         1 <0>         0.1268
     27 H6         -1.3771   -3.7054   -1.2095 H         1 <0>         0.0473
     28 H7         -1.5724   -3.7233    0.5596 H         1 <0>         0.0987
     29 H8         -1.8756   -2.2262   -0.3542 H         1 <0>         0.0474
     30 H9          1.4660   -4.1967   -4.3410 H         1 <0>         0.0599
     31 H10         3.0141   -4.1888   -3.4626 H         1 <0>         0.0544
     32 H11         1.9474   -5.6109   -3.3732 H         1 <0>         0.1103
     33 H12         2.3506   -0.1544   -5.1756 H         1 <0>         0.0994
     34 H13         1.8554    1.3249   -4.3183 H         1 <0>         0.1128
     35 H14         3.4440    2.5659   -2.9772 H         1 <0>         0.2147
     36 H15         3.6157   -1.6298   -5.0887 H         1 <0>         0.4275
     37 H16         7.9600    2.2771   -2.5260 H         1 <0>         0.4311
     38 H17         8.4208    0.8149   -3.2134 H         1 <0>         0.4453
     39 H18         5.2409   -2.0558   -5.0868 H         1 <0>         0.4288
     40 H19         5.7260    2.8827   -2.5117 H         1 <0>         0.4452
@<TRIPOS>BOND
     1    1    2 1
     2    1   22 1
     3    1   23 1
     4    1   24 1
     5    2    3 1
     6    3    8 ar
     7    3    4 ar
     8    4    5 ar
     9    4   25 1
    10    5    6 ar
    11    5   13 1
    12    6    7 ar
    13    6   26 1
    14    7    8 ar
    15    7   11 1
    16    8    9 1
    17    9   10 1
    18   10   27 1
    19   10   28 1
    20   10   29 1
    21   11   12 1
    22   12   30 1
    23   12   31 1
    24   12   32 1
    25   13   14 1
    26   13   33 1
    27   13   34 1
    28   14   19 ar
    29   14   15 ar
    30   15   16 ar
    31   15   35 1
    32   16   17 ar
    33   16   40 1
    34   17   18 ar
    35   17   21 1
    36   18   19 ar
    37   19   20 1
    38   20   36 1
    39   20   39 1
    40   21   37 1
    41   21   38 1
@<TRIPOS>MOLECULE
ZINC01529323
   53    55     0     0     0
SMALL
USER_CHARGES

@<TRIPOS>ATOM
      1 C1         -0.0178    1.4608    0.0101 C.3       1 <0>         0.0943
      2 N1          0.0021   -0.0041    0.0020 N.pl3     1 <0>        -0.6229
      3 C2          0.0241   -0.7433    1.2666 C.3       1 <0>         0.1846
      4 C3         -1.3889   -1.0161    1.7137 C.ar      1 <0>         0.0299
      5 C4         -1.9892   -2.2351    1.3999 C.ar      1 <0>         0.1556
      6 N2         -3.2219   -2.4965    1.7797 N.ar      1 <0>        -0.4373
      7 C5         -3.9051   -1.5830    2.4739 C.ar      1 <0>         0.3718
      8 C6         -3.2902   -0.3458    2.7901 C.ar      1 <0>        -0.0918
      9 N3         -2.0425   -0.1038    2.4012 N.ar      1 <0>        -0.3728
     10 C7         -4.0706    0.6301    3.5527 C.ar      1 <0>         0.5432
     11 N4         -5.3055    0.2953    3.9004 N.ar      1 <0>        -0.6300
     12 C8         -5.8196   -0.8850    3.5693 C.ar      1 <0>         0.6362
     13 N5         -5.1609   -1.7987    2.8845 N.ar      1 <0>        -0.5990
     14 N6         -7.1130   -1.1692    3.9639 N.pl3     1 <0>        -0.8099
     15 N7         -3.5402    1.8539    3.8976 N.pl3     1 <0>        -0.7943
     16 C9          0.0000   -0.6928   -1.2059 C.ar      1 <0>         0.2179
     17 C10         0.0132   -2.0849   -1.2118 C.ar      1 <0>        -0.2113
     18 C11         0.0112   -2.7693   -2.4056 C.ar      1 <0>        -0.0159
     19 C12        -0.0041   -2.0653   -3.6133 C.ar      1 <0>        -0.1590
     20 C13        -0.0173   -0.6674   -3.6040 C.ar      1 <0>        -0.0366
     21 C14        -0.0210    0.0112   -2.4068 C.ar      1 <0>        -0.1985
     22 C15        -0.0058   -2.7960   -4.8948 C.2       1 <0>         0.5556
     23 O1          0.0061   -4.0119   -4.9015 O.2       1 <0>        -0.5600
     24 N8         -0.0205   -2.1158   -6.0583 N.am      1 <0>        -0.6793
     25 C16        -0.0222   -2.8414   -7.3310 C.3       1 <0>         0.0733
     26 H1         -0.6020   -3.7584   -7.2256 H         1 <0>         0.0773
     27 C17        -0.6480   -1.9644   -8.4172 C.3       1 <0>        -0.0801
     28 C18        -2.1222   -1.7198   -8.0888 C.3       1 <0>        -0.1777
     29 C19        -2.7386   -0.8559   -9.1588 C.2       1 <0>         0.4909
     30 O2         -2.0616   -0.4715  -10.0971 O.co2     1 <0>        -0.6975
     31 O3         -3.9143   -0.5414   -9.0862 O.co2     1 <0>        -0.7207
     32 C20         1.3940   -3.1839   -7.7158 C.2       1 <0>         0.4958
     33 O4          2.3190   -2.8526   -6.9939 O.co2     1 <0>        -0.6970
     34 O5          1.6147   -3.7923   -8.7491 O.co2     1 <0>        -0.7014
     35 H2          1.0048    1.8381    0.0023 H         1 <0>         0.0502
     36 H3         -0.5450    1.8219   -0.8730 H         1 <0>         0.0690
     37 H4         -0.5280    1.8123    0.9069 H         1 <0>         0.0657
     38 H5          0.5496   -1.6879    1.1262 H         1 <0>         0.1015
     39 H6          0.5371   -0.1514    2.0246 H         1 <0>         0.0948
     40 H7         -1.4361   -2.9733    0.8382 H         1 <0>         0.1815
     41 H8         -7.6209   -0.5150    4.4689 H         1 <0>         0.4148
     42 H9         -7.5132   -2.0229    3.7358 H         1 <0>         0.4190
     43 H10        -2.6346    2.0814    3.6347 H         1 <0>         0.4250
     44 H11        -4.0722    2.4880    4.4032 H         1 <0>         0.4139
     45 H12         0.0253   -2.6282   -0.2785 H         1 <0>         0.1208
     46 H13         0.0217   -3.8493   -2.4096 H         1 <0>         0.1351
     47 H14        -0.0287   -0.1208   -4.5353 H         1 <0>         0.1282
     48 H15        -0.0359    1.0910   -2.3989 H         1 <0>         0.1244
     49 H16        -0.0300   -1.1459   -6.0530 H         1 <0>         0.3877
     50 H17        -0.1225   -1.0104   -8.4615 H         1 <0>         0.0543
     51 H18        -0.5691   -2.4677   -9.3808 H         1 <0>         0.0783
     52 H19        -2.6477   -2.6737   -8.0445 H         1 <0>         0.0522
     53 H20        -2.2011   -1.2164   -7.1252 H         1 <0>         0.0501
@<TRIPOS>BOND
     1    1    2 1
     2    1   35 1
     3    1   36 1
     4    1   37 1
     5    2    3 1
     6    2   16 1
     7    3    4 1
     8    3   38 1
     9    3   39 1
    10    4    9 ar
    11    4    5 ar
    12    5    6 ar
    13    5   40 1
    14    6    7 ar
    15    7   13 ar
    16    7    8 ar
    17    8    9 ar
    18    8   10 ar
    19   10   11 ar
    20   10   15 1
    21   11   12 ar
    22   12   13 ar
    23   12   14 1
    24   14   41 1
    25   14   42 1
    26   15   43 1
    27   15   44 1
    28   16   21 ar
    29   16   17 ar
    30   17   18 ar
    31   17   45 1
    32   18   19 ar
    33   18   46 1
    34   19   20 ar
    35   19   22 1
    36   20   21 ar
    37   20   47 1
    38   21   48 1
    39   22   23 2
    40   22   24 am
    41   24   25 1
    42   24   49 1
    43   25   26 1
    44   25   27 1
    45   25   32 1
    46   27   28 1
    47   27   50 1
    48   27   51 1
    49   28   29 1
    50   28   52 1
    51   28   53 1
    52   29   30 2
    53   29   31 1
    54   32   33 2
    55   32   34 1
@<TRIPOS>MOLECULE
ZINC06920406
   53    55     0     0     0
SMALL
USER_CHARGES

@<TRIPOS>ATOM
      1 C1         -0.0178    1.4608    0.0101 C.3       1 <0>         0.0941
      2 N1          0.0021   -0.0041    0.0020 N.pl3     1 <0>        -0.6227
      3 C2          0.0241   -0.7433    1.2666 C.3       1 <0>         0.1846
      4 C3         -1.3889   -1.0161    1.7137 C.ar      1 <0>         0.0297
      5 C4         -1.9892   -2.2351    1.3999 C.ar      1 <0>         0.1557
      6 N2         -3.2219   -2.4965    1.7797 N.ar      1 <0>        -0.4368
      7 C5         -3.9051   -1.5830    2.4739 C.ar      1 <0>         0.3719
      8 C6         -3.2902   -0.3458    2.7901 C.ar      1 <0>        -0.0918
      9 N3         -2.0425   -0.1038    2.4012 N.ar      1 <0>        -0.3728
     10 C7         -4.0706    0.6301    3.5527 C.ar      1 <0>         0.5431
     11 N4         -5.3055    0.2953    3.9004 N.ar      1 <0>        -0.6300
     12 C8         -5.8196   -0.8850    3.5693 C.ar      1 <0>         0.6360
     13 N5         -5.1609   -1.7987    2.8845 N.ar      1 <0>        -0.5986
     14 N6         -7.1130   -1.1692    3.9639 N.pl3     1 <0>        -0.8100
     15 N7         -3.5402    1.8539    3.8976 N.pl3     1 <0>        -0.7944
     16 C9          0.0000   -0.6928   -1.2059 C.ar      1 <0>         0.2189
     17 C10         0.0132   -2.0849   -1.2118 C.ar      1 <0>        -0.2116
     18 C11         0.0112   -2.7693   -2.4056 C.ar      1 <0>        -0.0155
     19 C12        -0.0041   -2.0653   -3.6133 C.ar      1 <0>        -0.1616
     20 C13        -0.0173   -0.6674   -3.6040 C.ar      1 <0>        -0.0356
     21 C14        -0.0210    0.0112   -2.4068 C.ar      1 <0>        -0.1983
     22 C15        -0.0058   -2.7960   -4.8948 C.2       1 <0>         0.5487
     23 O1          0.0061   -4.0119   -4.9015 O.2       1 <0>        -0.5585
     24 N8         -0.0205   -2.1158   -6.0583 N.am      1 <0>        -0.6789
     25 C16        -0.0222   -2.8414   -7.3310 C.3       1 <0>         0.0745
     26 H1          0.5768   -3.7469   -7.2338 H         1 <0>         0.0773
     27 C17         0.5711   -1.9524   -8.4257 C.3       1 <0>        -0.0822
     28 C18         2.0446   -1.6789   -8.1177 C.3       1 <0>        -0.1766
     29 C19         2.6291   -0.8032   -9.1959 C.2       1 <0>         0.4909
     30 O2          1.9317   -0.4323  -10.1247 O.co2     1 <0>        -0.6980
     31 O3          3.7993   -0.4657   -9.1396 O.co2     1 <0>        -0.7201
     32 C20        -1.4367   -3.2117   -7.6962 C.2       1 <0>         0.4981
     33 O4         -2.3634   -2.5041   -7.3399 O.co2     1 <0>        -0.6991
     34 O5         -1.6542   -4.2188   -8.3480 O.co2     1 <0>        -0.7022
     35 H2          1.0048    1.8381    0.0023 H         1 <0>         0.0507
     36 H3         -0.5450    1.8219   -0.8730 H         1 <0>         0.0690
     37 H4         -0.5280    1.8123    0.9069 H         1 <0>         0.0658
     38 H5          0.5496   -1.6879    1.1262 H         1 <0>         0.1014
     39 H6          0.5371   -0.1514    2.0246 H         1 <0>         0.0950
     40 H7         -1.4361   -2.9733    0.8382 H         1 <0>         0.1814
     41 H8         -7.6209   -0.5150    4.4689 H         1 <0>         0.4147
     42 H9         -7.5132   -2.0229    3.7358 H         1 <0>         0.4190
     43 H10        -2.6346    2.0814    3.6347 H         1 <0>         0.4250
     44 H11        -4.0722    2.4880    4.4032 H         1 <0>         0.4139
     45 H12         0.0253   -2.6282   -0.2785 H         1 <0>         0.1211
     46 H13         0.0217   -3.8493   -2.4096 H         1 <0>         0.1354
     47 H14        -0.0287   -0.1208   -4.5353 H         1 <0>         0.1292
     48 H15        -0.0359    1.0910   -2.3989 H         1 <0>         0.1249
     49 H16        -0.0300   -1.1459   -6.0530 H         1 <0>         0.3899
     50 H17         0.4888   -2.4573   -9.3882 H         1 <0>         0.0717
     51 H18         0.0264   -1.0090   -8.4626 H         1 <0>         0.0594
     52 H19         2.1270   -1.1740   -7.1552 H         1 <0>         0.0514
     53 H20         2.5893   -2.6223   -8.0808 H         1 <0>         0.0527
@<TRIPOS>BOND
     1    1    2 1
     2    1   35 1
     3    1   36 1
     4    1   37 1
     5    2    3 1
     6    2   16 1
     7    3    4 1
     8    3   38 1
     9    3   39 1
    10    4    9 ar
    11    4    5 ar
    12    5    6 ar
    13    5   40 1
    14    6    7 ar
    15    7   13 ar
    16    7    8 ar
    17    8    9 ar
    18    8   10 ar
    19   10   11 ar
    20   10   15 1
    21   11   12 ar
    22   12   13 ar
    23   12   14 1
    24   14   41 1
    25   14   42 1
    26   15   43 1
    27   15   44 1
    28   16   21 ar
    29   16   17 ar
    30   17   18 ar
    31   17   45 1
    32   18   19 ar
    33   18   46 1
    34   19   20 ar
    35   19   22 1
    36   20   21 ar
    37   20   47 1
    38   21   48 1
    39   22   23 2
    40   22   24 am
    41   24   25 1
    42   24   49 1
    43   25   26 1
    44   25   27 1
    45   25   32 1
    46   27   28 1
    47   27   50 1
    48   27   51 1
    49   28   29 1
    50   28   52 1
    51   28   53 1
    52   29   30 2
    53   29   31 1
    54   32   33 2
    55   32   34 1
