@<TRIPOS>MOLECULE
ZINC49538664
   30    32     0     0     0
SMALL
USER_CHARGES

@<TRIPOS>ATOM
      1 C1         -0.0167    1.3794    0.0096 C.ar      1 <0>        -0.1077
      2 C2          1.1684    2.0933    0.0021 C.ar      1 <0>        -0.1147
      3 C3          2.3774    1.4289   -0.0129 C.ar      1 <0>        -0.0929
      4 C4          2.4033    0.0336   -0.0206 C.ar      1 <0>        -0.0742
      5 C5          1.2044   -0.6805   -0.0130 C.ar      1 <0>        -0.1029
      6 C6          0.0021   -0.0041    0.0020 C.ar      1 <0>        -0.1182
      7 C7          3.6962   -0.6854   -0.0373 C.ar      1 <0>         0.1386
      8 C8          4.5553   -0.5715   -1.1404 C.ar      1 <0>        -0.1376
      9 C9          5.7843   -1.2596   -1.1466 C.ar      1 <0>         0.3155
     10 C10         6.1509   -2.0473   -0.0732 C.ar      1 <0>        -0.2481
     11 C11         5.3074   -2.1702    1.0292 C.ar      1 <0>         0.2270
     12 C12         4.0774   -1.4836    1.0539 C.ar      1 <0>        -0.2341
     13 C13         3.4480   -1.8138    2.3327 C.2       1 <0>         0.3853
     14 N1          4.2565   -2.6132    2.9769 N.2       1 <0>        -0.3293
     15 N2          5.3981   -2.8612    2.2085 N.pl3     1 <0>        -0.5034
     16 H1          6.1420   -3.4245    2.4736 H         1 <0>         0.4434
     17 N3          2.2072   -1.3567    2.7837 N.pl3     1 <0>        -0.8323
     18 N4          6.6349   -1.1451   -2.2421 N.pl3     1 <0>        -0.8589
     19 C14         4.1832    0.2423   -2.2583 C.1       1 <0>         0.2607
     20 N5          3.8880    0.8880   -3.1452 N.1       1 <0>        -0.4232
     21 H2         -0.9605    1.9042    0.0260 H         1 <0>         0.1270
     22 H3          1.1470    3.1731    0.0078 H         1 <0>         0.1281
     23 H4          3.3018    1.9873   -0.0191 H         1 <0>         0.1253
     24 H5          1.2177   -1.7604   -0.0193 H         1 <0>         0.1296
     25 H6         -0.9265   -0.5556    0.0079 H         1 <0>         0.1299
     26 H7          7.0953   -2.5709   -0.0884 H         1 <0>         0.1369
     27 H8          1.6785   -0.7621    2.2290 H         1 <0>         0.4121
     28 H9          1.8744   -1.6340    3.6517 H         1 <0>         0.4076
     29 H10         6.3806   -0.5929   -2.9980 H         1 <0>         0.4029
     30 H11         7.4821   -1.6175   -2.2498 H         1 <0>         0.4079
@<TRIPOS>BOND
     1    1    6 ar
     2    1    2 ar
     3    1   21 1
     4    2    3 ar
     5    2   22 1
     6    3    4 ar
     7    3   23 1
     8    4    5 ar
     9    4    7 1
    10    5    6 ar
    11    5   24 1
    12    6   25 1
    13    7   12 ar
    14    7    8 ar
    15    8    9 ar
    16    8   19 1
    17    9   10 ar
    18    9   18 1
    19   10   11 ar
    20   10   26 1
    21   11   15 1
    22   11   12 ar
    23   12   13 1
    24   13   14 2
    25   13   17 1
    26   14   15 1
    27   15   16 1
    28   17   27 1
    29   17   28 1
    30   18   29 1
    31   18   30 1
    32   19   20 3
@<TRIPOS>MOLECULE
ZINC49538664
   31    33     0     0     0
SMALL
USER_CHARGES

@<TRIPOS>ATOM
      1 C1         -0.0167    1.3795    0.0096 C.ar      1 <0>        -0.0907
      2 C2          1.1684    2.0936    0.0021 C.ar      1 <0>        -0.1080
      3 C3          2.3774    1.4295   -0.0130 C.ar      1 <0>        -0.0839
      4 C4          2.4035    0.0338   -0.0208 C.ar      1 <0>        -0.1127
      5 C5          1.2042   -0.6805   -0.0131 C.ar      1 <0>        -0.1105
      6 C6          0.0021   -0.0041    0.0020 C.ar      1 <0>        -0.1139
      7 C7          3.6959   -0.6847   -0.0375 C.ar      1 <0>         0.1838
      8 C8          4.5531   -0.5726   -1.1356 C.ar      1 <0>        -0.1044
      9 C9          5.7916   -1.2550   -1.1631 C.ar      1 <0>         0.3658
     10 C10         6.1940   -2.0422   -0.1292 C.ar      1 <0>        -0.2556
     11 C11         5.3702   -2.1954    1.0089 C.ar      1 <0>         0.2990
     12 C12         4.0811   -1.4878    1.0586 C.ar      1 <0>        -0.2751
     13 C13         3.5009   -1.8153    2.2814 C.2       1 <0>         0.5467
     14 N1          4.3471   -2.6365    2.9262 N.pl3     1 <0>        -0.4456
     15 N2          5.4789   -2.8703    2.1380 N.pl3     1 <0>        -0.4266
     16 H1          4.1916   -3.0182    3.8043 H         1 <0>         0.4695
     17 N3          2.2749   -1.3747    2.7483 N.pl3     1 <0>        -0.7834
     18 N4          6.6190   -1.1182   -2.2757 N.pl3     1 <0>        -0.8305
     19 C14         4.1720    0.2442   -2.2484 C.1       1 <0>         0.2336
     20 N5          3.8697    0.8921   -3.1312 N.1       1 <0>        -0.3745
     21 H2         -0.9605    1.9042    0.0260 H         1 <0>         0.1360
     22 H3          1.1468    3.1734    0.0078 H         1 <0>         0.1372
     23 H4          3.3017    1.9881   -0.0192 H         1 <0>         0.1320
     24 H5          1.2175   -1.7604   -0.0194 H         1 <0>         0.1330
     25 H6         -0.9265   -0.5556    0.0079 H         1 <0>         0.1379
     26 H7          7.1451   -2.5516   -0.1783 H         1 <0>         0.1619
     27 H8          1.7344   -0.7800    2.2051 H         1 <0>         0.4428
     28 H9          1.9561   -1.6607    3.6186 H         1 <0>         0.4273
     29 H10         6.3431   -0.5600   -3.0195 H         1 <0>         0.4146
     30 H11         7.4708   -1.5811   -2.3065 H         1 <0>         0.4201
     31 H12         6.2310   -3.4298    2.3875 H         1 <0>         0.4739
@<TRIPOS>BOND
     1    1    6 ar
     2    1    2 ar
     3    1   21 1
     4    2    3 ar
     5    2   22 1
     6    3    4 ar
     7    3   23 1
     8    4    5 ar
     9    4    7 1
    10    5    6 ar
    11    5   24 1
    12    6   25 1
    13    7   12 ar
    14    7    8 ar
    15    8    9 ar
    16    8   19 1
    17    9   10 ar
    18    9   18 1
    19   10   11 ar
    20   10   26 1
    21   11   12 ar
    22   11   15 2
    23   12   13 2
    24   13   17 1
    25   13   14 1
    26   14   16 1
    27   14   15 1
    28   15   31 1
    29   17   27 1
    30   17   28 1
    31   18   29 1
    32   18   30 1
    33   19   20 3
@<TRIPOS>MOLECULE
ZINC58655676
   55    57     0     0     0
SMALL
USER_CHARGES

@<TRIPOS>ATOM
      1 C1          0.5488    1.6611   -0.2219 C.3       1 <0>        -0.1411
      2 C2          0.4334    0.1368   -0.1575 C.3       1 <0>        -0.0014
      3 C3          1.1752   -0.3791    1.0772 C.3       1 <0>        -0.1412
      4 C4         -1.0195   -0.2538   -0.0701 C.2       1 <0>        -0.2596
      5 C5         -1.9098    0.1168    0.9294 C.2       1 <0>         0.1117
      6 N1         -3.0838   -0.4099    0.6710 N.2       1 <0>        -0.3361
      7 N2         -2.9973   -1.1475   -0.5153 N.pl3     1 <0>        -0.3639
      8 C6         -1.7117   -1.0440   -0.9772 C.2       1 <0>         0.3466
      9 N3         -1.3417   -1.6548   -2.1127 N.2       1 <0>        -0.5767
     10 C7         -2.2072   -2.3671   -2.8134 C.2       1 <0>         0.4953
     11 C8         -3.5350   -2.4948   -2.3753 C.2       1 <0>        -0.3671
     12 C9         -3.9182   -1.8828   -1.2175 C.2       1 <0>         0.5060
     13 N4         -5.2172   -1.9910   -0.7665 N.pl3     1 <0>        -0.7101
     14 C10        -6.1925   -2.7789   -1.5242 C.3       1 <0>         0.1679
     15 C11        -7.5259   -2.7365   -0.8233 C.ar      1 <0>        -0.1184
     16 C12        -7.8360   -3.6880    0.1303 C.ar      1 <0>        -0.0961
     17 C13        -9.0591   -3.6491    0.7733 C.ar      1 <0>        -0.1212
     18 C14        -9.9719   -2.6584    0.4630 C.ar      1 <0>        -0.1053
     19 C15        -9.6614   -1.7064   -0.4899 C.ar      1 <0>        -0.1214
     20 C16        -8.4366   -1.7427   -1.1298 C.ar      1 <0>        -0.0963
     21 N5         -1.8032   -2.9889   -3.9834 N.pl3     1 <0>        -0.6918
     22 C17        -0.4184   -2.8566   -4.4427 C.3       1 <0>         0.1320
     23 H1         -0.0468   -1.8624   -4.1947 H         1 <0>         0.1085
     24 C18         0.4500   -3.9119   -3.7549 C.3       1 <0>         0.0700
     25 O1          0.0275   -5.2151   -4.1614 O.3       1 <0>        -0.5699
     26 C19        -0.3623   -3.0587   -5.9582 C.3       1 <0>         0.1075
     27 H2         -0.7661   -4.0395   -6.2092 H         1 <0>         0.1172
     28 C20        -1.1915   -1.9738   -6.6485 C.3       1 <0>         0.0440
     29 O2         -1.2351   -2.2295   -8.0537 O.3       1 <0>        -0.5625
     30 O3          0.9941   -2.9748   -6.4001 O.3       1 <0>        -0.5390
     31 H3          1.5996    1.9436   -0.2851 H         1 <0>         0.0538
     32 H4          0.0202    2.0286   -1.1015 H         1 <0>         0.0506
     33 H5          0.1086    2.0970    0.6749 H         1 <0>         0.0520
     34 H6          0.8736   -0.2992   -1.0543 H         1 <0>         0.0769
     35 H7          2.2261   -0.0966    1.0141 H         1 <0>         0.0538
     36 H8          0.7351    0.0569    1.9741 H         1 <0>         0.0520
     37 H9          1.0931   -1.4650    1.1232 H         1 <0>         0.0506
     38 H10        -1.6741    0.7374    1.7813 H         1 <0>         0.1890
     39 H11        -4.2442   -3.0761   -2.9458 H         1 <0>         0.1543
     40 H12        -5.4849   -1.5453    0.0524 H         1 <0>         0.4169
     41 H13        -6.2955   -2.3630   -2.5265 H         1 <0>         0.0824
     42 H14        -5.8507   -3.8116   -1.5927 H         1 <0>         0.0828
     43 H15        -7.1229   -4.4620    0.3727 H         1 <0>         0.1248
     44 H16        -9.3017   -4.3929    1.5178 H         1 <0>         0.1267
     45 H17       -10.9277   -2.6285    0.9648 H         1 <0>         0.1260
     46 H18       -10.3746   -0.9326   -0.7326 H         1 <0>         0.1266
     47 H19        -8.1925   -0.9967   -1.8716 H         1 <0>         0.1246
     48 H20        -2.4372   -3.5119   -4.4985 H         1 <0>         0.4145
     49 H21         1.4927   -3.7638   -4.0361 H         1 <0>         0.0598
     50 H22         0.3484   -3.8178   -2.6738 H         1 <0>         0.0555
     51 H23         0.5354   -5.9352   -3.7633 H         1 <0>         0.3813
     52 H24        -2.2046   -1.9800   -6.2464 H         1 <0>         0.0549
     53 H25        -0.7358   -0.9998   -6.4704 H         1 <0>         0.0491
     54 H26        -1.7454   -1.5796   -8.5561 H         1 <0>         0.3802
     55 H27         1.4409   -2.1559   -6.1452 H         1 <0>         0.3731
@<TRIPOS>BOND
     1    1    2 1
     2    1   31 1
     3    1   32 1
     4    1   33 1
     5    2    3 1
     6    2    4 1
     7    2   34 1
     8    3   35 1
     9    3   36 1
    10    3   37 1
    11    4    8 2
    12    4    5 1
    13    5    6 2
    14    5   38 1
    15    6    7 1
    16    7   12 1
    17    7    8 1
    18    8    9 1
    19    9   10 2
    20   10   11 1
    21   10   21 1
    22   11   12 2
    23   11   39 1
    24   12   13 1
    25   13   14 1
    26   13   40 1
    27   14   15 1
    28   14   41 1
    29   14   42 1
    30   15   20 ar
    31   15   16 ar
    32   16   17 ar
    33   16   43 1
    34   17   18 ar
    35   17   44 1
    36   18   19 ar
    37   18   45 1
    38   19   20 ar
    39   19   46 1
    40   20   47 1
    41   21   22 1
    42   21   48 1
    43   22   23 1
    44   22   24 1
    45   22   26 1
    46   24   25 1
    47   24   49 1
    48   24   50 1
    49   25   51 1
    50   26   27 1
    51   26   28 1
    52   26   30 1
    53   28   29 1
    54   28   52 1
    55   28   53 1
    56   29   54 1
    57   30   55 1
@<TRIPOS>MOLECULE
ZINC01649340
   52    54     0     0     0
SMALL
USER_CHARGES

@<TRIPOS>ATOM
      1 C1         -0.0187    1.5258    0.0104 C.3       1 <0>        -0.1531
      2 C2          0.0021   -0.0041    0.0020 C.3       1 <0>        -0.1278
      3 C3         -1.4333   -0.5336    0.0129 C.3       1 <0>         0.1689
      4 H1         -1.9701   -0.1109    0.8621 H         1 <0>         0.1030
      5 C4         -1.4133   -2.0590    0.1302 C.3       1 <0>         0.0625
      6 O1         -0.6117   -2.6069   -0.9183 O.3       1 <0>        -0.5692
      7 N1         -2.1054   -0.1483   -1.2305 N.pl3     1 <0>        -0.6816
      8 C5         -3.4856   -0.0365   -1.2658 C.ar      1 <0>         0.6305
      9 N2         -4.1766   -0.2783   -0.1589 N.ar      1 <0>        -0.6256
     10 C6         -5.5013   -0.1844   -0.1423 C.ar      1 <0>         0.5407
     11 C7         -6.1646    0.1788   -1.3275 C.ar      1 <0>        -0.1560
     12 C8         -5.3921    0.4251   -2.4741 C.ar      1 <0>         0.3485
     13 N3         -4.0693    0.3129   -2.4004 N.ar      1 <0>        -0.6161
     14 N4         -6.2808    0.7538   -3.4662 N.pl3     1 <0>        -0.4704
     15 C9         -7.5330    0.7038   -2.9264 C.2       1 <0>         0.2320
     16 N5         -7.4624    0.3664   -1.6720 N.2       1 <0>        -0.4548
     17 C10        -5.9467    1.0964   -4.8508 C.3       1 <0>         0.1344
     18 C11        -6.6196    0.1019   -5.7989 C.3       1 <0>        -0.1626
     19 C12        -6.4419    2.5107   -5.1599 C.3       1 <0>        -0.1626
     20 N6         -6.2133   -0.4389    1.0165 N.pl3     1 <0>        -0.6899
     21 C13        -5.5062   -0.8166    2.2427 C.3       1 <0>         0.1717
     22 C14        -6.5039   -1.0364    3.3505 C.ar      1 <0>        -0.1135
     23 C15        -6.8801    0.0183    4.1611 C.ar      1 <0>        -0.0982
     24 C16        -7.7953   -0.1833    5.1773 C.ar      1 <0>        -0.1219
     25 C17        -8.3347   -1.4394    5.3826 C.ar      1 <0>        -0.1101
     26 C18        -7.9592   -2.4939    4.5714 C.ar      1 <0>        -0.1221
     27 C19        -7.0472   -2.2913    3.5524 C.ar      1 <0>        -0.0986
     28 H2          1.0039    1.9031    0.0027 H         1 <0>         0.0563
     29 H3         -0.5459    1.8868   -0.8726 H         1 <0>         0.0552
     30 H4         -0.5289    1.8773    0.9072 H         1 <0>         0.0537
     31 H5          0.5123   -0.3556   -0.8948 H         1 <0>         0.0768
     32 H6          0.5293   -0.3651    0.8851 H         1 <0>         0.0774
     33 H7         -0.9936   -2.3437    1.0951 H         1 <0>         0.0524
     34 H8         -2.4301   -2.4431    0.0488 H         1 <0>         0.0503
     35 H9         -0.5540   -3.5721   -0.9058 H         1 <0>         0.3776
     36 H10        -1.5839    0.0285   -2.0291 H         1 <0>         0.4145
     37 H11        -8.4474    0.9139   -3.4613 H         1 <0>         0.2138
     38 H12        -4.8660    1.0524   -4.9853 H         1 <0>         0.1061
     39 H13        -7.7004    0.1459   -5.6644 H         1 <0>         0.0654
     40 H14        -6.3710    0.3568   -6.8291 H         1 <0>         0.0793
     41 H15        -6.2668   -0.9057   -5.5787 H         1 <0>         0.0629
     42 H16        -5.9625    3.2193   -4.4845 H         1 <0>         0.0629
     43 H17        -6.1933    2.7656   -6.1901 H         1 <0>         0.0793
     44 H18        -7.5227    2.5547   -5.0254 H         1 <0>         0.0654
     45 H19        -7.1807   -0.3672    1.0169 H         1 <0>         0.4195
     46 H20        -4.9460   -1.7357    2.0706 H         1 <0>         0.0763
     47 H21        -4.8186   -0.0196    2.5258 H         1 <0>         0.0773
     48 H22        -6.4587    0.9996    4.0008 H         1 <0>         0.1237
     49 H23        -8.0886    0.6405    5.8111 H         1 <0>         0.1245
     50 H24        -9.0492   -1.5971    6.1770 H         1 <0>         0.1237
     51 H25        -8.3804   -3.4753    4.7320 H         1 <0>         0.1244
     52 H26        -6.7567   -3.1143    2.9163 H         1 <0>         0.1232
@<TRIPOS>BOND
     1    1    2 1
     2    1   28 1
     3    1   29 1
     4    1   30 1
     5    2    3 1
     6    2   31 1
     7    2   32 1
     8    3    4 1
     9    3    5 1
    10    3    7 1
    11    5    6 1
    12    5   33 1
    13    5   34 1
    14    6   35 1
    15    7    8 1
    16    7   36 1
    17    8   13 ar
    18    8    9 ar
    19    9   10 ar
    20   10   11 ar
    21   10   20 1
    22   11   16 1
    23   11   12 ar
    24   12   13 ar
    25   12   14 1
    26   14   15 1
    27   14   17 1
    28   15   16 2
    29   15   37 1
    30   17   18 1
    31   17   19 1
    32   17   38 1
    33   18   39 1
    34   18   40 1
    35   18   41 1
    36   19   42 1
    37   19   43 1
    38   19   44 1
    39   20   21 1
    40   20   45 1
    41   21   22 1
    42   21   46 1
    43   21   47 1
    44   22   27 ar
    45   22   23 ar
    46   23   24 ar
    47   23   48 1
    48   24   25 ar
    49   24   49 1
    50   25   26 ar
    51   25   50 1
    52   26   27 ar
    53   26   51 1
    54   27   52 1
@<TRIPOS>MOLECULE
ZINC03870968
   14    15     0     0     0
SMALL
USER_CHARGES

@<TRIPOS>ATOM
      1 C1         -0.0168    1.3871    0.0097 C.ar      1 <0>         0.1275
      2 C2         -1.2442    2.0718    0.0183 C.ar      1 <0>         0.0209
      3 C3         -2.4387    1.3383    0.0195 C.ar      1 <0>         0.0311
      4 C4         -2.4004   -0.0268    0.0123 C.ar      1 <0>        -0.0704
      5 C5         -1.1860   -0.7032    0.0042 C.ar      1 <0>        -0.0030
      6 C6          0.0021   -0.0041    0.0020 C.ar      1 <0>        -0.0597
      7 Br1         1.6499   -0.9315   -0.0180 Br        1 <0>         0.0166
      8 Br2        -1.1636   -2.5941   -0.0043 Br        1 <0>         0.0379
      9 Br3        -4.0172   -1.0076    0.0139 Br        1 <0>         0.0317
     10 Br4        -4.1018    2.2382    0.0316 Br        1 <0>         0.0337
     11 N1         -0.9754    3.3929    0.0240 N.2       1 <0>        -0.1877
     12 N2          0.2956    3.5906    0.0197 N.2       1 <0>         0.0383
     13 N3          0.9599    2.3551    0.0055 N.pl3     1 <0>        -0.4750
     14 H1          1.9192    2.2118   -0.0041 H         1 <0>         0.4582
@<TRIPOS>BOND
     1    1    6 ar
     2    1   13 1
     3    1    2 ar
     4    2    3 ar
     5    2   11 1
     6    3    4 ar
     7    3   10 1
     8    4    5 ar
     9    4    9 1
    10    5    6 ar
    11    5    8 1
    12    6    7 1
    13   11   12 2
    14   12   13 1
    15   13   14 1
@<TRIPOS>MOLECULE
ZINC13998530
   48    51     0     0     0
SMALL
USER_CHARGES
N-[[2-(4-amino-1,2,5-oxadiazol-3-yl)-1-ethyl-imidazo[5,4-d]pyridin-7-yl]methyl]piperidin-4-amine
@<TRIPOS>ATOM
      1 C1          1.5587    0.3111   -0.1080 C.3       1 <0>        -0.1729
      2 C2          0.2652    1.0542   -0.4478 C.3       1 <0>         0.0990
      3 N1         -0.4854    1.3157    0.7828 N.pl3     1 <0>        -0.4686
      4 C3         -0.4224    2.4543    1.5497 C.ar      1 <0>         0.0959
      5 C4          0.2805    3.6520    1.4788 C.ar      1 <0>        -0.1364
      6 C5          0.0830    4.5977    2.4615 C.ar      1 <0>         0.1287
      7 N2         -0.7570    4.3848    3.4610 N.ar      1 <0>        -0.4799
      8 C6         -1.4527    3.2734    3.5731 C.ar      1 <0>         0.1941
      9 C7         -1.3129    2.2569    2.6252 C.ar      1 <0>         0.0004
     10 N3         -1.8585    1.0289    2.4690 N.2       1 <0>        -0.4499
     11 C8         -1.3766    0.4683    1.3870 C.2       1 <0>         0.3728
     12 C9         -1.7401   -0.8779    0.8921 C.2       1 <0>         0.0023
     13 C10        -2.6825   -1.8587    1.4795 C.2       1 <0>         0.3357
     14 N4         -2.6148   -2.8606    0.6343 N.2       1 <0>        -0.4153
     15 O1         -1.8331   -2.5921   -0.2473 O.3       1 <0>         0.3396
     16 N5         -1.3034   -1.5081   -0.1774 N.2       1 <0>        -0.3271
     17 N6         -3.4473   -1.7455    2.6331 N.pl3     1 <0>        -0.8250
     18 C11         1.2410    3.9115    0.3469 C.3       1 <0>         0.0915
     19 N7          0.4927    4.3449   -0.8406 N.3       1 <0>        -0.6619
     20 C12         1.3822    4.4840   -2.0015 C.3       1 <0>         0.0601
     21 C13         2.0249    5.8738   -1.9900 C.3       1 <0>        -0.1386
     22 C14         2.9024    6.0349   -3.2334 C.3       1 <0>        -0.0005
     23 N8          2.0812    5.8656   -4.4389 N.4       1 <0>        -0.5357
     24 C15         1.4918    4.5218   -4.4955 C.3       1 <0>         0.0005
     25 C16         0.5721    4.3156   -3.2899 C.3       1 <0>        -0.1532
     26 H1          2.1223    0.1147   -1.0320 H         1 <0>         0.0835
     27 H2          1.3154   -0.6428    0.3829 H         1 <0>         0.0718
     28 H3          2.1683    0.9271    0.5695 H         1 <0>         0.0631
     29 H4          0.5085    2.0081   -0.9386 H         1 <0>         0.0828
     30 H5         -0.3444    0.4382   -1.1253 H         1 <0>         0.1085
     31 H6          0.6248    5.5308    2.4149 H         1 <0>         0.1643
     32 H7         -2.1261    3.1422    4.4072 H         1 <0>         0.1735
     33 H8         -4.1062   -2.5714    2.9394 H         1 <0>         0.4441
     34 H9         -3.3942   -0.8300    3.2405 H         1 <0>         0.4554
     35 H10         1.9502    4.6992    0.6411 H         1 <0>         0.0956
     36 H11         1.7932    2.9887    0.1157 H         1 <0>         0.0477
     37 H12        -0.2824    3.6011   -1.0772 H         1 <0>         0.3446
     38 H13         2.1485    3.6993   -1.9174 H         1 <0>         0.0618
     39 H14         1.2375    6.6419   -1.9927 H         1 <0>         0.0991
     40 H15         2.6423    5.9848   -1.0864 H         1 <0>         0.1091
     41 H16         3.3541    7.0379   -3.2359 H         1 <0>         0.1357
     42 H17         3.6974    5.2747   -3.2221 H         1 <0>         0.1252
     43 H18         1.2675    6.6058   -4.4351 H         1 <0>         0.4517
     44 H19         0.9095    4.4156   -5.4227 H         1 <0>         0.1362
     45 H20         2.2934    3.7687   -4.4776 H         1 <0>         0.1264
     46 H21         0.1423    3.3036   -3.3232 H         1 <0>         0.1068
     47 H22        -0.2383    5.0590   -3.3133 H         1 <0>         0.1012
     48 H23         2.7063    6.0125   -5.3320 H         1 <0>         0.4559
@<TRIPOS>BOND
     1    1    2 1
     2    1   26 1
     3    1   27 1
     4    1   28 1
     5    2    3 1
     6    2   29 1
     7    2   30 1
     8    3   11 1
     9    3    4 1
    10    4    9 ar
    11    4    5 ar
    12    5    6 ar
    13    5   18 1
    14    6    7 ar
    15    6   31 1
    16    7    8 ar
    17    8    9 ar
    18    8   32 1
    19    9   10 1
    20   10   11 2
    21   11   12 1
    22   12   16 2
    23   12   13 1
    24   13   14 2
    25   13   17 1
    26   14   15 1
    27   15   16 1
    28   17   33 1
    29   17   34 1
    30   18   19 1
    31   18   35 1
    32   18   36 1
    33   19   20 1
    34   19   37 1
    35   20   25 1
    36   20   21 1
    37   20   38 1
    38   21   22 1
    39   21   39 1
    40   21   40 1
    41   22   23 1
    42   22   41 1
    43   22   42 1
    44   23   24 1
    45   23   43 1
    46   23   48 1
    47   24   25 1
    48   24   44 1
    49   24   45 1
    50   25   46 1
    51   25   47 1
@<TRIPOS>MOLECULE
ZINC13998530
   50    53     0     0     0
SMALL
USER_CHARGES
N-[[2-(4-amino-1,2,5-oxadiazol-3-yl)-1-ethyl-imidazo[5,4-d]pyridin-7-yl]methyl]piperidin-4-amine
@<TRIPOS>ATOM
      1 C1          1.5587    0.3111   -0.1080 C.3       1 <0>        -0.1879
      2 C2          0.2652    1.0542   -0.4478 C.3       1 <0>         0.0907
      3 N1         -0.4854    1.3157    0.7828 N.pl3     1 <0>        -0.4320
      4 C3         -0.4224    2.4543    1.5497 C.ar      1 <0>         0.1403
      5 C4          0.2805    3.6520    1.4788 C.ar      1 <0>        -0.2050
      6 C5          0.0830    4.5977    2.4615 C.ar      1 <0>         0.2011
      7 N2         -0.7570    4.3848    3.4610 N.ar      1 <0>        -0.4354
      8 C6         -1.4527    3.2734    3.5731 C.ar      1 <0>         0.2433
      9 C7         -1.3129    2.2569    2.6252 C.ar      1 <0>         0.0004
     10 C8         -1.3766    0.4683    1.3870 C.cat     1 <0>         0.5282
     11 C9         -1.7401   -0.8779    0.8921 C.2       1 <0>        -0.0864
     12 C10        -2.6825   -1.8587    1.4795 C.2       1 <0>         0.3373
     13 N3         -2.6148   -2.8606    0.6343 N.2       1 <0>        -0.3540
     14 O1         -1.8331   -2.5921   -0.2473 O.3       1 <0>         0.4261
     15 N4         -1.3034   -1.5081   -0.1774 N.2       1 <0>        -0.2841
     16 N5         -3.4473   -1.7455    2.6331 N.pl3     1 <0>        -0.7914
     17 C11         1.2410    3.9115    0.3469 C.3       1 <0>         0.0409
     18 C12         1.3822    4.4840   -2.0015 C.3       1 <0>         0.0090
     19 C13         2.0249    5.8738   -1.9900 C.3       1 <0>        -0.1710
     20 C14         2.9024    6.0349   -3.2334 C.3       1 <0>         0.0014
     21 C15         1.4918    4.5218   -4.4955 C.3       1 <0>         0.0029
     22 C16         0.5721    4.3156   -3.2899 C.3       1 <0>        -0.1754
     23 H1          2.1915    0.9474    0.5107 H         1 <0>         0.0766
     24 H2          1.3205   -0.6031    0.4356 H         1 <0>         0.0880
     25 H3          2.0858    0.0597   -1.0284 H         1 <0>         0.1156
     26 H4          0.5062    1.9994   -0.9342 H         1 <0>         0.0840
     27 H5         -0.3389    0.4438   -1.1190 H         1 <0>         0.1418
     28 H6          0.6248    5.5308    2.4149 H         1 <0>         0.2015
     29 H7         -2.1261    3.1422    4.4072 H         1 <0>         0.2090
     30 H8         -3.4005   -0.9382    3.1687 H         1 <0>         0.4102
     31 H9         -4.0283   -2.4737    2.9032 H         1 <0>         0.4460
     32 H10         1.9437    4.6920    0.6384 H         1 <0>         0.1710
     33 H11         1.7882    2.9970    0.1179 H         1 <0>         0.1475
     34 H12         2.1599    3.7216   -1.9579 H         1 <0>         0.1609
     35 H13         1.2451    6.6354   -1.9938 H         1 <0>         0.1184
     36 H14         2.6377    5.9839   -1.0953 H         1 <0>         0.1392
     37 H15         3.6903    5.2817   -3.2219 H         1 <0>         0.1457
     38 H16         3.3501    7.0287   -3.2354 H         1 <0>         0.1589
     39 H17         2.2862    3.7758   -4.4782 H         1 <0>         0.1457
     40 H18         0.9150    4.4169   -5.4145 H         1 <0>         0.1578
     41 H19         0.1469    3.3125   -3.3239 H         1 <0>         0.1333
     42 H20        -0.2310    5.0522   -3.3137 H         1 <0>         0.1182
     43 N6          0.4822    4.3468   -0.8408 N.4       1 <0>        -0.5258
     44 H21         0.0394    5.2526   -0.6466 H         1 <0>         0.4455
     45 H22        -0.2418    3.6507   -1.0540 H         1 <0>         0.4274
     46 N7          2.0795    5.8742   -4.4473 N.4       1 <0>        -0.5237
     47 H23         2.6682    6.0169   -5.2763 H         1 <0>         0.4578
     48 H24         1.3252    6.5707   -4.4392 H         1 <0>         0.4401
     49 N8         -1.8590    1.0286    2.4695 N.pl3     1 <0>        -0.4723
     50 H25        -2.5457    0.6011    3.1020 H         1 <0>         0.4828
@<TRIPOS>BOND
     1    1    2 1
     2    1   23 1
     3    1   24 1
     4    1   25 1
     5    2    3 1
     6    2   26 1
     7    2   27 1
     8    3   10 1
     9    3    4 1
    10    4    9 ar
    11    4    5 ar
    12    5    6 ar
    13    5   17 1
    14    6    7 ar
    15    6   28 1
    16    7    8 ar
    17    8    9 ar
    18    8   29 1
    19    9   49 1
    20   10   11 1
    21   10   49 2
    22   11   15 2
    23   11   12 1
    24   12   13 2
    25   12   16 1
    26   13   14 1
    27   14   15 1
    28   16   30 1
    29   16   31 1
    30   17   32 1
    31   17   33 1
    32   17   43 1
    33   18   22 1
    34   18   19 1
    35   18   34 1
    36   18   43 1
    37   19   20 1
    38   19   35 1
    39   19   36 1
    40   20   37 1
    41   20   38 1
    42   20   46 1
    43   21   22 1
    44   21   39 1
    45   21   40 1
    46   21   46 1
    47   22   41 1
    48   22   42 1
    49   43   44 1
    50   43   45 1
    51   46   47 1
    52   46   48 1
    53   49   50 1
@<TRIPOS>MOLECULE
ZINC13998530
   48    51     0     0     0
SMALL
USER_CHARGES
N-[[2-(4-amino-1,2,5-oxadiazol-3-yl)-1-ethyl-imidazo[5,4-d]pyridin-7-yl]methyl]piperidin-4-amine
@<TRIPOS>ATOM
      1 C1          1.5587    0.3111   -0.1080 C.3       1 <0>        -0.1786
      2 C2          0.2652    1.0542   -0.4478 C.3       1 <0>         0.0984
      3 N1         -0.4854    1.3157    0.7828 N.pl3     1 <0>        -0.4740
      4 C3         -0.4224    2.4543    1.5497 C.ar      1 <0>         0.0984
      5 C4          0.2805    3.6520    1.4788 C.ar      1 <0>        -0.2089
      6 C5          0.0830    4.5977    2.4615 C.ar      1 <0>         0.1545
      7 N2         -0.7570    4.3848    3.4610 N.ar      1 <0>        -0.4785
      8 C6         -1.4527    3.2734    3.5731 C.ar      1 <0>         0.2265
      9 C7         -1.3129    2.2569    2.6252 C.ar      1 <0>         0.0045
     10 N3         -1.8585    1.0289    2.4690 N.2       1 <0>        -0.4438
     11 C8         -1.3766    0.4683    1.3870 C.2       1 <0>         0.3923
     12 C9         -1.7401   -0.8779    0.8921 C.2       1 <0>        -0.0123
     13 C10        -2.6825   -1.8587    1.4795 C.2       1 <0>         0.3390
     14 N4         -2.6148   -2.8606    0.6343 N.2       1 <0>        -0.4099
     15 O1         -1.8331   -2.5921   -0.2473 O.3       1 <0>         0.3511
     16 N5         -1.3034   -1.5081   -0.1774 N.2       1 <0>        -0.3239
     17 N6         -3.4473   -1.7455    2.6331 N.pl3     1 <0>        -0.8239
     18 C11         1.2410    3.9115    0.3469 C.3       1 <0>         0.0492
     19 N7          0.4927    4.3449   -0.8406 N.4       1 <0>        -0.5443
     20 C12         1.3822    4.4840   -2.0015 C.3       1 <0>         0.0286
     21 C13         2.0249    5.8738   -1.9900 C.3       1 <0>        -0.1779
     22 C14         2.9024    6.0349   -3.2334 C.3       1 <0>         0.0501
     23 N8          2.0812    5.8656   -4.4389 N.3       1 <0>        -0.6639
     24 C15         1.4918    4.5218   -4.4955 C.3       1 <0>         0.0503
     25 C16         0.5721    4.3156   -3.2899 C.3       1 <0>        -0.1817
     26 H1          2.1223    0.1147   -1.0320 H         1 <0>         0.0939
     27 H2          1.3154   -0.6428    0.3829 H         1 <0>         0.0792
     28 H3          2.1683    0.9271    0.5695 H         1 <0>         0.0650
     29 H4          0.5085    2.0081   -0.9386 H         1 <0>         0.0660
     30 H5         -0.3444    0.4382   -1.1253 H         1 <0>         0.1214
     31 H6          0.6248    5.5308    2.4149 H         1 <0>         0.1741
     32 H7         -2.1261    3.1422    4.4072 H         1 <0>         0.1835
     33 H8         -4.1062   -2.5714    2.9394 H         1 <0>         0.4473
     34 H9         -3.3942   -0.8300    3.2405 H         1 <0>         0.4545
     35 H10         1.9502    4.6992    0.6411 H         1 <0>         0.1484
     36 H11         1.7932    2.9887    0.1157 H         1 <0>         0.1304
     37 H12        -0.2824    3.6011   -1.0772 H         1 <0>         0.4360
     38 H13         2.1485    3.6993   -1.9174 H         1 <0>         0.1334
     39 H14         1.2375    6.6419   -1.9927 H         1 <0>         0.0911
     40 H15         2.6423    5.9848   -1.0864 H         1 <0>         0.0950
     41 H16         3.3541    7.0379   -3.2359 H         1 <0>         0.1018
     42 H17         3.6974    5.2747   -3.2221 H         1 <0>         0.0861
     43 H18         0.9095    4.4156   -5.4227 H         1 <0>         0.1017
     44 H19         2.2934    3.7687   -4.4776 H         1 <0>         0.0861
     45 H20         0.1423    3.3036   -3.3232 H         1 <0>         0.0920
     46 H21        -0.2383    5.0590   -3.3133 H         1 <0>         0.0912
     47 H22         1.2675    6.6058   -4.4351 H         1 <0>         0.3507
     48 H23         0.0189    5.3173   -0.6407 H         1 <0>         0.4498
@<TRIPOS>BOND
     1    1    2 1
     2    1   26 1
     3    1   27 1
     4    1   28 1
     5    2    3 1
     6    2   29 1
     7    2   30 1
     8    3   11 1
     9    3    4 1
    10    4    9 ar
    11    4    5 ar
    12    5    6 ar
    13    5   18 1
    14    6    7 ar
    15    6   31 1
    16    7    8 ar
    17    8    9 ar
    18    8   32 1
    19    9   10 1
    20   10   11 2
    21   11   12 1
    22   12   16 2
    23   12   13 1
    24   13   14 2
    25   13   17 1
    26   14   15 1
    27   15   16 1
    28   17   33 1
    29   17   34 1
    30   18   19 1
    31   18   35 1
    32   18   36 1
    33   19   20 1
    34   19   37 1
    35   19   48 1
    36   20   25 1
    37   20   21 1
    38   20   38 1
    39   21   22 1
    40   21   39 1
    41   21   40 1
    42   22   23 1
    43   22   41 1
    44   22   42 1
    45   23   24 1
    46   23   47 1
    47   24   25 1
    48   24   43 1
    49   24   44 1
    50   25   45 1
    51   25   46 1
@<TRIPOS>MOLECULE
ZINC13981024
   27    29     0     0     0
SMALL
USER_CHARGES
4-(1-ethylimidazo[4,5-c]pyridin-2-yl)-1,2,5-oxadiazol-3-amine
@<TRIPOS>ATOM
      1 C1         -1.5864   -1.1894   -1.4308 C.3       1 <0>        -0.1670
      2 C2         -1.1654   -0.8891    0.0091 C.3       1 <0>         0.0988
      3 N1          0.0021   -0.0041    0.0020 N.pl3     1 <0>        -0.4647
      4 C3         -0.0166    1.3700    0.0096 C.ar      1 <0>         0.0894
      5 C4         -1.0112    2.3416    0.0293 C.ar      1 <0>        -0.1591
      6 C5         -0.6432    3.6696    0.0287 C.ar      1 <0>         0.1041
      7 N2          0.6297    4.0298    0.0184 N.ar      1 <0>        -0.4826
      8 C6          1.6108    3.1528    0.0040 C.ar      1 <0>         0.1849
      9 C7          1.3314    1.7841   -0.0011 C.ar      1 <0>        -0.0037
     10 N3          2.0909    0.6647   -0.0143 N.2       1 <0>        -0.4528
     11 C8          1.3161   -0.3921   -0.0126 C.2       1 <0>         0.3614
     12 C9          1.7892   -1.7940   -0.0242 C.2       1 <0>         0.0171
     13 C10         3.1804   -2.3031   -0.0462 C.2       1 <0>         0.3250
     14 N4          3.0078   -3.6042   -0.0455 N.2       1 <0>        -0.4089
     15 O1          1.8256   -3.8541   -0.0355 O.3       1 <0>         0.3400
     16 N5          1.0803   -2.9027   -0.0233 N.2       1 <0>        -0.3200
     17 N6          4.3685   -1.5844   -0.0608 N.pl3     1 <0>        -0.7993
     18 H1         -0.7645   -1.6764   -1.9556 H         1 <0>         0.0631
     19 H2         -2.4550   -1.8479   -1.4255 H         1 <0>         0.0850
     20 H3         -1.8397   -0.2580   -1.9371 H         1 <0>         0.0629
     21 H4         -0.9121   -1.8205    0.5154 H         1 <0>         0.1064
     22 H5         -1.9873   -0.4021    0.5339 H         1 <0>         0.0973
     23 H6         -2.0539    2.0603    0.0423 H         1 <0>         0.1372
     24 H7         -1.4088    4.4312    0.0404 H         1 <0>         0.1669
     25 H8          2.6359    3.4926   -0.0036 H         1 <0>         0.1700
     26 H9          4.3488   -0.6146   -0.0570 H         1 <0>         0.4303
     27 H10         5.2182   -2.0521   -0.0749 H         1 <0>         0.4185
@<TRIPOS>BOND
     1    1    2 1
     2    1   18 1
     3    1   19 1
     4    1   20 1
     5    2    3 1
     6    2   21 1
     7    2   22 1
     8    3   11 1
     9    3    4 1
    10    4    9 ar
    11    4    5 ar
    12    5    6 ar
    13    5   23 1
    14    6    7 ar
    15    6   24 1
    16    7    8 ar
    17    8    9 ar
    18    8   25 1
    19    9   10 1
    20   10   11 2
    21   11   12 1
    22   12   16 2
    23   12   13 1
    24   13   14 2
    25   13   17 1
    26   14   15 1
    27   15   16 1
    28   17   26 1
    29   17   27 1
@<TRIPOS>MOLECULE
ZINC13981024
   28    30     0     0     0
SMALL
USER_CHARGES
4-(1-ethylimidazo[4,5-c]pyridin-2-yl)-1,2,5-oxadiazol-3-amine
@<TRIPOS>ATOM
      1 C1         -1.5864   -1.1894   -1.4308 C.3       1 <0>        -0.1754
      2 C2         -1.1654   -0.8891    0.0091 C.3       1 <0>         0.0846
      3 N1          0.0021   -0.0041    0.0020 N.pl3     1 <0>        -0.4051
      4 C3         -0.0166    1.3700    0.0096 C.ar      1 <0>         0.1234
      5 C4         -1.0112    2.3416    0.0293 C.ar      1 <0>        -0.1341
      6 C5         -0.6432    3.6696    0.0287 C.ar      1 <0>         0.1473
      7 N2          0.6297    4.0298    0.0184 N.ar      1 <0>        -0.4393
      8 C6          1.6108    3.1528    0.0040 C.ar      1 <0>         0.1869
      9 C7          1.3314    1.7841   -0.0011 C.ar      1 <0>        -0.0058
     10 C8          1.3161   -0.3921   -0.0126 C.cat     1 <0>         0.4895
     11 C9          1.7892   -1.7940   -0.0242 C.2       1 <0>        -0.0625
     12 C10         3.1804   -2.3031   -0.0462 C.2       1 <0>         0.3286
     13 N3          3.0078   -3.6042   -0.0455 N.2       1 <0>        -0.3685
     14 O1          1.8256   -3.8541   -0.0355 O.3       1 <0>         0.4024
     15 N4          1.0803   -2.9027   -0.0233 N.2       1 <0>        -0.2761
     16 N5          4.3685   -1.5844   -0.0608 N.pl3     1 <0>        -0.7984
     17 H1         -0.7645   -1.6764   -1.9556 H         1 <0>         0.0696
     18 H2         -2.4550   -1.8479   -1.4255 H         1 <0>         0.1077
     19 H3         -1.8397   -0.2580   -1.9371 H         1 <0>         0.0743
     20 H4         -0.9121   -1.8205    0.5154 H         1 <0>         0.1264
     21 H5         -1.9873   -0.4021    0.5339 H         1 <0>         0.1292
     22 H6         -2.0539    2.0603    0.0423 H         1 <0>         0.1690
     23 H7         -1.4088    4.4312    0.0404 H         1 <0>         0.1943
     24 H8          2.6359    3.4926   -0.0036 H         1 <0>         0.1911
     25 H9          4.3488   -0.6146   -0.0570 H         1 <0>         0.4102
     26 H10         5.2182   -2.0521   -0.0749 H         1 <0>         0.4388
     27 N6          2.0917    0.6647   -0.0143 N.pl3     1 <0>        -0.4784
     28 H11         3.1182    0.6460   -0.0242 H         1 <0>         0.4702
@<TRIPOS>BOND
     1    1    2 1
     2    1   17 1
     3    1   18 1
     4    1   19 1
     5    2    3 1
     6    2   20 1
     7    2   21 1
     8    3   10 1
     9    3    4 1
    10    4    9 ar
    11    4    5 ar
    12    5    6 ar
    13    5   22 1
    14    6    7 ar
    15    6   23 1
    16    7    8 ar
    17    8    9 ar
    18    8   24 1
    19    9   27 1
    20   10   11 1
    21   10   27 2
    22   11   15 2
    23   11   12 1
    24   12   13 2
    25   12   16 1
    26   13   14 1
    27   14   15 1
    28   16   25 1
    29   16   26 1
    30   27   28 1
@<TRIPOS>MOLECULE
ZINC18847046
   29    31     0     0     0
SMALL
USER_CHARGES

@<TRIPOS>ATOM
      1 C1         -0.0184    1.5028    0.0103 C.3       1 <0>        -0.1424
      2 C2          0.0021   -0.0041    0.0020 C.ar      1 <0>         0.1556
      3 C3          0.0057   -0.6865   -1.2084 C.ar      1 <0>         0.1146
      4 C4          0.0254   -2.0919   -1.1857 C.ar      1 <0>         0.0189
      5 C5          0.0408   -2.7431    0.0474 C.ar      1 <0>        -0.0789
      6 C6          0.0361   -1.9836    1.1979 C.ar      1 <0>         0.0838
      7 N1          0.0219   -0.6634    1.1422 N.ar      1 <0>        -0.4304
      8 C7          0.0239   -2.5347   -2.5884 C.ar      1 <0>        -0.1673
      9 C8          0.0375   -3.7874   -3.2002 C.ar      1 <0>         0.0049
     10 C9          0.0309   -3.8808   -4.5734 C.ar      1 <0>        -0.2172
     11 C10         0.0111   -2.7283   -5.3537 C.ar      1 <0>         0.2058
     12 C11        -0.0026   -1.4801   -4.7588 C.ar      1 <0>        -0.1848
     13 C12         0.0034   -1.3698   -3.3723 C.ar      1 <0>         0.2065
     14 N2         -0.0072   -0.2742   -2.5278 N.pl3     1 <0>        -0.5835
     15 H1         -0.0219    0.6508   -2.8196 H         1 <0>         0.4355
     16 O1          0.0057   -2.8305   -6.7086 O.3       1 <0>        -0.3026
     17 C13         0.0210   -4.1488   -7.2598 C.3       1 <0>         0.0197
     18 H2          1.0042    1.8801    0.0026 H         1 <0>         0.1154
     19 H3         -0.5455    1.8639   -0.8728 H         1 <0>         0.1057
     20 H4         -0.5286    1.8543    0.9071 H         1 <0>         0.1048
     21 H5          0.0557   -3.8217    0.1000 H         1 <0>         0.1843
     22 H6          0.0478   -2.4751    2.1595 H         1 <0>         0.2108
     23 H7          0.0536   -4.6834   -2.5974 H         1 <0>         0.1456
     24 H8          0.0415   -4.8513   -5.0470 H         1 <0>         0.1504
     25 H9         -0.0176   -0.5905   -5.3710 H         1 <0>         0.1490
     26 H10         0.9199   -4.6699   -6.9305 H         1 <0>         0.0657
     27 H11        -0.8598   -4.6944   -6.9214 H         1 <0>         0.0657
     28 H12         0.0146   -4.0877   -8.3481 H         1 <0>         0.1130
     29 H13         0.0229   -0.1610    1.9720 H         1 <0>         0.4514
@<TRIPOS>BOND
     1    1    2 1
     2    1   18 1
     3    1   19 1
     4    1   20 1
     5    2    7 ar
     6    2    3 ar
     7    3   14 1
     8    3    4 ar
     9    4    5 ar
    10    4    8 1
    11    5    6 ar
    12    5   21 1
    13    6    7 ar
    14    6   22 1
    15    7   29 1
    16    8   13 ar
    17    8    9 ar
    18    9   10 ar
    19    9   23 1
    20   10   11 ar
    21   10   24 1
    22   11   12 ar
    23   11   16 1
    24   12   13 ar
    25   12   25 1
    26   13   14 1
    27   14   15 1
    28   16   17 1
    29   17   26 1
    30   17   27 1
    31   17   28 1
@<TRIPOS>MOLECULE
ZINC03873287
   50    53     0     0     0
SMALL
USER_CHARGES

@<TRIPOS>ATOM
      1 C1          1.0640   -0.4441   -0.7878 C.ar      1 <0>        -0.1410
      2 C2          2.2473    0.2676   -0.8051 C.ar      1 <0>        -0.0006
      3 C3          2.3751    1.4182   -0.0486 C.ar      1 <0>        -0.6984
      4 C4          1.3192    1.8600    0.7275 C.ar      1 <0>         0.0094
      5 C5          0.1332    1.1527    0.7497 C.ar      1 <0>        -0.1704
      6 C6          0.0014   -0.0032   -0.0094 C.ar      1 <0>         0.2324
      7 N1         -1.1980   -0.7210    0.0101 N.pl3     1 <0>        -0.6339
      8 C7         -1.1808   -2.1027   -0.1021 C.ar      1 <0>         0.6156
      9 N2         -2.3307   -2.7504   -0.1982 N.ar      1 <0>        -0.5803
     10 C8         -2.3525   -4.0741   -0.3076 C.ar      1 <0>         0.3394
     11 C9         -1.1370   -4.7803   -0.3202 C.ar      1 <0>        -0.1015
     12 C10         0.0574   -4.0511   -0.2158 C.ar      1 <0>         0.4739
     13 N3         -0.0115   -2.7302   -0.1151 N.ar      1 <0>        -0.6058
     14 O1          1.2559   -4.6825   -0.2224 O.3       1 <0>        -0.2730
     15 C11         2.4214   -3.8631   -0.1117 C.3       1 <0>         0.0667
     16 C12         3.6703   -4.7467   -0.1370 C.3       1 <0>        -0.0863
     17 C13         3.6862   -5.6428    1.1030 C.3       1 <0>        -0.1150
     18 C14         4.9350   -6.5264    1.0776 C.3       1 <0>        -0.1192
     19 C15         6.1845   -5.6434    1.0704 C.3       1 <0>        -0.1224
     20 C16         6.1685   -4.7473   -0.1696 C.3       1 <0>        -0.1175
     21 C17         4.9197   -3.8637   -0.1443 C.3       1 <0>        -0.1128
     22 N4         -1.4413   -6.0963   -0.4395 N.2       1 <0>        -0.4434
     23 C18        -2.7329   -6.2385   -0.4993 C.2       1 <0>         0.2546
     24 N5         -3.3404   -5.0194   -0.4220 N.pl3     1 <0>        -0.5790
     25 H1         -4.2955   -4.8516   -0.4439 H         1 <0>         0.4341
     26 S1          3.8869    2.3230   -0.0731 S.o2      1 <0>         2.7018
     27 O2          3.9389    3.0598    1.1409 O.2       1 <0>        -0.9640
     28 O3          4.9035    1.4050   -0.4512 O.2       1 <0>        -0.9607
     29 N6          3.7731    3.4335   -1.2963 N.pl3     1 <0>        -1.2490
     30 H2          0.9633   -1.3401   -1.3823 H         1 <0>         0.1431
     31 H3          3.0740   -0.0749   -1.4098 H         1 <0>         0.1446
     32 H4          1.4223    2.7589    1.3171 H         1 <0>         0.1468
     33 H5         -0.6908    1.4978    1.3565 H         1 <0>         0.1381
     34 H6         -2.0423   -0.2524    0.1021 H         1 <0>         0.4303
     35 H7          2.4544   -3.1635   -0.9469 H         1 <0>         0.0726
     36 H8          2.3879   -3.3083    0.8259 H         1 <0>         0.0738
     37 H9          3.6584   -5.3669   -1.0334 H         1 <0>         0.0830
     38 H10         3.6980   -5.0227    1.9993 H         1 <0>         0.0614
     39 H11         2.7961   -6.2719    1.1081 H         1 <0>         0.0692
     40 H12         4.9464   -7.1648    1.9610 H         1 <0>         0.0623
     41 H13         4.9232   -7.1466    0.1813 H         1 <0>         0.0626
     42 H14         6.1963   -5.0233    1.9667 H         1 <0>         0.0620
     43 H15         7.0741   -6.2729    1.0524 H         1 <0>         0.0618
     44 H16         7.0587   -4.1182   -0.1747 H         1 <0>         0.0663
     45 H17         6.1567   -5.3675   -1.0659 H         1 <0>         0.0630
     46 H18         4.9084   -3.2253   -1.0277 H         1 <0>         0.0678
     47 H19         4.9315   -3.2436    0.7521 H         1 <0>         0.0678
     48 H20        -3.2485   -7.1825   -0.5967 H         1 <0>         0.2311
     49 H21         4.2460    4.2778   -1.2303 H         1 <0>         0.4215
     50 H22         3.2336    3.2396   -2.0787 H         1 <0>         0.4170
@<TRIPOS>BOND
     1    1    6 ar
     2    1    2 ar
     3    1   30 1
     4    2    3 ar
     5    2   31 1
     6    3    4 ar
     7    3   26 1
     8    4    5 ar
     9    4   32 1
    10    5    6 ar
    11    5   33 1
    12    6    7 1
    13    7    8 1
    14    7   34 1
    15    8   13 ar
    16    8    9 ar
    17    9   10 ar
    18   10   24 1
    19   10   11 ar
    20   11   12 ar
    21   11   22 1
    22   12   13 ar
    23   12   14 1
    24   14   15 1
    25   15   16 1
    26   15   35 1
    27   15   36 1
    28   16   21 1
    29   16   17 1
    30   16   37 1
    31   17   18 1
    32   17   38 1
    33   17   39 1
    34   18   19 1
    35   18   40 1
    36   18   41 1
    37   19   20 1
    38   19   42 1
    39   19   43 1
    40   20   21 1
    41   20   44 1
    42   20   45 1
    43   21   46 1
    44   21   47 1
    45   22   23 2
    46   23   24 1
    47   23   48 1
    48   24   25 1
    49   26   27 2
    50   26   28 2
    51   26   29 1
    52   29   49 1
    53   29   50 1
@<TRIPOS>MOLECULE
ZINC08830553
   23    24     0     0     0
SMALL
USER_CHARGES

@<TRIPOS>ATOM
      1 C1         -0.0178    1.4608    0.0101 C.3       1 <0>         0.1046
      2 N1          0.0021   -0.0041    0.0020 N.pl3     1 <0>        -0.5941
      3 C2          0.0241   -0.7433    1.2666 C.3       1 <0>         0.0832
      4 C3          0.0000   -0.6873   -1.1963 C.2       1 <0>         0.5723
      5 N2          0.0119   -2.0467   -1.3242 N.pl3     1 <0>        -0.6100
      6 H1          0.0232   -2.6926   -0.6006 H         1 <0>         0.4284
      7 C4          0.0041   -2.3318   -2.6805 C.ar      1 <0>         0.0801
      8 C5         -0.0126   -1.0922   -3.3399 C.ar      1 <0>         0.1386
      9 N3         -0.0193   -0.1288   -2.3806 N.2       1 <0>        -0.5242
     10 C6         -0.0242   -1.0555   -4.7369 C.ar      1 <0>        -0.0212
     11 C7         -0.0190   -2.2337   -5.4529 C.ar      1 <0>        -0.0459
     12 C8         -0.0029   -3.4564   -4.7961 C.ar      1 <0>        -0.0542
     13 C9          0.0091   -3.5081   -3.4157 C.ar      1 <0>        -0.0340
     14 Br1         0.0322   -5.1789   -2.5303 Br        1 <0>        -0.0066
     15 Br2         0.0027   -5.0609   -5.7968 Br        1 <0>         0.0152
     16 Br3        -0.0346   -2.1836   -7.3432 Br        1 <0>         0.0151
     17 Br4        -0.0474    0.6046   -5.6421 Br        1 <0>         0.0102
     18 H2          1.0048    1.8381    0.0023 H         1 <0>         0.0599
     19 H3         -0.5450    1.8219   -0.8730 H         1 <0>         0.0859
     20 H4         -0.5280    1.8123    0.9069 H         1 <0>         0.0771
     21 H5          0.0224   -0.0395    2.0990 H         1 <0>         0.0963
     22 H6         -0.8567   -1.3823    1.3294 H         1 <0>         0.0616
     23 H7          0.9230   -1.3581    1.3125 H         1 <0>         0.0616
@<TRIPOS>BOND
     1    1    2 1
     2    1   18 1
     3    1   19 1
     4    1   20 1
     5    2    3 1
     6    2    4 1
     7    3   21 1
     8    3   22 1
     9    3   23 1
    10    4    9 2
    11    4    5 1
    12    5    6 1
    13    5    7 1
    14    7   13 ar
    15    7    8 ar
    16    8    9 1
    17    8   10 ar
    18   10   11 ar
    19   10   17 1
    20   11   12 ar
    21   11   16 1
    22   12   13 ar
    23   12   15 1
    24   13   14 1
@<TRIPOS>MOLECULE
ZINC00830943
   37    39     0     0     0
SMALL
USER_CHARGES
1-(3,4-dichlorophenyl)-4-[(4-hydroxy-3-methoxy-phenyl)methylene]pyrazolidine-3,5-dione
@<TRIPOS>ATOM
      1 C1          3.0893    2.5969    2.3384 C.3       1 <0>         0.0225
      2 O1          3.3082    1.5019    1.4468 O.3       1 <0>        -0.3058
      3 C2          2.2633    1.1269    0.6613 C.ar      1 <0>         0.0891
      4 C3          1.0603    1.7964    0.7486 C.ar      1 <0>        -0.1527
      5 C4         -0.0152    1.4062   -0.0630 C.ar      1 <0>        -0.0944
      6 C5          0.1398    0.3376   -0.9582 C.ar      1 <0>        -0.0534
      7 C6          1.3441   -0.3233   -1.0372 C.ar      1 <0>        -0.1183
      8 C7          2.4086    0.0647   -0.2322 C.ar      1 <0>         0.1131
      9 O2          3.5938   -0.5914   -0.3158 O.3       1 <0>        -0.4842
     10 C8         -1.2928    2.1156    0.0197 C.2       1 <0>         0.1297
     11 C9         -2.4774    1.4168   -0.0826 C.2       1 <0>        -0.2911
     12 C10        -2.6566   -0.0480   -0.1061 C.2       1 <0>         0.5702
     13 O3         -1.7782   -0.8869   -0.0387 O.2       1 <0>        -0.4772
     14 N1         -3.9787   -0.2778   -0.2170 N.am      1 <0>        -0.5173
     15 N2         -4.6833    0.9246   -0.2683 N.am      1 <0>        -0.3556
     16 C11        -3.8407    1.9717   -0.1857 C.2       1 <0>         0.5717
     17 O4         -4.1450    3.1496   -0.1969 O.2       1 <0>        -0.4753
     18 C12        -6.0737    1.0285   -0.3824 C.ar      1 <0>         0.1818
     19 C13        -6.8535   -0.1188   -0.4539 C.ar      1 <0>        -0.1410
     20 C14        -8.2259   -0.0141   -0.5666 C.ar      1 <0>        -0.0619
     21 C15        -8.8251    1.2325   -0.6089 C.ar      1 <0>        -0.0530
     22 C16        -8.0505    2.3782   -0.5379 C.ar      1 <0>         0.0032
     23 C17        -6.6769    2.2786   -0.4188 C.ar      1 <0>        -0.1307
     24 Cl1        -8.8057    3.9405   -0.5907 Cl        1 <0>        -0.0302
     25 Cl2       -10.5504    1.3603   -0.7518 Cl        1 <0>        -0.0399
     26 H1          2.2802    2.3498    3.0257 H         1 <0>         0.0570
     27 H2          4.0000    2.7921    2.9046 H         1 <0>         0.1043
     28 H3          2.8207    3.4842    1.7651 H         1 <0>         0.0574
     29 H4          0.9470    2.6187    1.4395 H         1 <0>         0.1407
     30 H5         -0.6856    0.0334   -1.5848 H         1 <0>         0.1345
     31 H6          1.4626   -1.1458   -1.7271 H         1 <0>         0.1430
     32 H7          4.2050   -0.2182   -0.9656 H         1 <0>         0.3929
     33 H8         -1.3079    3.1862    0.1608 H         1 <0>         0.1602
     34 H9         -4.3848   -1.1579   -0.2554 H         1 <0>         0.4396
     35 H10        -6.3867   -1.0922   -0.4217 H         1 <0>         0.1403
     36 H11        -8.8321   -0.9062   -0.6222 H         1 <0>         0.1536
     37 H12        -6.0733    3.1721   -0.3586 H         1 <0>         0.1770
@<TRIPOS>BOND
     1    1    2 1
     2    1   26 1
     3    1   27 1
     4    1   28 1
     5    2    3 1
     6    3    8 ar
     7    3    4 ar
     8    4    5 ar
     9    4   29 1
    10    5    6 ar
    11    5   10 1
    12    6    7 ar
    13    6   30 1
    14    7    8 ar
    15    7   31 1
    16    8    9 1
    17    9   32 1
    18   10   11 2
    19   10   33 1
    20   11   16 1
    21   11   12 1
    22   12   13 2
    23   12   14 am
    24   14   15 1
    25   14   34 1
    26   15   16 am
    27   15   18 1
    28   16   17 2
    29   18   23 ar
    30   18   19 ar
    31   19   20 ar
    32   19   35 1
    33   20   21 ar
    34   20   36 1
    35   21   22 ar
    36   21   25 1
    37   22   23 ar
    38   22   24 1
    39   23   37 1
@<TRIPOS>MOLECULE
ZINC04793192
   32    33     0     0     0
SMALL
USER_CHARGES

@<TRIPOS>ATOM
      1 C1         -0.0187    1.5258    0.0104 C.3       1 <0>        -0.1731
      2 C2          0.0021   -0.0041    0.0020 C.3       1 <0>         0.0913
      3 N1         -1.3723   -0.5112    0.0124 N.pl3     1 <0>        -0.5203
      4 C3         -2.0094   -0.7513    1.2163 C.ar      1 <0>         0.1712
      5 C4         -1.4905   -0.5662    2.5094 C.ar      1 <0>        -0.1676
      6 C5         -2.2500   -0.8515    3.6236 C.ar      1 <0>         0.1693
      7 C6         -3.5487   -1.3301    3.5043 C.ar      1 <0>        -0.2138
      8 C7         -4.0819   -1.5205    2.2422 C.ar      1 <0>         0.0032
      9 C8         -3.3231   -1.2351    1.1318 C.ar      1 <0>        -0.2198
     10 S1         -3.6141   -1.3345   -0.6181 S.3       1 <0>         0.1230
     11 C9         -2.0228   -0.7401   -1.1673 C.2       1 <0>         0.2214
     12 C10        -1.5620   -0.5581   -2.4650 C.2       1 <0>        -0.3307
     13 C11        -2.3849   -0.8515   -3.5396 C.2       1 <0>         0.3841
     14 O1         -3.5126   -1.2692   -3.3468 O.2       1 <0>        -0.4977
     15 C12        -1.8850   -0.6541   -4.9475 C.3       1 <0>        -0.1881
     16 O2         -1.7188   -0.6617    4.8607 O.3       1 <0>        -0.3138
     17 C13        -2.5516   -0.9740    5.9792 C.3       1 <0>         0.0251
     18 H1          1.0039    1.9031    0.0027 H         1 <0>         0.0791
     19 H2         -0.5459    1.8868   -0.8726 H         1 <0>         0.0664
     20 H3         -0.5289    1.8773    0.9072 H         1 <0>         0.0626
     21 H4          0.5123   -0.3556   -0.8948 H         1 <0>         0.0976
     22 H5          0.5293   -0.3651    0.8851 H         1 <0>         0.0922
     23 H6         -0.4833   -0.1959    2.6315 H         1 <0>         0.1374
     24 H7         -4.1339   -1.5507    4.3848 H         1 <0>         0.1448
     25 H8         -5.0897   -1.8922    2.1295 H         1 <0>         0.1419
     26 H9         -0.5620   -0.1877   -2.6360 H         1 <0>         0.1438
     27 H10        -0.8625   -0.2773   -4.9205 H         1 <0>         0.0742
     28 H11        -1.9075   -1.6061   -5.4779 H         1 <0>         0.0860
     29 H12        -2.5233    0.0639   -5.4624 H         1 <0>         0.0859
     30 H13        -3.4490   -0.3560    5.9478 H         1 <0>         0.0600
     31 H14        -2.8334   -2.0262    5.9398 H         1 <0>         0.0600
     32 H15        -2.0077   -0.7779    6.9032 H         1 <0>         0.1044
@<TRIPOS>BOND
     1    1    2 1
     2    1   18 1
     3    1   19 1
     4    1   20 1
     5    2    3 1
     6    2   21 1
     7    2   22 1
     8    3   11 1
     9    3    4 1
    10    4    9 ar
    11    4    5 ar
    12    5    6 ar
    13    5   23 1
    14    6    7 ar
    15    6   16 1
    16    7    8 ar
    17    7   24 1
    18    8    9 ar
    19    8   25 1
    20    9   10 1
    21   10   11 1
    22   11   12 2
    23   12   13 1
    24   12   26 1
    25   13   14 2
    26   13   15 1
    27   15   27 1
    28   15   28 1
    29   15   29 1
    30   16   17 1
    31   17   30 1
    32   17   31 1
    33   17   32 1
@<TRIPOS>MOLECULE
ZINC00368322
   37    39     0     0     0
SMALL
USER_CHARGES
1-(4-fluorophenyl)-4-[(4-hydroxy-3-methoxy-phenyl)methylene]pyrazolidine-3,5-dione
@<TRIPOS>ATOM
      1 C1          2.6279    9.0274   -2.1511 C.3       1 <0>         0.0226
      2 O1          1.3628    9.3157   -1.5523 O.3       1 <0>        -0.3060
      3 C2          0.7572    8.3058   -0.8720 C.ar      1 <0>         0.0894
      4 C3          1.3686    7.0726   -0.7806 C.ar      1 <0>        -0.1537
      5 C4          0.7381    6.0320   -0.0825 C.ar      1 <0>        -0.0929
      6 C5         -0.5054    6.2554    0.5268 C.ar      1 <0>        -0.0538
      7 C6         -1.1041    7.4908    0.4335 C.ar      1 <0>        -0.1177
      8 C7         -0.4801    8.5192   -0.2627 C.ar      1 <0>         0.1117
      9 O2         -1.0760    9.7356   -0.3500 O.3       1 <0>        -0.4843
     10 C8          1.3785    4.7194    0.0149 C.2       1 <0>         0.1259
     11 C9          0.6169    3.5727   -0.0690 C.2       1 <0>        -0.2887
     12 C10        -0.8161    3.4694   -0.4068 C.2       1 <0>         0.5688
     13 O3         -1.5671    4.3896   -0.6697 O.2       1 <0>        -0.4795
     14 N1         -1.1316    2.1608   -0.3740 N.am      1 <0>        -0.5185
     15 N2         -0.0172    1.3957   -0.0305 N.am      1 <0>        -0.3548
     16 C11         1.0580    2.1835    0.1603 C.2       1 <0>         0.5712
     17 O4          2.1787    1.8194    0.4633 O.2       1 <0>        -0.4805
     18 C12        -0.0153    0.0017    0.0929 C.ar      1 <0>         0.1510
     19 C13         1.1555   -0.6650    0.4292 C.ar      1 <0>        -0.1165
     20 C14         1.1538   -2.0403    0.5561 C.ar      1 <0>        -0.1168
     21 C15        -0.0115   -2.7554    0.3365 C.ar      1 <0>         0.0824
     22 C16        -1.1789   -2.0930   -0.0041 C.ar      1 <0>        -0.1193
     23 C17        -1.1829   -0.7174   -0.1264 C.ar      1 <0>        -0.1263
     24 F1         -0.0096   -4.1012    0.4553 F         1 <0>        -0.1352
     25 H1          2.9996    9.9162   -2.6609 H         1 <0>         0.1041
     26 H2          3.3361    8.7288   -1.3783 H         1 <0>         0.0573
     27 H3          2.5128    8.2171   -2.8711 H         1 <0>         0.0569
     28 H4          2.3282    6.9078   -1.2479 H         1 <0>         0.1404
     29 H5         -0.9927    5.4582    1.0685 H         1 <0>         0.1341
     30 H6         -2.0616    7.6619    0.9029 H         1 <0>         0.1427
     31 H7         -0.8398   10.3416    0.3657 H         1 <0>         0.3925
     32 H8          2.4473    4.6489    0.1526 H         1 <0>         0.1597
     33 H9         -2.0125    1.8003   -0.5609 H         1 <0>         0.4389
     34 H10         2.0658   -0.1082    0.5954 H         1 <0>         0.1677
     35 H11         2.0632   -2.5589    0.8216 H         1 <0>         0.1477
     36 H12        -2.0868   -2.6526   -0.1745 H         1 <0>         0.1456
     37 H13        -2.0936   -0.2012   -0.3920 H         1 <0>         0.1341
@<TRIPOS>BOND
     1    1    2 1
     2    1   25 1
     3    1   26 1
     4    1   27 1
     5    2    3 1
     6    3    8 ar
     7    3    4 ar
     8    4    5 ar
     9    4   28 1
    10    5    6 ar
    11    5   10 1
    12    6    7 ar
    13    6   29 1
    14    7    8 ar
    15    7   30 1
    16    8    9 1
    17    9   31 1
    18   10   11 2
    19   10   32 1
    20   11   16 1
    21   11   12 1
    22   12   13 2
    23   12   14 am
    24   14   15 1
    25   14   33 1
    26   15   16 am
    27   15   18 1
    28   16   17 2
    29   18   23 ar
    30   18   19 ar
    31   19   20 ar
    32   19   34 1
    33   20   21 ar
    34   20   35 1
    35   21   22 ar
    36   21   24 1
    37   22   23 ar
    38   22   36 1
    39   23   37 1
@<TRIPOS>MOLECULE
ZINC40940077
   41    43     0     0     0
SMALL
USER_CHARGES

@<TRIPOS>ATOM
      1 C1         -0.2199    1.4476    0.1639 C.3       1 <0>         0.0251
      2 O1         -0.3975    0.0362    0.2993 O.3       1 <0>        -0.3143
      3 C2          0.3314   -0.5880    1.2626 C.ar      1 <0>         0.1135
      4 C3          1.1946    0.1455    2.0634 C.ar      1 <0>        -0.1767
      5 C4          1.9352   -0.4877    3.0419 C.ar      1 <0>        -0.1124
      6 C5          1.8156   -1.8591    3.2241 C.ar      1 <0>         0.1217
      7 C6          0.9513   -2.5927    2.4222 C.ar      1 <0>        -0.1027
      8 C7          0.2072   -1.9572    1.4479 C.ar      1 <0>        -0.1164
      9 N1          2.5666   -2.5021    4.2159 N.am      1 <0>        -0.3526
     10 C8          2.5285   -3.8238    4.4700 C.2       1 <0>         0.5692
     11 O2          1.8512   -4.6537    3.8930 O.2       1 <0>        -0.4839
     12 C9          3.4655   -4.0730    5.5823 C.2       1 <0>        -0.2862
     13 C10         3.7552   -5.2814    6.1804 C.2       1 <0>         0.1220
     14 C11         4.5883   -5.3215    7.3832 C.ar      1 <0>        -0.0910
     15 C12         4.4438   -4.3379    8.3726 C.ar      1 <0>        -0.0542
     16 C13         5.2284   -4.3791    9.5022 C.ar      1 <0>        -0.1176
     17 C14         6.1650   -5.3929    9.6662 C.ar      1 <0>         0.1103
     18 C15         6.3159   -6.3755    8.6867 C.ar      1 <0>         0.0894
     19 C16         5.5301   -6.3471    7.5532 C.ar      1 <0>        -0.1544
     20 O3          7.2342   -7.3647    8.8524 O.3       1 <0>        -0.3062
     21 C17         7.3353   -8.3373    7.8103 C.3       1 <0>         0.0227
     22 O4          6.9359   -5.4271   10.7829 O.3       1 <0>        -0.4845
     23 C18         4.0256   -2.7489    5.9160 C.2       1 <0>         0.5677
     24 O5          4.8433   -2.5054    6.7832 O.2       1 <0>        -0.4822
     25 N2          3.4620   -1.8629    5.0731 N.am      1 <0>        -0.5183
     26 H1          0.8224    1.6616   -0.0727 H         1 <0>         0.0567
     27 H2         -0.8580    1.8188   -0.6380 H         1 <0>         0.1027
     28 H3         -0.4885    1.9391    1.0990 H         1 <0>         0.0567
     29 H4          1.2877    1.2120    1.9213 H         1 <0>         0.1374
     30 H5          2.6074    0.0834    3.6650 H         1 <0>         0.1265
     31 H6          0.8578   -3.6594    2.5634 H         1 <0>         0.1653
     32 H7         -0.4683   -2.5269    0.8270 H         1 <0>         0.1432
     33 H8          3.3674   -6.1981    5.7614 H         1 <0>         0.1592
     34 H9          3.7174   -3.5484    8.2477 H         1 <0>         0.1339
     35 H10         5.1164   -3.6213   10.2635 H         1 <0>         0.1423
     36 H11         5.6430   -7.1096    6.7967 H         1 <0>         0.1402
     37 H12         6.3774   -8.8437    7.6918 H         1 <0>         0.0573
     38 H13         7.6028   -7.8427    6.8765 H         1 <0>         0.0568
     39 H14         8.1028   -9.0672    8.0677 H         1 <0>         0.1039
     40 H15         6.5510   -5.9335   11.5112 H         1 <0>         0.3921
     41 H16         3.6505   -0.9115    5.0651 H         1 <0>         0.4377
@<TRIPOS>BOND
     1    1    2 1
     2    1   26 1
     3    1   27 1
     4    1   28 1
     5    2    3 1
     6    3    8 ar
     7    3    4 ar
     8    4    5 ar
     9    4   29 1
    10    5    6 ar
    11    5   30 1
    12    6    7 ar
    13    6    9 1
    14    7    8 ar
    15    7   31 1
    16    8   32 1
    17    9   25 1
    18    9   10 am
    19   10   11 2
    20   10   12 1
    21   12   13 2
    22   12   23 1
    23   13   14 1
    24   13   33 1
    25   14   19 ar
    26   14   15 ar
    27   15   16 ar
    28   15   34 1
    29   16   17 ar
    30   16   35 1
    31   17   18 ar
    32   17   22 1
    33   18   19 ar
    34   18   20 1
    35   19   36 1
    36   20   21 1
    37   21   37 1
    38   21   38 1
    39   21   39 1
    40   22   40 1
    41   23   24 2
    42   23   25 am
    43   25   41 1
@<TRIPOS>MOLECULE
ZINC40394741
   35    37     0     0     0
SMALL
USER_CHARGES

@<TRIPOS>ATOM
      1 C1          0.1398    1.0671    0.9621 C.ar      1 <0>         0.0233
      2 C2          1.3171    1.7573    1.0190 C.ar      1 <0>        -0.1537
      3 C3          2.3812    1.3923    0.2004 C.ar      1 <0>         0.2132
      4 C4          2.2536    0.3230   -0.6810 C.ar      1 <0>        -0.0925
      5 C5          1.0818   -0.3751   -0.7469 C.ar      1 <0>        -0.0013
      6 C6          0.0051   -0.0120    0.0761 C.ar      1 <0>        -0.1266
      7 C7         -1.2537   -0.7561    0.0105 C.2       1 <0>         0.1254
      8 C8         -2.4553   -0.0902    0.1301 C.2       1 <0>        -0.2812
      9 C9         -2.6749    1.3692    0.1505 C.2       1 <0>         0.5701
     10 O1         -1.8216    2.2319    0.0642 O.2       1 <0>        -0.4839
     11 N1         -4.0008    1.5626    0.2831 N.am      1 <0>        -0.5147
     12 N2         -4.6706    0.3412    0.3514 N.am      1 <0>        -0.3545
     13 C10        -3.8007   -0.6823    0.2588 C.2       1 <0>         0.5739
     14 O2         -4.0717   -1.8682    0.2803 O.2       1 <0>        -0.4704
     15 C11        -6.0554    0.1992    0.4902 C.ar      1 <0>         0.1796
     16 C12        -6.6218   -1.0676    0.5545 C.ar      1 <0>        -0.1289
     17 C13        -7.9889   -1.2057    0.6920 C.ar      1 <0>        -0.0597
     18 C14        -8.7953   -0.0835    0.7658 C.ar      1 <0>        -0.0506
     19 C15        -8.2339    1.1807    0.7014 C.ar      1 <0>         0.0005
     20 C16        -6.8653    1.3241    0.5696 C.ar      1 <0>        -0.1386
     21 Cl1        -9.2486    2.5863    0.7931 Cl        1 <0>        -0.0321
     22 Cl2       -10.5135   -0.2610    0.9386 Cl        1 <0>        -0.0378
     23 N3          3.3902   -0.0582   -1.5492 N.pl3     1 <0>         0.0360
     24 O3          3.2807   -0.9870   -2.3153 O.2       1 <0>        -0.1645
     25 O4          4.4280    0.5592   -1.4921 O.3       1 <0>        -0.1327
     26 O5          3.5477    2.0819    0.2613 O.3       1 <0>        -0.4705
     27 H1         -0.6841    1.3488    1.6010 H         1 <0>         0.1505
     28 H2          1.4221    2.5884    1.7008 H         1 <0>         0.1602
     29 H3          0.9838   -1.2046   -1.4315 H         1 <0>         0.1658
     30 H4         -1.2413   -1.8266   -0.1317 H         1 <0>         0.1689
     31 H5         -4.4306    2.4312    0.3255 H         1 <0>         0.4418
     32 H6         -5.9933   -1.9440    0.4967 H         1 <0>         0.1734
     33 H7         -8.4293   -2.1906    0.7417 H         1 <0>         0.1565
     34 H8         -6.4270    2.3101    0.5242 H         1 <0>         0.1434
     35 H9          4.1787    1.7315    0.9048 H         1 <0>         0.4120
@<TRIPOS>BOND
     1    1    6 ar
     2    1    2 ar
     3    1   27 1
     4    2    3 ar
     5    2   28 1
     6    3    4 ar
     7    3   26 1
     8    4    5 ar
     9    4   23 1
    10    5    6 ar
    11    5   29 1
    12    6    7 1
    13    7    8 2
    14    7   30 1
    15    8   13 1
    16    8    9 1
    17    9   10 2
    18    9   11 am
    19   11   12 1
    20   11   31 1
    21   12   13 am
    22   12   15 1
    23   13   14 2
    24   15   20 ar
    25   15   16 ar
    26   16   17 ar
    27   16   32 1
    28   17   18 ar
    29   17   33 1
    30   18   19 ar
    31   18   22 1
    32   19   20 ar
    33   19   21 1
    34   20   34 1
    35   23   24 2
    36   23   25 1
    37   26   35 1
@<TRIPOS>MOLECULE
ZINC00134647
   33    35     0     0     0
SMALL
USER_CHARGES
1-(3,4-dichlorophenyl)-4-[(4-hydroxyphenyl)methylene]pyrazolidine-3,5-dione
@<TRIPOS>ATOM
      1 C1         -0.9723    1.9638   -1.1600 C.ar      1 <0>        -0.0180
      2 C2         -1.0000    3.3076   -1.4022 C.ar      1 <0>        -0.1565
      3 C3         -0.0876    4.1497   -0.7740 C.ar      1 <0>         0.1435
      4 C4          0.8542    3.6299    0.1086 C.ar      1 <0>        -0.1614
      5 C5          0.8882    2.2886    0.3634 C.ar      1 <0>        -0.0553
      6 C6         -0.0290    1.4344   -0.2667 C.ar      1 <0>        -0.1366
      7 C7          0.0021   -0.0041    0.0020 C.2       1 <0>         0.1344
      8 C8         -1.1771   -0.7102    0.1136 C.2       1 <0>        -0.2972
      9 C9         -2.5492   -0.1673    0.1460 C.2       1 <0>         0.5710
     10 O1         -2.8665    1.0052    0.0792 O.2       1 <0>        -0.4805
     11 N1         -3.3823   -1.2185    0.2642 N.am      1 <0>        -0.5176
     12 N2         -2.6627   -2.4121    0.3121 N.am      1 <0>        -0.3559
     13 C10        -1.3409   -2.1728    0.2199 C.2       1 <0>         0.5719
     14 O2         -0.4517   -3.0032    0.2265 O.2       1 <0>        -0.4762
     15 C11        -3.2353   -3.6828    0.4325 C.ar      1 <0>         0.1820
     16 C12        -4.6153   -3.8191    0.5143 C.ar      1 <0>        -0.1414
     17 C13        -5.1786   -5.0743    0.6331 C.ar      1 <0>        -0.0620
     18 C14        -4.3698   -6.1965    0.6712 C.ar      1 <0>        -0.0532
     19 C15        -2.9938   -6.0642    0.5899 C.ar      1 <0>         0.0033
     20 C16        -2.4255   -4.8102    0.4646 C.ar      1 <0>        -0.1308
     21 Cl1        -1.9823   -7.4742    0.6375 Cl        1 <0>        -0.0301
     22 Cl2        -5.0814   -7.7728    0.8218 Cl        1 <0>        -0.0402
     23 O3         -0.1161    5.4827   -1.0234 O.3       1 <0>        -0.4978
     24 H1         -1.6778    1.3106   -1.6519 H         1 <0>         0.1311
     25 H2         -1.7284    3.7170   -2.0865 H         1 <0>         0.1345
     26 H3          1.5600    4.2885    0.5928 H         1 <0>         0.1361
     27 H4          1.6195    1.8864    1.0489 H         1 <0>         0.1361
     28 H5          0.9485   -0.5124    0.1130 H         1 <0>         0.1599
     29 H6         -4.3491   -1.1544    0.3098 H         1 <0>         0.4392
     30 H7         -5.2473   -2.9438    0.4853 H         1 <0>         0.1401
     31 H8         -6.2515   -5.1802    0.6967 H         1 <0>         0.1534
     32 H9         -1.3526   -4.7073    0.3964 H         1 <0>         0.1772
     33 H10         0.4407    5.7561   -1.7653 H         1 <0>         0.3972
@<TRIPOS>BOND
     1    1    6 ar
     2    1    2 ar
     3    1   24 1
     4    2    3 ar
     5    2   25 1
     6    3    4 ar
     7    3   23 1
     8    4    5 ar
     9    4   26 1
    10    5    6 ar
    11    5   27 1
    12    6    7 1
    13    7    8 2
    14    7   28 1
    15    8   13 1
    16    8    9 1
    17    9   10 2
    18    9   11 am
    19   11   12 1
    20   11   29 1
    21   12   13 am
    22   12   15 1
    23   13   14 2
    24   15   20 ar
    25   15   16 ar
    26   16   17 ar
    27   16   30 1
    28   17   18 ar
    29   17   31 1
    30   18   19 ar
    31   18   22 1
    32   19   20 ar
    33   19   21 1
    34   20   32 1
    35   23   33 1
@<TRIPOS>MOLECULE
ZINC03964325
   57    59     0     0     0
SMALL
USER_CHARGES

@<TRIPOS>ATOM
      1 C1          0.1489    2.0884    0.1150 C.3       1 <0>        -0.1876
      2 C2          0.1348    0.5603    0.1888 C.3       1 <0>        -0.0191
      3 N1         -1.2520    0.0881    0.2979 N.4       1 <0>        -0.3822
      4 C3         -1.9779    0.4111   -0.9377 C.3       1 <0>        -0.0142
      5 C4         -3.4549    0.0484   -0.7712 C.3       1 <0>        -0.1895
      6 C5         -1.2593   -1.3663    0.5041 C.3       1 <0>        -0.0265
      7 C6         -0.6131   -1.6936    1.8518 C.3       1 <0>         0.0952
      8 N2         -0.6203   -3.1440    2.0575 N.am      1 <0>        -0.7289
      9 C7         -0.0988   -3.6675    3.1846 C.2       1 <0>         0.6111
     10 O1          0.3779   -2.9358    4.0309 O.2       1 <0>        -0.5184
     11 C8         -0.1061   -5.1270    3.3915 C.2       1 <0>        -0.2420
     12 C9          0.9071   -6.0320    3.0089 C.2       1 <0>        -0.0577
     13 C10         0.4868   -7.2892    3.3960 C.2       1 <0>        -0.0075
     14 N3         -0.7476   -7.1595    3.9982 N.pl3     1 <0>        -0.4910
     15 H1         -1.2731   -7.8879    4.3645 H         1 <0>         0.4270
     16 C11        -1.1044   -5.8642    4.0022 C.2       1 <0>         0.1158
     17 C12        -2.3825   -5.3072    4.5743 C.3       1 <0>        -0.0999
     18 C13         1.1957   -8.4957    3.2079 C.2       1 <0>         0.0729
     19 C14         0.5100   -9.6674    2.9570 C.2       1 <0>        -0.1889
     20 C15         1.0648  -11.0377    2.8871 C.ar      1 <0>        -0.0736
     21 C16         2.3472  -11.5557    3.0375 C.ar      1 <0>        -0.1000
     22 C17         2.5553  -12.9162    2.9116 C.ar      1 <0>         0.0861
     23 C18         1.4888  -13.7593    2.6366 C.ar      1 <0>        -0.1139
     24 C19         0.2139  -13.2531    2.4856 C.ar      1 <0>        -0.1021
     25 C20        -0.0144  -11.8871    2.6092 C.ar      1 <0>         0.1282
     26 N4         -1.1765  -11.1301    2.5069 N.am      1 <0>        -0.6466
     27 C21        -0.9294   -9.8245    2.7079 C.2       1 <0>         0.5595
     28 O2         -1.7538   -8.9280    2.6842 O.2       1 <0>        -0.5156
     29 F1          3.7984  -13.4252    3.0561 F         1 <0>        -0.1318
     30 C22         2.1990   -5.6919    2.3116 C.3       1 <0>        -0.0931
     31 H2          1.1793    2.4435    0.1331 H         1 <0>         0.1076
     32 H3         -0.3308    2.4121   -0.8087 H         1 <0>         0.0811
     33 H4         -0.3916    2.4984    0.9682 H         1 <0>         0.0809
     34 H5          0.5888    0.1488   -0.7126 H         1 <0>         0.1317
     35 H6          0.6996    0.2334    1.0619 H         1 <0>         0.1337
     36 H7         -1.8867    1.4775   -1.1444 H         1 <0>         0.1351
     37 H8         -1.5554   -0.1571   -1.7664 H         1 <0>         0.1307
     38 H9         -3.5537   -1.0316   -0.6617 H         1 <0>         0.0802
     39 H10        -3.8523    0.5414    0.1160 H         1 <0>         0.0808
     40 H11        -4.0109    0.3769   -1.6492 H         1 <0>         0.1074
     41 H12        -2.2871   -1.7292    0.4963 H         1 <0>         0.1397
     42 H13        -0.6973   -1.8494   -0.2952 H         1 <0>         0.1376
     43 H14         0.4147   -1.3306    1.8596 H         1 <0>         0.0893
     44 H15        -1.1751   -1.2105    2.6511 H         1 <0>         0.0890
     45 H16        -1.0005   -3.7277    1.3824 H         1 <0>         0.4099
     46 H17        -3.1529   -5.3000    3.8032 H         1 <0>         0.0840
     47 H18        -2.7087   -5.9289    5.4080 H         1 <0>         0.0782
     48 H19        -2.2103   -4.2898    4.9254 H         1 <0>         0.0840
     49 H20         2.2744   -8.5020    3.2604 H         1 <0>         0.1589
     50 H21         3.1765  -10.8977    3.2512 H         1 <0>         0.1436
     51 H22         1.6578  -14.8215    2.5394 H         1 <0>         0.1485
     52 H23        -0.6084  -13.9196    2.2712 H         1 <0>         0.1415
     53 H24        -2.0541  -11.4980    2.3189 H         1 <0>         0.4217
     54 H25         2.9686   -5.4822    3.0545 H         1 <0>         0.0785
     55 H26         2.5107   -6.5337    1.6932 H         1 <0>         0.0726
     56 H27         2.0522   -4.8138    1.6827 H         1 <0>         0.0634
     57 H28        -1.7009    0.5410    1.0799 H         1 <0>         0.4247
@<TRIPOS>BOND
     1    1    2 1
     2    1   31 1
     3    1   32 1
     4    1   33 1
     5    2    3 1
     6    2   34 1
     7    2   35 1
     8    3    4 1
     9    3    6 1
    10    3   57 1
    11    4    5 1
    12    4   36 1
    13    4   37 1
    14    5   38 1
    15    5   39 1
    16    5   40 1
    17    6    7 1
    18    6   41 1
    19    6   42 1
    20    7    8 1
    21    7   43 1
    22    7   44 1
    23    8    9 am
    24    8   45 1
    25    9   10 2
    26    9   11 1
    27   11   16 2
    28   11   12 1
    29   12   13 2
    30   12   30 1
    31   13   14 1
    32   13   18 1
    33   14   15 1
    34   14   16 1
    35   16   17 1
    36   17   46 1
    37   17   47 1
    38   17   48 1
    39   18   19 2
    40   18   49 1
    41   19   27 1
    42   19   20 1
    43   20   25 ar
    44   20   21 ar
    45   21   22 ar
    46   21   50 1
    47   22   23 ar
    48   22   29 1
    49   23   24 ar
    50   23   51 1
    51   24   25 ar
    52   24   52 1
    53   25   26 1
    54   26   27 am
    55   26   53 1
    56   27   28 2
    57   30   54 1
    58   30   55 1
    59   30   56 1
@<TRIPOS>MOLECULE
ZINC03902902
   28    30     0     0     0
SMALL
USER_CHARGES

@<TRIPOS>ATOM
      1 C1          0.2301    1.0220    2.2243 C.ar      1 <0>        -0.1012
      2 C2          1.4146    1.7367    2.2153 C.ar      1 <0>        -0.1012
      3 C3          2.5844    1.1482    1.7706 C.ar      1 <0>        -0.0722
      4 C4          2.5725   -0.1721    1.3286 C.ar      1 <0>        -0.1154
      5 C5          1.3687   -0.8986    1.3379 C.ar      1 <0>        -0.1153
      6 C6          0.2002   -0.2904    1.7889 C.ar      1 <0>        -0.0722
      7 C7          1.3471   -2.3006    0.8710 C.2       1 <0>         0.4426
      8 O1          0.3060   -2.9293    0.8786 O.2       1 <0>        -0.4549
      9 C8          2.5869   -2.9340    0.3968 C.ar      1 <0>        -0.1748
     10 C9          2.5792   -4.2601   -0.0483 C.ar      1 <0>         0.2283
     11 C10         3.7643   -4.8502   -0.4969 C.ar      1 <0>        -0.1184
     12 C11         4.9322   -4.1453   -0.5057 C.ar      1 <0>        -0.1184
     13 C12         4.9672   -2.8188   -0.0663 C.ar      1 <0>         0.2283
     14 C13         3.7951   -2.2048    0.3876 C.ar      1 <0>        -0.1749
     15 C14         3.8174   -0.8091    0.8507 C.2       1 <0>         0.4426
     16 O2          4.8588   -0.1810    0.8423 O.2       1 <0>        -0.4549
     17 N1          6.1607   -2.1135   -0.0799 N.pl3     1 <0>        -0.8598
     18 N2          1.3989   -4.9877   -0.0440 N.pl3     1 <0>        -0.8599
     19 H1         -0.6764    1.4906    2.5780 H         1 <0>         0.1369
     20 H2          1.4257    2.7611    2.5573 H         1 <0>         0.1369
     21 H3          3.5056    1.7119    1.7658 H         1 <0>         0.1423
     22 H4         -0.7280   -0.8424    1.7983 H         1 <0>         0.1423
     23 H5          3.7553   -5.8743   -0.8396 H         1 <0>         0.1370
     24 H6          5.8387   -4.6169   -0.8553 H         1 <0>         0.1370
     25 H7          6.8694   -2.3710   -0.6902 H         1 <0>         0.3974
     26 H8          6.2872   -1.3625    0.5209 H         1 <0>         0.4122
     27 H9          1.2902   -5.7391   -0.6477 H         1 <0>         0.3974
     28 H10         0.6820   -4.7454    0.5628 H         1 <0>         0.4122
@<TRIPOS>BOND
     1    1    6 ar
     2    1    2 ar
     3    1   19 1
     4    2    3 ar
     5    2   20 1
     6    3    4 ar
     7    3   21 1
     8    4   15 1
     9    4    5 ar
    10    5    6 ar
    11    5    7 1
    12    6   22 1
    13    7    8 2
    14    7    9 1
    15    9   14 ar
    16    9   10 ar
    17   10   11 ar
    18   10   18 1
    19   11   12 ar
    20   11   23 1
    21   12   13 ar
    22   12   24 1
    23   13   14 ar
    24   13   17 1
    25   14   15 1
    26   15   16 2
    27   17   25 1
    28   17   26 1
    29   18   27 1
    30   18   28 1
@<TRIPOS>MOLECULE
ZINC19795629
   32    35     0     0     0
SMALL
USER_CHARGES
2-(5-oxo-6H-indolo[1,2-a]quinazolin-7-yl)acetic acid
@<TRIPOS>ATOM
      1 C1          5.0288   -3.2609   -0.0585 C.ar      1 <0>        -0.1403
      2 C2          5.6087   -1.9998   -0.0581 C.ar      1 <0>        -0.1598
      3 C3          4.8248   -0.8657   -0.0467 C.ar      1 <0>        -0.1147
      4 C4          3.4401   -0.9846   -0.0345 C.ar      1 <0>         0.0517
      5 C5          2.8564   -2.2635   -0.0349 C.ar      1 <0>        -0.0214
      6 C6          3.6694   -3.4002   -0.0470 C.ar      1 <0>        -0.0967
      7 C7          1.4104   -2.0503   -0.0208 C.2       1 <0>        -0.2125
      8 C8          1.2016   -0.7086   -0.0128 C.2       1 <0>         0.3562
      9 N1          2.4112   -0.0573   -0.0209 N.pl3     1 <0>        -0.4561
     10 C9          2.4598    1.3366   -0.0153 C.ar      1 <0>         0.1942
     11 C10         3.6764    2.0035   -0.0228 C.ar      1 <0>        -0.1820
     12 C11         3.7024    3.3839   -0.0167 C.ar      1 <0>        -0.0898
     13 C12         2.5227    4.1115   -0.0036 C.ar      1 <0>        -0.1751
     14 C13         1.3046    3.4649    0.0040 C.ar      1 <0>        -0.0454
     15 C14         1.2654    2.0713    0.0011 C.ar      1 <0>        -0.1836
     16 C15        -0.0162    1.3432    0.0094 C.2       1 <0>         0.5026
     17 O1         -1.0715    1.9478    0.0177 O.3       1 <0>        -0.6023
     18 N2          0.0021   -0.0041    0.0020 N.2       1 <0>        -0.6483
     19 C16         0.3491   -3.1202   -0.0155 C.3       1 <0>        -0.0594
     20 C17        -0.0181   -3.4705   -1.4345 C.2       1 <0>         0.4700
     21 O2          0.5261   -2.9090   -2.3555 O.co2     1 <0>        -0.6325
     22 O3         -0.9498   -4.4064   -1.6751 O.co2     1 <0>        -0.8037
     23 H1          5.6570   -4.1393   -0.0682 H         1 <0>         0.1065
     24 H2          6.6846   -1.9061   -0.0672 H         1 <0>         0.1073
     25 H3          5.2850    0.1114   -0.0468 H         1 <0>         0.1088
     26 H4          3.2251   -4.3846   -0.0478 H         1 <0>         0.1139
     27 H5          4.6004    1.4444   -0.0338 H         1 <0>         0.1299
     28 H6          4.6503    3.9014   -0.0226 H         1 <0>         0.1170
     29 H7          2.5576    5.1909    0.0003 H         1 <0>         0.1155
     30 H8          0.3870    4.0344    0.0139 H         1 <0>         0.1301
     31 H9          0.7334   -4.0153    0.4955 H         1 <0>         0.0516
     32 H10        -0.5418   -2.7503    0.5132 H         1 <0>         0.0684
@<TRIPOS>BOND
     1    1    6 ar
     2    1    2 ar
     3    1   23 1
     4    2    3 ar
     5    2   24 1
     6    3    4 ar
     7    3   25 1
     8    4    9 1
     9    4    5 ar
    10    5    6 ar
    11    5    7 1
    12    6   26 1
    13    7    8 2
    14    7   19 1
    15    8   18 1
    16    8    9 1
    17    9   10 1
    18   10   15 ar
    19   10   11 ar
    20   11   12 ar
    21   11   27 1
    22   12   13 ar
    23   12   28 1
    24   13   14 ar
    25   13   29 1
    26   14   15 ar
    27   14   30 1
    28   15   16 1
    29   16   17 1
    30   16   18 2
    31   19   20 1
    32   19   31 1
    33   19   32 1
    34   20   21 2
    35   20   22 1
