@<TRIPOS>MOLECULE
ZINC03616630
   52    54     0     0     0
SMALL
USER_CHARGES

@<TRIPOS>ATOM
      1 C1         -0.0187    1.5258    0.0104 C.3       1 <0>        -0.1979
      2 C2          0.0021   -0.0041    0.0020 C.3       1 <0>        -0.0083
      3 H1         -1.0205   -0.3814    0.0098 H         1 <0>         0.1467
      4 C3          0.7421   -0.5109    1.2415 C.3       1 <0>         0.1398
      5 H2          0.8346   -1.5958    1.1912 H         1 <0>         0.1306
      6 C4         -0.0298   -0.1295    2.4784 C.ar      1 <0>        -0.1506
      7 C5          0.0648    1.1546    2.9823 C.ar      1 <0>        -0.0917
      8 C6         -0.6414    1.5067    4.1162 C.ar      1 <0>        -0.1399
      9 C7         -1.4464    0.5707    4.7491 C.ar      1 <0>         0.1318
     10 C8         -1.5399   -0.7170    4.2412 C.ar      1 <0>        -0.1399
     11 C9         -0.8358   -1.0625    3.1041 C.ar      1 <0>        -0.0825
     12 O1         -2.1418    0.9144    5.8650 O.3       1 <0>        -0.4954
     13 O2          2.0438    0.0763    1.2925 O.3       1 <0>        -0.5446
     14 N1          0.6897   -0.4778   -1.2066 N.4       1 <0>        -0.3762
     15 C10        -0.0162    0.0165   -2.3948 C.3       1 <0>        -0.0111
     16 C11         0.7414   -0.4060   -3.6554 C.3       1 <0>        -0.1418
     17 C12         0.8228   -1.9344   -3.7071 C.3       1 <0>        -0.0939
     18 C13         1.4942   -2.4436   -2.4284 C.3       1 <0>        -0.1436
     19 C14         0.7088   -1.9455   -1.2133 C.3       1 <0>        -0.0127
     20 C15         1.6472   -2.3620   -4.9230 C.3       1 <0>        -0.0744
     21 C16         1.6242   -3.8640   -5.0426 C.ar      1 <0>        -0.0948
     22 C17         2.5880   -4.6230   -4.4053 C.ar      1 <0>        -0.1212
     23 C18         2.5668   -6.0008   -4.5150 C.ar      1 <0>        -0.1159
     24 C19         1.5817   -6.6197   -5.2615 C.ar      1 <0>        -0.1163
     25 C20         0.6174   -5.8609   -5.8979 C.ar      1 <0>        -0.1139
     26 C21         0.6360   -4.4833   -5.7848 C.ar      1 <0>        -0.1163
     27 H3          1.0039    1.9031    0.0027 H         1 <0>         0.0834
     28 H4         -0.5459    1.8868   -0.8726 H         1 <0>         0.0917
     29 H5         -0.5289    1.8773    0.9072 H         1 <0>         0.1135
     30 H6          0.6915    1.8829    2.4892 H         1 <0>         0.1279
     31 H7         -0.5667    2.5096    4.5098 H         1 <0>         0.1384
     32 H8         -2.1659   -1.4474    4.7322 H         1 <0>         0.1387
     33 H9         -0.9117   -2.0635    2.7058 H         1 <0>         0.1316
     34 H10        -3.0262    1.2619    5.6858 H         1 <0>         0.4006
     35 H11         2.0381    1.0422    1.3386 H         1 <0>         0.3862
     36 H12        -1.0226   -0.4013   -2.4191 H         1 <0>         0.1283
     37 H13        -0.0762    1.1042   -2.3550 H         1 <0>         0.1325
     38 H14         0.2147   -0.0396   -4.5366 H         1 <0>         0.1136
     39 H15         1.7479    0.0115   -3.6323 H         1 <0>         0.0897
     40 H16        -0.1818   -2.3506   -3.7819 H         1 <0>         0.0907
     41 H17         1.5058   -3.5335   -2.4326 H         1 <0>         0.1159
     42 H18         2.5165   -2.0683   -2.3798 H         1 <0>         0.0897
     43 H19         1.1841   -2.3064   -0.3012 H         1 <0>         0.1315
     44 H20        -0.3131   -2.3215   -1.2627 H         1 <0>         0.1284
     45 H21         1.2224   -1.9192   -5.8239 H         1 <0>         0.0830
     46 H22         2.6760   -2.0229   -4.8019 H         1 <0>         0.0787
     47 H23         3.3577   -4.1394   -3.8221 H         1 <0>         0.1199
     48 H24         3.3202   -6.5937   -4.0177 H         1 <0>         0.1246
     49 H25         1.5656   -7.6962   -5.3477 H         1 <0>         0.1252
     50 H26        -0.1521   -6.3444   -6.4814 H         1 <0>         0.1251
     51 H27        -0.1196   -3.8906   -6.2790 H         1 <0>         0.1213
     52 H28         1.6368   -0.1301   -1.2116 H         1 <0>         0.4242
@<TRIPOS>BOND
     1    1    2 1
     2    1   27 1
     3    1   28 1
     4    1   29 1
     5    2    3 1
     6    2    4 1
     7    2   14 1
     8    4    5 1
     9    4    6 1
    10    4   13 1
    11    6   11 ar
    12    6    7 ar
    13    7    8 ar
    14    7   30 1
    15    8    9 ar
    16    8   31 1
    17    9   10 ar
    18    9   12 1
    19   10   11 ar
    20   10   32 1
    21   11   33 1
    22   12   34 1
    23   13   35 1
    24   14   19 1
    25   14   15 1
    26   14   52 1
    27   15   16 1
    28   15   36 1
    29   15   37 1
    30   16   17 1
    31   16   38 1
    32   16   39 1
    33   17   18 1
    34   17   20 1
    35   17   40 1
    36   18   19 1
    37   18   41 1
    38   18   42 1
    39   19   43 1
    40   19   44 1
    41   20   21 1
    42   20   45 1
    43   20   46 1
    44   21   26 ar
    45   21   22 ar
    46   22   23 ar
    47   22   47 1
    48   23   24 ar
    49   23   48 1
    50   24   25 ar
    51   24   49 1
    52   25   26 ar
    53   25   50 1
    54   26   51 1
@<TRIPOS>MOLECULE
ZINC00598622
   60    61     0     0     0
SMALL
USER_CHARGES
N-[2-(4-methoxy-3-phenethyloxy-phenyl)ethyl]-N-propyl-propan-1-amine
@<TRIPOS>ATOM
      1 C1         -3.4939    6.6424   -4.5066 C.3       1 <0>        -0.1560
      2 C2         -3.3375    6.2721   -3.0303 C.3       1 <0>        -0.1508
      3 C3         -4.2485    5.0874   -2.7024 C.3       1 <0>        -0.0100
      4 C4         -5.3530    4.0242   -0.8283 C.3       1 <0>        -0.0130
      5 C5         -6.5985    4.9127   -0.8405 C.3       1 <0>        -0.1509
      6 C6         -7.8149    4.0918   -0.4078 C.3       1 <0>        -0.1561
      7 C7         -2.9353    4.1266   -0.9093 C.3       1 <0>        -0.0051
      8 C8         -2.7933    4.0750    0.6132 C.3       1 <0>        -0.0956
      9 C9         -1.5079    3.3764    0.9745 C.ar      1 <0>        -0.1071
     10 C10        -1.4944    2.0055    1.1528 C.ar      1 <0>        -0.1034
     11 C11        -0.3189    1.3606    1.4895 C.ar      1 <0>        -0.1713
     12 C12         0.8516    2.0871    1.6386 C.ar      1 <0>         0.1175
     13 C13         0.8392    3.4663    1.4539 C.ar      1 <0>         0.1111
     14 C14        -0.3436    4.1071    1.1217 C.ar      1 <0>        -0.1662
     15 O1          1.9855    4.1836    1.5987 O.3       1 <0>        -0.2990
     16 C15         1.8977    5.5951    1.3940 C.3       1 <0>         0.0671
     17 C16         3.2762    6.2268    1.5986 C.3       1 <0>        -0.0799
     18 C17         3.1836    7.7153    1.3828 C.ar      1 <0>        -0.0891
     19 C18         3.3896    8.2452    0.1227 C.ar      1 <0>        -0.1147
     20 C19         3.2995    9.6102   -0.0763 C.ar      1 <0>        -0.1181
     21 C20         3.0142   10.4463    0.9869 C.ar      1 <0>        -0.1174
     22 C21         2.8139    9.9170    2.2481 C.ar      1 <0>        -0.1168
     23 C22         2.8984    8.5515    2.4460 C.ar      1 <0>        -0.1134
     24 O2          2.0101    1.4535    1.9642 O.3       1 <0>        -0.3010
     25 C23         1.9479    0.0365    2.1378 C.3       1 <0>         0.0229
     26 H1         -2.8450    7.4864   -4.7402 H         1 <0>         0.0770
     27 H2         -3.2179    5.7893   -5.1264 H         1 <0>         0.0671
     28 H3         -4.5304    6.9152   -4.7048 H         1 <0>         0.0668
     29 H4         -3.6136    7.1252   -2.4105 H         1 <0>         0.0845
     30 H5         -2.3010    5.9992   -2.8320 H         1 <0>         0.0852
     31 H6         -3.9169    4.2096   -3.2571 H         1 <0>         0.1313
     32 H7         -5.2737    5.3287   -2.9831 H         1 <0>         0.1305
     33 H8         -5.4991    3.1844   -1.5077 H         1 <0>         0.1315
     34 H9         -5.1838    3.6496    0.1812 H         1 <0>         0.1312
     35 H10        -6.4578    5.7450   -0.1508 H         1 <0>         0.0856
     36 H11        -6.7599    5.2984   -1.8471 H         1 <0>         0.0846
     37 H12        -8.7022    4.7248   -0.4165 H         1 <0>         0.0771
     38 H13        -7.9556    3.2595   -1.0975 H         1 <0>         0.0668
     39 H14        -7.6536    3.7061    0.5989 H         1 <0>         0.0672
     40 H15        -2.0931    4.6726   -1.3345 H         1 <0>         0.1301
     41 H16        -2.9488    3.1120   -1.3076 H         1 <0>         0.1334
     42 H17        -3.6355    3.5290    1.0383 H         1 <0>         0.0954
     43 H18        -2.7798    5.0896    1.0114 H         1 <0>         0.0930
     44 H19        -2.4052    1.4376    1.0329 H         1 <0>         0.1284
     45 H20        -0.3119    0.2901    1.6319 H         1 <0>         0.1419
     46 H21        -0.3559    5.1773    0.9775 H         1 <0>         0.1357
     47 H22         1.5538    5.7944    0.3791 H         1 <0>         0.0617
     48 H23         1.1928    6.0225    2.1071 H         1 <0>         0.0639
     49 H24         3.6201    6.0275    2.6136 H         1 <0>         0.0874
     50 H25         3.9811    5.7994    0.8856 H         1 <0>         0.0868
     51 H26         3.6168    7.5923   -0.7070 H         1 <0>         0.1224
     52 H27         3.4556   10.0237   -1.0617 H         1 <0>         0.1244
     53 H28         2.9475   11.5131    0.8322 H         1 <0>         0.1245
     54 H29         2.5910   10.5703    3.0788 H         1 <0>         0.1252
     55 H30         2.7419    8.1380    3.4313 H         1 <0>         0.1235
     56 H31         2.9374   -0.3419    2.3945 H         1 <0>         0.1076
     57 H32         1.2488   -0.2010    2.9396 H         1 <0>         0.0589
     58 H33         1.6101   -0.4285    1.2116 H         1 <0>         0.0581
     59 N1         -4.1889    4.8327   -1.2476 N.4       1 <0>        -0.3973
     60 H34        -4.2103    5.7309   -0.7506 H         1 <0>         0.4251
@<TRIPOS>BOND
     1    1    2 1
     2    1   26 1
     3    1   27 1
     4    1   28 1
     5    2    3 1
     6    2   29 1
     7    2   30 1
     8    3   31 1
     9    3   32 1
    10    3   59 1
    11    4    5 1
    12    4   33 1
    13    4   34 1
    14    4   59 1
    15    5    6 1
    16    5   35 1
    17    5   36 1
    18    6   37 1
    19    6   38 1
    20    6   39 1
    21    7    8 1
    22    7   40 1
    23    7   41 1
    24    7   59 1
    25    8    9 1
    26    8   42 1
    27    8   43 1
    28    9   14 ar
    29    9   10 ar
    30   10   11 ar
    31   10   44 1
    32   11   12 ar
    33   11   45 1
    34   12   13 ar
    35   12   24 1
    36   13   14 ar
    37   13   15 1
    38   14   46 1
    39   15   16 1
    40   16   17 1
    41   16   47 1
    42   16   48 1
    43   17   18 1
    44   17   49 1
    45   17   50 1
    46   18   23 ar
    47   18   19 ar
    48   19   20 ar
    49   19   51 1
    50   20   21 ar
    51   20   52 1
    52   21   22 ar
    53   21   53 1
    54   22   23 ar
    55   22   54 1
    56   23   55 1
    57   24   25 1
    58   25   56 1
    59   25   57 1
    60   25   58 1
    61   59   60 1
@<TRIPOS>MOLECULE
ZINC00056526
   36    37     0     0     0
SMALL
USER_CHARGES

@<TRIPOS>ATOM
      1 C1          2.5037    1.7126    3.2140 C.3       1 <0>        -0.1237
      2 C2          1.1585    2.2578    2.8086 C.ar      1 <0>        -0.0710
      3 C3          0.9379    3.6213    2.8044 C.ar      1 <0>        -0.1067
      4 C4         -0.2961    4.1223    2.4330 C.ar      1 <0>        -0.0798
      5 C5         -1.3133    3.2607    2.0647 C.ar      1 <0>        -0.1093
      6 C6         -1.0991    1.8965    2.0664 C.ar      1 <0>        -0.0914
      7 C7          0.1412    1.3902    2.4334 C.ar      1 <0>         0.0607
      8 N1          0.3631    0.0092    2.4310 N.pl3     1 <0>        -0.6353
      9 C8          0.4090   -0.6826    3.6204 C.cat     1 <0>         0.7405
     10 N2          0.7150   -1.9495    3.6259 N.pl3     1 <0>        -0.7671
     11 N3          0.1317   -0.0363    4.8039 N.pl3     1 <0>        -0.6291
     12 C9          0.1332   -0.7493    6.0072 C.ar      1 <0>         0.0596
     13 C10         1.1662   -0.5736    6.9191 C.ar      1 <0>        -0.0907
     14 C11         1.1645   -1.2787    8.1063 C.ar      1 <0>        -0.1071
     15 C12         0.1360   -2.1594    8.3878 C.ar      1 <0>        -0.0804
     16 C13        -0.8935   -2.3370    7.4821 C.ar      1 <0>        -0.1047
     17 C14        -0.9010   -1.6301    6.2954 C.ar      1 <0>        -0.0763
     18 C15        -2.0269   -1.8192    5.3117 C.3       1 <0>        -0.1303
     19 H1          3.1435    1.6334    2.3352 H         1 <0>         0.0869
     20 H2          2.9640    2.3834    3.9394 H         1 <0>         0.0836
     21 H3          2.3764    0.7265    3.6608 H         1 <0>         0.0530
     22 H4          1.7300    4.2968    3.0918 H         1 <0>         0.1408
     23 H5         -0.4662    5.1889    2.4309 H         1 <0>         0.1404
     24 H6         -2.2763    3.6551    1.7758 H         1 <0>         0.1415
     25 H7         -1.8940    1.2242    1.7789 H         1 <0>         0.1367
     26 H8          0.4847   -0.4610    1.5914 H         1 <0>         0.4415
     27 H9          0.6889   -2.4511    4.4558 H         1 <0>         0.4432
     28 H10        -0.0647    0.9136    4.8032 H         1 <0>         0.4406
     29 H11         1.9701    0.1134    6.6995 H         1 <0>         0.1367
     30 H12         1.9674   -1.1426    8.8157 H         1 <0>         0.1422
     31 H13         0.1371   -2.7100    9.3170 H         1 <0>         0.1410
     32 H14        -1.6949   -3.0260    7.7046 H         1 <0>         0.1415
     33 H15        -1.7760   -2.6259    4.6230 H         1 <0>         0.0747
     34 H16        -2.9407   -2.0717    5.8496 H         1 <0>         0.0884
     35 H17        -2.1784   -0.8967    4.7512 H         1 <0>         0.0670
     36 H18         0.9688   -2.3908    2.8003 H         1 <0>         0.4426
@<TRIPOS>BOND
     1    1    2 1
     2    1   19 1
     3    1   20 1
     4    1   21 1
     5    2    7 ar
     6    2    3 ar
     7    3    4 ar
     8    3   22 1
     9    4    5 ar
    10    4   23 1
    11    5    6 ar
    12    5   24 1
    13    6    7 ar
    14    6   25 1
    15    7    8 1
    16    8    9 1
    17    8   26 1
    18    9   10 2
    19    9   11 1
    20   10   27 1
    21   10   36 1
    22   11   12 1
    23   11   28 1
    24   12   17 ar
    25   12   13 ar
    26   13   14 ar
    27   13   29 1
    28   14   15 ar
    29   14   30 1
    30   15   16 ar
    31   15   31 1
    32   16   17 ar
    33   16   32 1
    34   17   18 1
    35   18   33 1
    36   18   34 1
    37   18   35 1
@<TRIPOS>MOLECULE
ZINC23282949
   52    55     0     0     0
SMALL
USER_CHARGES
1-(4-phenylcyclohexyl)-4-(2-pyridyl)piperazine
@<TRIPOS>ATOM
      1 C1          0.0619   16.0817    1.0522 C.ar      1 <0>        -0.1155
      2 C2          1.2925   15.4591    0.9582 C.ar      1 <0>        -0.1146
      3 C3          1.3700   14.0790    0.9499 C.ar      1 <0>        -0.1147
      4 C4          0.2169   13.3214    1.0362 C.ar      1 <0>        -0.0911
      5 C5         -1.0141   13.9440    1.1250 C.ar      1 <0>        -0.1162
      6 C6         -1.0913   15.3241    1.1376 C.ar      1 <0>        -0.1162
      7 C7          0.3015   11.8168    1.0272 C.3       1 <0>        -0.0487
      8 C8         -0.2934   11.2649    2.3243 C.3       1 <0>        -0.1097
      9 C9         -0.2076    9.7373    2.3152 C.3       1 <0>        -0.1407
     10 C10        -0.9916    9.1895    1.1210 C.3       1 <0>         0.0339
     11 C11        -0.3967    9.7415   -0.1761 C.3       1 <0>        -0.1399
     12 C12        -0.4825   11.2690   -0.1670 C.3       1 <0>        -0.1102
     13 N1         -0.9092    7.7229    1.1123 N.4       1 <0>        -0.4014
     14 C13        -1.6526    7.1604   -0.0238 C.3       1 <0>        -0.0057
     15 C14        -1.6089    5.6322    0.0479 C.3       1 <0>         0.0394
     16 N2         -0.2096    5.1834    0.0320 N.pl3     1 <0>        -0.4765
     17 C15         0.5337    5.7459    1.1681 C.3       1 <0>         0.0291
     18 C16         0.4901    7.2741    1.0965 C.3       1 <0>        -0.0082
     19 C17        -0.1317    3.7956    0.0238 C.ar      1 <0>         0.2896
     20 C18         1.1136    3.1750    0.0085 C.ar      1 <0>        -0.1766
     21 C19         1.1764    1.7935    0.0005 C.ar      1 <0>        -0.0496
     22 C20        -0.0126    1.0758    0.0080 C.ar      1 <0>        -0.1794
     23 C21        -1.2132    1.7566    0.0173 C.ar      1 <0>         0.1283
     24 N3         -1.2430    3.0760    0.0301 N.ar      1 <0>        -0.5178
     25 H1          0.0013   17.1600    1.0594 H         1 <0>         0.1253
     26 H2          2.1934   16.0510    0.8915 H         1 <0>         0.1253
     27 H3          2.3315   13.5925    0.8764 H         1 <0>         0.1210
     28 H4         -1.9153   13.3521    1.1879 H         1 <0>         0.1181
     29 H5         -2.0527   15.8105    1.2114 H         1 <0>         0.1243
     30 H6          1.3588   11.5243    0.9464 H         1 <0>         0.0841
     31 H7          0.2703   11.6587    3.1829 H         1 <0>         0.0871
     32 H8         -1.3464   11.5726    2.4048 H         1 <0>         0.0777
     33 H9          0.8454    9.4297    2.2347 H         1 <0>         0.0890
     34 H10        -0.6352    9.3405    3.2477 H         1 <0>         0.0892
     35 H11        -2.0556    9.4566    1.2023 H         1 <0>         0.1365
     36 H12         0.6563    9.4339   -0.2565 H         1 <0>         0.0874
     37 H13        -0.9603    9.3477   -1.0347 H         1 <0>         0.0887
     38 H14        -1.5355   11.5766   -0.0865 H         1 <0>         0.0772
     39 H15        -0.0549   11.6658   -1.0996 H         1 <0>         0.0863
     40 H16        -2.6978    7.5007    0.0174 H         1 <0>         0.1400
     41 H17        -1.1941    7.4976   -0.9651 H         1 <0>         0.1370
     42 H18        -2.0927    5.2947    0.9764 H         1 <0>         0.0753
     43 H19        -2.1405    5.2092   -0.8172 H         1 <0>         0.1319
     44 H20         0.0751    5.4087    2.1094 H         1 <0>         0.0710
     45 H21         1.5789    5.4056    1.1270 H         1 <0>         0.1291
     46 H22         0.9732    7.6126    0.1681 H         1 <0>         0.1391
     47 H23         1.0209    7.6980    1.9617 H         1 <0>         0.1432
     48 H24         2.0187    3.7642    0.0027 H         1 <0>         0.1382
     49 H25         2.1287    1.2842   -0.0111 H         1 <0>         0.1439
     50 H26         0.0021   -0.0041    0.0020 H         1 <0>         0.1436
     51 H27        -2.1401    1.2025    0.0183 H         1 <0>         0.1644
     52 H28        -1.3739    7.3540    2.0386 H         1 <0>         0.4387
@<TRIPOS>BOND
     1    1    6 ar
     2    1    2 ar
     3    1   25 1
     4    2    3 ar
     5    2   26 1
     6    3    4 ar
     7    3   27 1
     8    4    5 ar
     9    4    7 1
    10    5    6 ar
    11    5   28 1
    12    6   29 1
    13    7   12 1
    14    7    8 1
    15    7   30 1
    16    8    9 1
    17    8   31 1
    18    8   32 1
    19    9   10 1
    20    9   33 1
    21    9   34 1
    22   10   11 1
    23   10   13 1
    24   10   35 1
    25   11   12 1
    26   11   36 1
    27   11   37 1
    28   12   38 1
    29   12   39 1
    30   13   18 1
    31   13   14 1
    32   13   52 1
    33   14   15 1
    34   14   40 1
    35   14   41 1
    36   15   16 1
    37   15   42 1
    38   15   43 1
    39   16   17 1
    40   16   19 1
    41   17   18 1
    42   17   44 1
    43   17   45 1
    44   18   46 1
    45   18   47 1
    46   19   24 ar
    47   19   20 ar
    48   20   21 ar
    49   20   48 1
    50   21   22 ar
    51   21   49 1
    52   22   23 ar
    53   22   50 1
    54   23   24 ar
    55   23   51 1
@<TRIPOS>MOLECULE
ZINC23282949
   52    55     0     0     0
SMALL
USER_CHARGES
1-(4-phenylcyclohexyl)-4-(2-pyridyl)piperazine
@<TRIPOS>ATOM
      1 C1          0.0619   16.0817    1.0522 C.ar      1 <0>        -0.1214
      2 C2          1.2925   15.4591    0.9582 C.ar      1 <0>        -0.1165
      3 C3          1.3700   14.0790    0.9499 C.ar      1 <0>        -0.1180
      4 C4          0.2169   13.3214    1.0362 C.ar      1 <0>        -0.0826
      5 C5         -1.0141   13.9440    1.1250 C.ar      1 <0>        -0.1158
      6 C6         -1.0913   15.3241    1.1376 C.ar      1 <0>        -0.1174
      7 C7          0.3015   11.8168    1.0272 C.3       1 <0>        -0.0457
      8 C8         -0.2934   11.2649    2.3243 C.3       1 <0>        -0.1110
      9 C9         -0.2076    9.7373    2.3152 C.3       1 <0>        -0.1129
     10 C10        -0.9916    9.1895    1.1210 C.3       1 <0>         0.0876
     11 C11        -0.3967    9.7415   -0.1761 C.3       1 <0>        -0.1511
     12 C12        -0.4825   11.2690   -0.1670 C.3       1 <0>        -0.1072
     13 N1         -0.9092    7.7229    1.1123 N.3       1 <0>        -0.5352
     14 C13        -1.6526    7.1604   -0.0238 C.3       1 <0>         0.0511
     15 C14        -1.6089    5.6322    0.0479 C.3       1 <0>         0.0187
     16 N2         -0.2096    5.1834    0.0320 N.pl3     1 <0>        -0.4716
     17 C15         0.5337    5.7459    1.1681 C.3       1 <0>         0.0545
     18 C16         0.4901    7.2741    1.0965 C.3       1 <0>         0.0378
     19 C17        -0.1317    3.7956    0.0238 C.ar      1 <0>         0.3617
     20 C18         1.1136    3.1750    0.0085 C.ar      1 <0>        -0.1501
     21 C19         1.1764    1.7935    0.0005 C.ar      1 <0>         0.0214
     22 C20        -0.0126    1.0758    0.0080 C.ar      1 <0>        -0.1504
     23 C21        -1.2132    1.7566    0.0173 C.ar      1 <0>         0.1410
     24 N3         -1.2430    3.0760    0.0301 N.ar      1 <0>        -0.5075
     25 H1          0.0013   17.1600    1.0594 H         1 <0>         0.1228
     26 H2          2.1934   16.0510    0.8915 H         1 <0>         0.1228
     27 H3          2.3315   13.5925    0.8764 H         1 <0>         0.1195
     28 H4         -1.9153   13.3521    1.1879 H         1 <0>         0.1189
     29 H5         -2.0527   15.8105    1.2114 H         1 <0>         0.1223
     30 H6          1.3588   11.5243    0.9464 H         1 <0>         0.0769
     31 H7          0.2703   11.6587    3.1829 H         1 <0>         0.0713
     32 H8         -1.3464   11.5726    2.4048 H         1 <0>         0.0688
     33 H9          0.8454    9.4297    2.2347 H         1 <0>         0.0658
     34 H10        -0.6352    9.3405    3.2477 H         1 <0>         0.0750
     35 H11        -2.0556    9.4566    1.2023 H         1 <0>         0.0912
     36 H12         0.6563    9.4339   -0.2565 H         1 <0>         0.0666
     37 H13        -0.9603    9.3477   -1.0347 H         1 <0>         0.0652
     38 H14        -1.5355   11.5766   -0.0865 H         1 <0>         0.0681
     39 H15        -0.0549   11.6658   -1.0996 H         1 <0>         0.0674
     40 H16        -2.6978    7.5007    0.0174 H         1 <0>         0.1020
     41 H17        -1.1941    7.4976   -0.9651 H         1 <0>         0.0621
     42 H18        -2.0927    5.2947    0.9764 H         1 <0>         0.0783
     43 H19        -2.1405    5.2092   -0.8172 H         1 <0>         0.0993
     44 H20         0.0751    5.4087    2.1094 H         1 <0>         0.0773
     45 H21         1.5789    5.4056    1.1270 H         1 <0>         0.1073
     46 H22         0.9732    7.6126    0.1681 H         1 <0>         0.0600
     47 H23         1.0209    7.6980    1.9617 H         1 <0>         0.1080
     48 H24         2.0187    3.7642    0.0027 H         1 <0>         0.1814
     49 H25         2.1287    1.2842   -0.0111 H         1 <0>         0.1767
     50 H26         0.0021   -0.0041    0.0020 H         1 <0>         0.1825
     51 H27        -2.1401    1.2025    0.0183 H         1 <0>         0.2063
     52 H28        -2.2223    3.5766    0.0464 H         1 <0>         0.4771
@<TRIPOS>BOND
     1    1    6 ar
     2    1    2 ar
     3    1   25 1
     4    2    3 ar
     5    2   26 1
     6    3    4 ar
     7    3   27 1
     8    4    5 ar
     9    4    7 1
    10    5    6 ar
    11    5   28 1
    12    6   29 1
    13    7   12 1
    14    7    8 1
    15    7   30 1
    16    8    9 1
    17    8   31 1
    18    8   32 1
    19    9   10 1
    20    9   33 1
    21    9   34 1
    22   10   11 1
    23   10   13 1
    24   10   35 1
    25   11   12 1
    26   11   36 1
    27   11   37 1
    28   12   38 1
    29   12   39 1
    30   13   18 1
    31   13   14 1
    32   14   15 1
    33   14   40 1
    34   14   41 1
    35   15   16 1
    36   15   42 1
    37   15   43 1
    38   16   17 1
    39   16   19 1
    40   17   18 1
    41   17   44 1
    42   17   45 1
    43   18   46 1
    44   18   47 1
    45   19   24 ar
    46   19   20 ar
    47   20   21 ar
    48   20   48 1
    49   21   22 ar
    50   21   49 1
    51   22   23 ar
    52   22   50 1
    53   23   24 ar
    54   23   51 1
    55   24   52 1
@<TRIPOS>MOLECULE
ZINC22931094
   66    69     0     0     0
SMALL
USER_CHARGES

@<TRIPOS>ATOM
      1 C1         -2.1863   -5.5479   -2.4920 C.3       1 <0>         0.0258
      2 O1         -0.9501   -5.2637   -1.8340 O.3       1 <0>        -0.3143
      3 C2         -1.0155   -4.9134   -0.5225 C.ar      1 <0>         0.1285
      4 C3         -2.2445   -4.8521    0.1126 C.ar      1 <0>        -0.2102
      5 C4         -2.3093   -4.4952    1.4455 C.ar      1 <0>        -0.0819
      6 C5         -1.1505   -4.1996    2.1341 C.ar      1 <0>        -0.1604
      7 C6          0.0845   -4.2583    1.5008 C.ar      1 <0>        -0.0408
      8 C7          0.1551   -4.6239    0.1760 C.ar      1 <0>        -0.1031
      9 C8          1.4605   -4.7296   -0.5680 C.3       1 <0>        -0.0727
     10 C9          2.5657   -3.9845    0.1776 C.3       1 <0>        -0.1215
     11 C10         2.5680   -4.4560    1.6365 C.3       1 <0>        -0.1142
     12 C11         1.3058   -3.9147    2.3129 C.3       1 <0>        -0.0420
     13 H1          1.3760   -2.8318    2.4158 H         1 <0>         0.0836
     14 C12         1.1824   -4.5455    3.7013 C.3       1 <0>        -0.1148
     15 C13         2.3561   -4.0941    4.5728 C.3       1 <0>        -0.1180
     16 C14         2.1657   -4.6199    5.9970 C.3       1 <0>         0.0539
     17 N1          3.2926   -4.1864    6.8337 N.3       1 <0>        -0.5383
     18 C15         3.2922   -2.7264    7.0027 C.3       1 <0>         0.0228
     19 C16         4.5118   -2.3111    7.8283 C.3       1 <0>        -0.0060
     20 N2          4.4647   -2.9729    9.1387 N.4       1 <0>        -0.3844
     21 C17         4.4906   -4.4299    8.9546 C.3       1 <0>        -0.0056
     22 C18         3.2707   -4.8628    8.1384 C.3       1 <0>         0.0267
     23 C19         5.6262   -2.5599    9.9377 C.3       1 <0>         0.0266
     24 C20         5.5985   -1.0424   10.1312 C.3       1 <0>        -0.1406
     25 C21         6.8082   -0.6122   10.9633 C.3       1 <0>        -0.1173
     26 C22         6.7593   -1.3015   12.3284 C.3       1 <0>        -0.1316
     27 C23         6.7870   -2.8189   12.1349 C.3       1 <0>        -0.1173
     28 C24         5.5773   -3.2491   11.3028 C.3       1 <0>        -0.1406
     29 H2         -2.8280   -4.6676   -2.4557 H         1 <0>         0.0565
     30 H3         -1.9921   -5.8133   -3.5313 H         1 <0>         0.1030
     31 H4         -2.6817   -6.3796   -1.9911 H         1 <0>         0.0564
     32 H5         -3.1485   -5.0819   -0.4318 H         1 <0>         0.1289
     33 H6         -3.2644   -4.4474    1.9473 H         1 <0>         0.1243
     34 H7         -1.2043   -3.9194    3.1757 H         1 <0>         0.1212
     35 H8          1.7360   -5.7799   -0.6630 H         1 <0>         0.0744
     36 H9          1.3436   -4.2981   -1.5621 H         1 <0>         0.0775
     37 H10         3.5301   -4.2041   -0.2806 H         1 <0>         0.0697
     38 H11         2.3761   -2.9118    0.1388 H         1 <0>         0.0649
     39 H12         2.5730   -5.5454    1.6702 H         1 <0>         0.0682
     40 H13         3.4501   -4.0684    2.1462 H         1 <0>         0.0673
     41 H14         0.2459   -4.2306    4.1616 H         1 <0>         0.0680
     42 H15         1.1948   -5.6316    3.6094 H         1 <0>         0.0698
     43 H16         3.2860   -4.4869    4.1618 H         1 <0>         0.0795
     44 H17         2.3979   -3.0050    4.5902 H         1 <0>         0.0632
     45 H18         1.2358   -4.2270    6.4080 H         1 <0>         0.0460
     46 H19         2.1239   -5.7089    5.9797 H         1 <0>         0.0885
     47 H20         3.3347   -2.2471    6.0247 H         1 <0>         0.1255
     48 H21         2.3822   -2.4203    7.5189 H         1 <0>         0.0593
     49 H22         5.4218   -2.6052    7.3053 H         1 <0>         0.1371
     50 H23         4.5057   -1.2299    7.9669 H         1 <0>         0.1359
     51 H24         5.4007   -4.7132    8.4258 H         1 <0>         0.1372
     52 H25         4.4687   -4.9196    9.9281 H         1 <0>         0.1361
     53 H26         2.3604   -4.5920    8.6732 H         1 <0>         0.0592
     54 H27         3.2976   -5.9422    7.9889 H         1 <0>         0.1231
     55 H28         6.5426   -2.8434    9.4201 H         1 <0>         0.1370
     56 H29         5.6333   -0.5514    9.1587 H         1 <0>         0.0873
     57 H30         4.6821   -0.7588   10.6488 H         1 <0>         0.0853
     58 H31         7.7246   -0.8958   10.4457 H         1 <0>         0.0746
     59 H32         6.7885    0.4688   11.1012 H         1 <0>         0.0846
     60 H33         7.6212   -0.9950   12.9212 H         1 <0>         0.0795
     61 H34         5.8430   -1.0179   12.8460 H         1 <0>         0.0698
     62 H35         7.7034   -3.1025   11.6173 H         1 <0>         0.0746
     63 H36         6.7522   -3.3099   13.1074 H         1 <0>         0.0846
     64 H37         4.6609   -2.9655   11.8204 H         1 <0>         0.0853
     65 H38         5.5971   -4.3301   11.1649 H         1 <0>         0.0873
     66 H39         3.6166   -2.7097    9.6179 H         1 <0>         0.4173
@<TRIPOS>BOND
     1    1    2 1
     2    1   29 1
     3    1   30 1
     4    1   31 1
     5    2    3 1
     6    3    8 ar
     7    3    4 ar
     8    4    5 ar
     9    4   32 1
    10    5    6 ar
    11    5   33 1
    12    6    7 ar
    13    6   34 1
    14    7   12 1
    15    7    8 ar
    16    8    9 1
    17    9   10 1
    18    9   35 1
    19    9   36 1
    20   10   11 1
    21   10   37 1
    22   10   38 1
    23   11   12 1
    24   11   39 1
    25   11   40 1
    26   12   13 1
    27   12   14 1
    28   14   15 1
    29   14   41 1
    30   14   42 1
    31   15   16 1
    32   15   43 1
    33   15   44 1
    34   16   17 1
    35   16   45 1
    36   16   46 1
    37   17   22 1
    38   17   18 1
    39   18   19 1
    40   18   47 1
    41   18   48 1
    42   19   20 1
    43   19   49 1
    44   19   50 1
    45   20   21 1
    46   20   23 1
    47   20   66 1
    48   21   22 1
    49   21   51 1
    50   21   52 1
    51   22   53 1
    52   22   54 1
    53   23   28 1
    54   23   24 1
    55   23   55 1
    56   24   25 1
    57   24   56 1
    58   24   57 1
    59   25   26 1
    60   25   58 1
    61   25   59 1
    62   26   27 1
    63   26   60 1
    64   26   61 1
    65   27   28 1
    66   27   62 1
    67   27   63 1
    68   28   64 1
    69   28   65 1
@<TRIPOS>MOLECULE
ZINC22931097
   66    69     0     0     0
SMALL
USER_CHARGES

@<TRIPOS>ATOM
      1 C1         -1.3529   -6.7248   -2.5894 C.3       1 <0>         0.0258
      2 O1         -1.2856   -6.2669   -1.2374 O.3       1 <0>        -0.3143
      3 C2         -0.1182   -5.6987   -0.8358 C.ar      1 <0>         0.1286
      4 C3          0.9333   -5.5820   -1.7294 C.ar      1 <0>        -0.2102
      5 C4          2.1186   -5.0028   -1.3200 C.ar      1 <0>        -0.0819
      6 C5          2.2463   -4.5419   -0.0255 C.ar      1 <0>        -0.1604
      7 C6          1.1941   -4.6562    0.8742 C.ar      1 <0>        -0.0405
      8 C7          0.0111   -5.2319    0.4709 C.ar      1 <0>        -0.1032
      9 C8         -1.1668   -5.3976    1.3949 C.3       1 <0>        -0.0728
     10 C9         -1.0324   -4.4781    2.6070 C.3       1 <0>        -0.1206
     11 C10         0.3563   -4.6880    3.2220 C.3       1 <0>        -0.1147
     12 C11         1.4030   -4.1247    2.2682 C.3       1 <0>        -0.0421
     13 H1          1.3142   -3.0384    2.2558 H         1 <0>         0.0815
     14 C12         2.8028   -4.5103    2.7507 C.3       1 <0>        -0.1136
     15 C13         3.0678   -3.8666    4.1132 C.3       1 <0>        -0.1180
     16 C14         4.5113   -4.1454    4.5368 C.3       1 <0>         0.0539
     17 N1          4.7658   -3.5275    5.8450 N.3       1 <0>        -0.5383
     18 C15         4.7104   -2.0615    5.7547 C.3       1 <0>         0.0227
     19 C16         4.9209   -1.4595    7.1458 C.3       1 <0>        -0.0060
     20 N2          6.2243   -1.8859    7.6719 N.4       1 <0>        -0.3844
     21 C17         6.2555   -3.3505    7.7794 C.3       1 <0>        -0.0057
     22 C18         6.0561   -3.9683    6.3936 C.3       1 <0>         0.0267
     23 C19         6.4337   -1.2932    8.9996 C.3       1 <0>         0.0266
     24 C20         6.4031    0.2324    8.8876 C.3       1 <0>        -0.1406
     25 C21         6.6213    0.8497   10.2704 C.3       1 <0>        -0.1173
     26 C22         7.9789    0.4057   10.8188 C.3       1 <0>        -0.1316
     27 C23         8.0095   -1.1199   10.9307 C.3       1 <0>        -0.1173
     28 C24         7.7913   -1.7372    9.5479 C.3       1 <0>        -0.1406
     29 H2         -0.5864   -7.4819   -2.7551 H         1 <0>         0.0564
     30 H3         -2.3361   -7.1557   -2.7785 H         1 <0>         0.1030
     31 H4         -1.1875   -5.8861   -3.2657 H         1 <0>         0.0565
     32 H5          0.8271   -5.9427   -2.7418 H         1 <0>         0.1289
     33 H6          2.9434   -4.9112   -2.0112 H         1 <0>         0.1243
     34 H7          3.1737   -4.0881    0.2913 H         1 <0>         0.1212
     35 H8         -2.0826   -5.1521    0.8574 H         1 <0>         0.0776
     36 H9         -1.2156   -6.4328    1.7328 H         1 <0>         0.0743
     37 H10        -1.1420   -3.4398    2.2940 H         1 <0>         0.0649
     38 H11        -1.7998   -4.7237    3.3410 H         1 <0>         0.0702
     39 H12         0.4150   -4.1726    4.1806 H         1 <0>         0.0677
     40 H13         0.5369   -5.7533    3.3657 H         1 <0>         0.0667
     41 H14         2.8699   -5.5944    2.8418 H         1 <0>         0.0698
     42 H15         3.5440   -4.1593    2.0327 H         1 <0>         0.0687
     43 H16         2.9112   -2.7902    4.0432 H         1 <0>         0.0633
     44 H17         2.3849   -4.2859    4.8521 H         1 <0>         0.0794
     45 H18         4.6680   -5.2218    4.6068 H         1 <0>         0.0885
     46 H19         5.1942   -3.7262    3.7979 H         1 <0>         0.0461
     47 H20         5.4933   -1.7086    5.0834 H         1 <0>         0.0594
     48 H21         3.7369   -1.7574    5.3703 H         1 <0>         0.1255
     49 H22         4.8943   -0.3719    7.0787 H         1 <0>         0.1359
     50 H23         4.1300   -1.8018    7.8132 H         1 <0>         0.1371
     51 H24         7.2183   -3.6648    8.1822 H         1 <0>         0.1361
     52 H25         5.4578   -3.6831    8.4436 H         1 <0>         0.1372
     53 H26         6.0643   -5.0552    6.4754 H         1 <0>         0.1231
     54 H27         6.8612   -3.6468    5.7329 H         1 <0>         0.0592
     55 H28         5.6438   -1.6240    9.6739 H         1 <0>         0.1370
     56 H29         7.1931    0.5631    8.2133 H         1 <0>         0.0853
     57 H30         5.4360    0.5487    8.4970 H         1 <0>         0.0873
     58 H31         6.5995    1.9366   10.1907 H         1 <0>         0.0846
     59 H32         5.8313    0.5190   10.9447 H         1 <0>         0.0746
     60 H33         8.7689    0.7365   10.1445 H         1 <0>         0.0698
     61 H34         8.1343    0.8455   11.8039 H         1 <0>         0.0796
     62 H35         8.9767   -1.4362   11.3214 H         1 <0>         0.0846
     63 H36         7.2195   -1.4506   11.6050 H         1 <0>         0.0746
     64 H37         7.8131   -2.8241    9.6277 H         1 <0>         0.0873
     65 H38         8.5813   -1.4065    8.8736 H         1 <0>         0.0853
     66 H39         6.9554   -1.5791    7.0479 H         1 <0>         0.4173
@<TRIPOS>BOND
     1    1    2 1
     2    1   29 1
     3    1   30 1
     4    1   31 1
     5    2    3 1
     6    3    8 ar
     7    3    4 ar
     8    4    5 ar
     9    4   32 1
    10    5    6 ar
    11    5   33 1
    12    6    7 ar
    13    6   34 1
    14    7   12 1
    15    7    8 ar
    16    8    9 1
    17    9   10 1
    18    9   35 1
    19    9   36 1
    20   10   11 1
    21   10   37 1
    22   10   38 1
    23   11   12 1
    24   11   39 1
    25   11   40 1
    26   12   13 1
    27   12   14 1
    28   14   15 1
    29   14   41 1
    30   14   42 1
    31   15   16 1
    32   15   43 1
    33   15   44 1
    34   16   17 1
    35   16   45 1
    36   16   46 1
    37   17   22 1
    38   17   18 1
    39   18   19 1
    40   18   47 1
    41   18   48 1
    42   19   20 1
    43   19   49 1
    44   19   50 1
    45   20   21 1
    46   20   23 1
    47   20   66 1
    48   21   22 1
    49   21   51 1
    50   21   52 1
    51   22   53 1
    52   22   54 1
    53   23   28 1
    54   23   24 1
    55   23   55 1
    56   24   25 1
    57   24   56 1
    58   24   57 1
    59   25   26 1
    60   25   58 1
    61   25   59 1
    62   26   27 1
    63   26   60 1
    64   26   61 1
    65   27   28 1
    66   27   62 1
    67   27   63 1
    68   28   64 1
    69   28   65 1
@<TRIPOS>MOLECULE
ZINC19367047
   49    51     0     0     0
SMALL
USER_CHARGES
1,4-dicyclohexylpiperazine
@<TRIPOS>ATOM
      1 C1         -0.7734    3.1225   -1.2231 C.3       1 <0>        -0.1321
      2 C2         -0.7527    1.5927   -1.2315 C.3       1 <0>        -0.1185
      3 C3         -0.0127    1.0858    0.0080 C.3       1 <0>        -0.1405
      4 C4         -0.7288    1.5792    1.2668 C.3       1 <0>         0.0344
      5 C5         -0.7496    3.1091    1.2752 C.3       1 <0>        -0.1399
      6 C6         -1.4896    3.6159    0.0357 C.3       1 <0>        -0.1185
      7 N1         -0.0184    1.0926    2.4569 N.4       1 <0>        -0.4005
      8 C7          0.1003   -0.3720    2.4373 C.3       1 <0>        -0.0035
      9 C8          0.9133   -0.8316    3.6498 C.3       1 <0>         0.0155
     10 N2          0.2523   -0.3761    4.8808 N.3       1 <0>        -0.5332
     11 C9          0.1337    1.0885    4.9004 C.3       1 <0>         0.0222
     12 C10        -0.6794    1.5481    3.6879 C.3       1 <0>        -0.0023
     13 C11         0.9628   -0.8628    6.0709 C.3       1 <0>         0.0870
     14 C12         2.3673   -0.2573    6.1094 C.3       1 <0>        -0.1526
     15 C13         3.1073   -0.7641    7.3489 C.3       1 <0>        -0.1184
     16 C14         3.2109   -2.2896    7.2929 C.3       1 <0>        -0.1249
     17 C15         1.8063   -2.8950    7.2543 C.3       1 <0>        -0.1224
     18 C16         1.0663   -2.3882    6.0148 C.3       1 <0>        -0.1142
     19 H1         -1.3054    3.4869   -2.1143 H         1 <0>         0.0797
     20 H2          0.2586    3.5032   -1.2309 H         1 <0>         0.0701
     21 H3         -1.7847    1.2120   -1.2237 H         1 <0>         0.0744
     22 H4         -0.2379    1.2379   -2.1365 H         1 <0>         0.0848
     23 H5          0.0022   -0.0141    0.0019 H         1 <0>         0.0873
     24 H6          1.0193    1.4665    0.0002 H         1 <0>         0.0863
     25 H7         -1.7524    1.1788    1.3107 H         1 <0>         0.1314
     26 H8         -1.2645    3.4638    2.1802 H         1 <0>         0.0868
     27 H9          0.2824    3.4899    1.2674 H         1 <0>         0.0864
     28 H10        -1.5046    4.7158    0.0417 H         1 <0>         0.0848
     29 H11        -2.5216    3.2351    0.0435 H         1 <0>         0.0744
     30 H12        -0.9029   -0.8217    2.4755 H         1 <0>         0.1338
     31 H13         0.6081   -0.6864    1.5136 H         1 <0>         0.1360
     32 H14         0.9789   -1.9296    3.6524 H         1 <0>         0.1264
     33 H15         1.9254   -0.4040    3.5961 H         1 <0>         0.0622
     34 H16        -0.3741    1.4029    5.8242 H         1 <0>         0.1222
     35 H17         1.1369    1.5382    4.8622 H         1 <0>         0.0634
     36 H18        -0.7451    2.6461    3.6841 H         1 <0>         0.1359
     37 H19        -1.6915    1.1205    3.7404 H         1 <0>         0.1340
     38 H20         0.3821   -0.5474    6.9503 H         1 <0>         0.0965
     39 H21         2.9195   -0.5544    5.2056 H         1 <0>         0.0646
     40 H22         2.2928    0.8394    6.1497 H         1 <0>         0.0638
     41 H23         4.1171   -0.3288    7.3766 H         1 <0>         0.0672
     42 H24         2.5551   -0.4670    8.2527 H         1 <0>         0.0674
     43 H25         3.7632   -2.5867    6.3892 H         1 <0>         0.0618
     44 H26         3.7429   -2.6540    8.1841 H         1 <0>         0.0695
     45 H27         1.8807   -3.9917    7.2140 H         1 <0>         0.0714
     46 H28         1.2540   -2.5980    8.1580 H         1 <0>         0.0677
     47 H29         0.0564   -2.8234    5.9871 H         1 <0>         0.0756
     48 H30         1.6185   -2.6853    5.1110 H         1 <0>         0.0643
     49 H31         0.9967    1.5160    2.4396 H         1 <0>         0.4324
@<TRIPOS>BOND
     1    1    6 1
     2    1    2 1
     3    1   19 1
     4    1   20 1
     5    2    3 1
     6    2   21 1
     7    2   22 1
     8    3    4 1
     9    3   23 1
    10    3   24 1
    11    4    5 1
    12    4    7 1
    13    4   25 1
    14    5    6 1
    15    5   26 1
    16    5   27 1
    17    6   28 1
    18    6   29 1
    19    7   12 1
    20    7    8 1
    21    7   49 1
    22    8    9 1
    23    8   30 1
    24    8   31 1
    25    9   10 1
    26    9   32 1
    27    9   33 1
    28   10   11 1
    29   10   13 1
    30   11   12 1
    31   11   34 1
    32   11   35 1
    33   12   36 1
    34   12   37 1
    35   13   18 1
    36   13   14 1
    37   13   38 1
    38   14   15 1
    39   14   39 1
    40   14   40 1
    41   15   16 1
    42   15   41 1
    43   15   42 1
    44   16   17 1
    45   16   43 1
    46   16   44 1
    47   17   18 1
    48   17   45 1
    49   17   46 1
    50   18   47 1
    51   18   48 1
@<TRIPOS>MOLECULE
ZINC12343491
   50    52     0     0     0
SMALL
USER_CHARGES
cyclohexyl-(4-cyclohexylpiperazin-1-yl)methanone
@<TRIPOS>ATOM
      1 C1         -2.8524    1.3850   -0.6336 C.3       1 <0>        -0.1237
      2 C2         -1.9539    0.4351   -1.4281 C.3       1 <0>        -0.1199
      3 C3         -0.5218    0.9737   -1.4344 C.3       1 <0>        -0.1024
      4 C4         -0.0095    1.0770    0.0035 C.3       1 <0>        -0.1052
      5 C5         -0.9080    2.0269    0.7980 C.3       1 <0>        -0.1081
      6 C6         -2.3401    1.4884    0.8043 C.3       1 <0>        -0.1176
      7 C7          1.4011    1.6074   -0.0027 C.2       1 <0>         0.5187
      8 O1          1.8047    2.2460   -0.9515 O.2       1 <0>        -0.5394
      9 N1          2.2141    1.3722    1.0462 N.am      1 <0>        -0.6148
     10 C8          1.7770    0.5228    2.1645 C.3       1 <0>         0.1072
     11 C9          2.8583   -0.5407    2.4133 C.3       1 <0>         0.0309
     12 N2          4.1546    0.1225    2.6075 N.3       1 <0>        -0.5309
     13 C10         4.5686    0.8476    1.3989 C.3       1 <0>         0.0397
     14 C11         3.5597    1.9631    1.1057 C.3       1 <0>         0.1132
     15 C12         5.1827   -0.8420    3.0209 C.3       1 <0>         0.0864
     16 C13         5.4142   -1.8538    1.8969 C.3       1 <0>        -0.1521
     17 C14         6.4849   -2.8583    2.3275 C.3       1 <0>        -0.1161
     18 C15         6.0189   -3.5923    3.5865 C.3       1 <0>        -0.1220
     19 C16         5.7874   -2.5804    4.7105 C.3       1 <0>        -0.1194
     20 C17         4.7166   -1.5759    4.2799 C.3       1 <0>        -0.1135
     21 H1         -3.8820    0.9979   -0.6290 H         1 <0>         0.0641
     22 H2         -2.8372    2.3807   -1.1008 H         1 <0>         0.0641
     23 H3         -1.9692   -0.5606   -0.9609 H         1 <0>         0.0621
     24 H4         -2.3223    0.3607   -2.4619 H         1 <0>         0.0668
     25 H5          0.1242    0.2908   -2.0057 H         1 <0>         0.0639
     26 H6         -0.5066    1.9695   -1.9015 H         1 <0>         0.0754
     27 H7         -0.0094    0.0821    0.4728 H         1 <0>         0.0919
     28 H8         -0.5396    2.1012    1.8318 H         1 <0>         0.0668
     29 H9         -0.8927    3.0227    0.3309 H         1 <0>         0.0704
     30 H10        -2.9861    2.1713    1.3755 H         1 <0>         0.0675
     31 H11        -2.3554    0.4927    1.2715 H         1 <0>         0.0642
     32 H12         1.6422    1.1415    3.0639 H         1 <0>         0.0787
     33 H13         0.8237    0.0385    1.9063 H         1 <0>         0.0913
     34 H14         2.6024   -1.1203    3.3125 H         1 <0>         0.0942
     35 H15         2.9156   -1.2152    1.5463 H         1 <0>         0.0413
     36 H16         5.5653    1.2853    1.5573 H         1 <0>         0.0878
     37 H17         4.6049    0.1514    0.5480 H         1 <0>         0.0425
     38 H18         3.7947    2.4377    0.1416 H         1 <0>         0.0963
     39 H19         3.5933    2.7189    1.9042 H         1 <0>         0.0749
     40 H20         6.1021   -0.2732    3.2236 H         1 <0>         0.0852
     41 H21         4.4757   -2.3868    1.6843 H         1 <0>         0.0631
     42 H22         5.7493   -1.3261    0.9918 H         1 <0>         0.0628
     43 H23         6.6513   -3.5858    1.5194 H         1 <0>         0.0613
     44 H24         7.4234   -2.3254    2.5400 H         1 <0>         0.0633
     45 H25         5.0805   -4.1253    3.3740 H         1 <0>         0.0605
     46 H26         6.7887   -4.3145    3.8961 H         1 <0>         0.0630
     47 H27         5.4523   -3.1081    5.6156 H         1 <0>         0.0653
     48 H28         6.7259   -2.0474    4.9231 H         1 <0>         0.0638
     49 H29         4.5502   -0.8483    5.0880 H         1 <0>         0.0721
     50 H30         3.7781   -2.1089    4.0674 H         1 <0>         0.0646
@<TRIPOS>BOND
     1    1    6 1
     2    1    2 1
     3    1   21 1
     4    1   22 1
     5    2    3 1
     6    2   23 1
     7    2   24 1
     8    3    4 1
     9    3   25 1
    10    3   26 1
    11    4    5 1
    12    4    7 1
    13    4   27 1
    14    5    6 1
    15    5   28 1
    16    5   29 1
    17    6   30 1
    18    6   31 1
    19    7    8 2
    20    7    9 am
    21    9   14 1
    22    9   10 1
    23   10   11 1
    24   10   32 1
    25   10   33 1
    26   11   12 1
    27   11   34 1
    28   11   35 1
    29   12   13 1
    30   12   15 1
    31   13   14 1
    32   13   36 1
    33   13   37 1
    34   14   38 1
    35   14   39 1
    36   15   20 1
    37   15   16 1
    38   15   40 1
    39   16   17 1
    40   16   41 1
    41   16   42 1
    42   17   18 1
    43   17   43 1
    44   17   44 1
    45   18   19 1
    46   18   45 1
    47   18   46 1
    48   19   20 1
    49   19   47 1
    50   19   48 1
    51   20   49 1
    52   20   50 1
@<TRIPOS>MOLECULE
ZINC12343491
   51    53     0     0     0
SMALL
USER_CHARGES
cyclohexyl-(4-cyclohexylpiperazin-1-yl)methanone
@<TRIPOS>ATOM
      1 C1         -2.8524    1.3850   -0.6336 C.3       1 <0>        -0.1275
      2 C2         -1.9539    0.4351   -1.4281 C.3       1 <0>        -0.1211
      3 C3         -0.5218    0.9737   -1.4344 C.3       1 <0>        -0.1055
      4 C4         -0.0095    1.0770    0.0035 C.3       1 <0>        -0.1032
      5 C5         -0.9080    2.0269    0.7980 C.3       1 <0>        -0.1096
      6 C6         -2.3401    1.4884    0.8043 C.3       1 <0>        -0.1188
      7 C7          1.4011    1.6074   -0.0027 C.2       1 <0>         0.5259
      8 O1          1.8047    2.2460   -0.9515 O.2       1 <0>        -0.5073
      9 N1          2.2141    1.3722    1.0462 N.am      1 <0>        -0.6350
     10 C8          1.7770    0.5228    2.1645 C.3       1 <0>         0.0809
     11 C9          2.8583   -0.5407    2.4133 C.3       1 <0>        -0.0292
     12 N2          4.1546    0.1225    2.6075 N.4       1 <0>        -0.3974
     13 C10         4.5686    0.8476    1.3989 C.3       1 <0>        -0.0182
     14 C11         3.5597    1.9631    1.1057 C.3       1 <0>         0.0851
     15 C12         5.1827   -0.8420    3.0209 C.3       1 <0>         0.0340
     16 C13         5.4142   -1.8538    1.8969 C.3       1 <0>        -0.1404
     17 C14         6.4849   -2.8583    2.3275 C.3       1 <0>        -0.1192
     18 C15         6.0189   -3.5923    3.5865 C.3       1 <0>        -0.1319
     19 C16         5.7874   -2.5804    4.7105 C.3       1 <0>        -0.1187
     20 C17         4.7166   -1.5759    4.2799 C.3       1 <0>        -0.1409
     21 H1         -3.8820    0.9979   -0.6290 H         1 <0>         0.0695
     22 H2         -2.8372    2.3807   -1.1008 H         1 <0>         0.0668
     23 H3         -1.9692   -0.5606   -0.9609 H         1 <0>         0.0633
     24 H4         -2.3223    0.3607   -2.4619 H         1 <0>         0.0724
     25 H5          0.1242    0.2908   -2.0057 H         1 <0>         0.0666
     26 H6         -0.5066    1.9695   -1.9015 H         1 <0>         0.0791
     27 H7         -0.0094    0.0821    0.4728 H         1 <0>         0.0930
     28 H8         -0.5396    2.1012    1.8318 H         1 <0>         0.0646
     29 H9         -0.8927    3.0227    0.3309 H         1 <0>         0.0749
     30 H10        -2.9861    2.1713    1.3755 H         1 <0>         0.0722
     31 H11        -2.3554    0.4927    1.2715 H         1 <0>         0.0649
     32 H12         1.6422    1.1415    3.0639 H         1 <0>         0.0993
     33 H13         0.8237    0.0385    1.9063 H         1 <0>         0.1330
     34 H14         2.6024   -1.1203    3.3125 H         1 <0>         0.1472
     35 H15         2.9156   -1.2152    1.5463 H         1 <0>         0.1319
     36 H16         5.5653    1.2853    1.5573 H         1 <0>         0.1436
     37 H17         4.6049    0.1514    0.5480 H         1 <0>         0.1316
     38 H18         3.7947    2.4377    0.1416 H         1 <0>         0.1364
     39 H19         3.5933    2.7189    1.9042 H         1 <0>         0.0955
     40 H20         6.1021   -0.2732    3.2236 H         1 <0>         0.1367
     41 H21         4.4757   -2.3868    1.6843 H         1 <0>         0.0846
     42 H22         5.7493   -1.3261    0.9918 H         1 <0>         0.0850
     43 H23         6.6513   -3.5858    1.5194 H         1 <0>         0.0841
     44 H24         7.4234   -2.3254    2.5400 H         1 <0>         0.0749
     45 H25         5.0805   -4.1253    3.3740 H         1 <0>         0.0694
     46 H26         6.7887   -4.3145    3.8961 H         1 <0>         0.0802
     47 H27         5.4523   -3.1081    5.6156 H         1 <0>         0.0856
     48 H28         6.7259   -2.0474    4.9231 H         1 <0>         0.0753
     49 H29         4.5502   -0.8483    5.0880 H         1 <0>         0.0883
     50 H30         3.7781   -2.1089    4.0674 H         1 <0>         0.0878
     51 H31         4.0355    0.8595    3.4154 H         1 <0>         0.4404
@<TRIPOS>BOND
     1    1    6 1
     2    1    2 1
     3    1   21 1
     4    1   22 1
     5    2    3 1
     6    2   23 1
     7    2   24 1
     8    3    4 1
     9    3   25 1
    10    3   26 1
    11    4    5 1
    12    4    7 1
    13    4   27 1
    14    5    6 1
    15    5   28 1
    16    5   29 1
    17    6   30 1
    18    6   31 1
    19    7    8 2
    20    7    9 am
    21    9   14 1
    22    9   10 1
    23   10   11 1
    24   10   32 1
    25   10   33 1
    26   11   12 1
    27   11   34 1
    28   11   35 1
    29   12   13 1
    30   12   15 1
    31   12   51 1
    32   13   14 1
    33   13   36 1
    34   13   37 1
    35   14   38 1
    36   14   39 1
    37   15   20 1
    38   15   16 1
    39   15   40 1
    40   16   17 1
    41   16   41 1
    42   16   42 1
    43   17   18 1
    44   17   43 1
    45   17   44 1
    46   18   19 1
    47   18   45 1
    48   18   46 1
    49   19   20 1
    50   19   47 1
    51   19   48 1
    52   20   49 1
    53   20   50 1
@<TRIPOS>MOLECULE
ZINC45285589
   67    70     0     0     0
SMALL
USER_CHARGES

@<TRIPOS>ATOM
      1 C1          3.3420   -5.4825   -0.7567 C.3       1 <0>         0.0259
      2 O1          2.1499   -5.2317   -0.0096 O.3       1 <0>        -0.3147
      3 C2          1.0414   -4.8845   -0.7150 C.ar      1 <0>         0.1280
      4 C3          1.1045   -4.7945   -2.0953 C.ar      1 <0>        -0.2105
      5 C4         -0.0230   -4.4408   -2.8106 C.ar      1 <0>        -0.0815
      6 C5         -1.2031   -4.1768   -2.1457 C.ar      1 <0>        -0.1599
      7 C6         -1.2709   -4.2643   -0.7610 C.ar      1 <0>        -0.0405
      8 C7         -0.1531   -4.6268   -0.0448 C.ar      1 <0>        -0.1046
      9 C8         -0.1595   -4.7627    1.4552 C.3       1 <0>        -0.0719
     10 C9         -1.3691   -4.0482    2.0543 C.3       1 <0>        -0.1219
     11 C10        -2.6264   -4.5247    1.3174 C.3       1 <0>        -0.1127
     12 C11        -2.5899   -3.9542   -0.1027 C.3       1 <0>        -0.0448
     13 H1         -2.7309   -2.8738   -0.0717 H         1 <0>         0.0844
     14 C12        -3.7208   -4.5866   -0.9163 C.3       1 <0>        -0.1155
     15 C13        -5.0691   -4.1678   -0.3268 C.3       1 <0>        -0.1226
     16 C14        -6.1992   -4.6936   -1.2141 C.3       1 <0>        -0.1166
     17 C15        -7.5475   -4.2748   -0.6246 C.3       1 <0>        -0.1000
     18 C16        -7.7519   -4.9649    0.7271 C.3       1 <0>        -0.1434
     19 C17        -9.1350   -4.6046    1.2736 C.3       1 <0>        -0.0114
     20 N1        -10.1687   -5.0525    0.3326 N.4       1 <0>        -0.3805
     21 C18       -10.0226   -4.3416   -0.9432 C.3       1 <0>        -0.0110
     22 C19        -8.6736   -4.6917   -1.5750 C.3       1 <0>        -0.1419
     23 C20       -11.4962   -4.7745    0.8971 C.3       1 <0>         0.0255
     24 C21       -11.6535   -5.5223    2.2226 C.3       1 <0>        -0.1407
     25 C22       -13.0361   -5.2329    2.8105 C.3       1 <0>        -0.1174
     26 C23       -14.1147   -5.6992    1.8307 C.3       1 <0>        -0.1315
     27 C24       -13.9574   -4.9514    0.5052 C.3       1 <0>        -0.1175
     28 C25       -12.5748   -5.2408   -0.0827 C.3       1 <0>        -0.1409
     29 H2          4.1491   -5.7490   -0.0743 H         1 <0>         0.1027
     30 H3          3.1687   -6.3032   -1.4527 H         1 <0>         0.0563
     31 H4          3.6175   -4.5864   -1.3128 H         1 <0>         0.0566
     32 H5          2.0313   -4.9997   -2.6104 H         1 <0>         0.1288
     33 H6          0.0189   -4.3708   -3.8875 H         1 <0>         0.1247
     34 H7         -2.0826   -3.8990   -2.7075 H         1 <0>         0.1224
     35 H8         -0.1985   -5.8193    1.7202 H         1 <0>         0.0734
     36 H9          0.7532   -4.3249    1.8596 H         1 <0>         0.0774
     37 H10        -1.4508   -4.2903    3.1139 H         1 <0>         0.0689
     38 H11        -1.2574   -2.9710    1.9309 H         1 <0>         0.0656
     39 H12        -2.6411   -5.6140    1.2831 H         1 <0>         0.0667
     40 H13        -3.5146   -4.1611    1.8341 H         1 <0>         0.0651
     41 H14        -3.6563   -4.2499   -1.9510 H         1 <0>         0.0692
     42 H15        -3.6304   -5.6723   -0.8813 H         1 <0>         0.0660
     43 H16        -5.1717   -4.5824    0.6760 H         1 <0>         0.0664
     44 H17        -5.1220   -3.0802   -0.2775 H         1 <0>         0.0656
     45 H18        -6.0966   -4.2790   -2.2170 H         1 <0>         0.0734
     46 H19        -6.1463   -5.7812   -1.2635 H         1 <0>         0.0688
     47 H20        -7.5661   -3.1934   -0.4896 H         1 <0>         0.0888
     48 H21        -7.6813   -6.0450    0.5987 H         1 <0>         0.0877
     49 H22        -6.9857   -4.6300    1.4263 H         1 <0>         0.1138
     50 H23        -9.2838   -5.0942    2.2360 H         1 <0>         0.1312
     51 H24        -9.2045   -3.5244    1.4018 H         1 <0>         0.1272
     52 H25       -10.8266   -4.6369   -1.6174 H         1 <0>         0.1313
     53 H26       -10.0731   -3.2670   -0.7677 H         1 <0>         0.1272
     54 H27        -8.5663   -4.1615   -2.5213 H         1 <0>         0.1116
     55 H28        -8.6221   -5.7662   -1.7511 H         1 <0>         0.0874
     56 H29       -11.6006   -3.7034    1.0696 H         1 <0>         0.1349
     57 H30       -11.5491   -6.5935    2.0500 H         1 <0>         0.0858
     58 H31       -10.8850   -5.1901    2.9206 H         1 <0>         0.0872
     59 H32       -13.1481   -5.7656    3.7548 H         1 <0>         0.0845
     60 H33       -13.1405   -4.1617    2.9830 H         1 <0>         0.0740
     61 H34       -14.0103   -6.7703    1.6581 H         1 <0>         0.0700
     62 H35       -15.0997   -5.4930    2.2495 H         1 <0>         0.0793
     63 H36       -14.7258   -5.2836   -0.1928 H         1 <0>         0.0844
     64 H37       -14.0618   -3.8802    0.6777 H         1 <0>         0.0740
     65 H38       -12.4627   -4.7081   -1.0270 H         1 <0>         0.0871
     66 H39       -12.4704   -6.3120   -0.2553 H         1 <0>         0.0858
     67 H40       -10.0729   -6.0447    0.1765 H         1 <0>         0.4193
@<TRIPOS>BOND
     1    1    2 1
     2    1   29 1
     3    1   30 1
     4    1   31 1
     5    2    3 1
     6    3    8 ar
     7    3    4 ar
     8    4    5 ar
     9    4   32 1
    10    5    6 ar
    11    5   33 1
    12    6    7 ar
    13    6   34 1
    14    7   12 1
    15    7    8 ar
    16    8    9 1
    17    9   10 1
    18    9   35 1
    19    9   36 1
    20   10   11 1
    21   10   37 1
    22   10   38 1
    23   11   12 1
    24   11   39 1
    25   11   40 1
    26   12   13 1
    27   12   14 1
    28   14   15 1
    29   14   41 1
    30   14   42 1
    31   15   16 1
    32   15   43 1
    33   15   44 1
    34   16   17 1
    35   16   45 1
    36   16   46 1
    37   17   22 1
    38   17   18 1
    39   17   47 1
    40   18   19 1
    41   18   48 1
    42   18   49 1
    43   19   20 1
    44   19   50 1
    45   19   51 1
    46   20   21 1
    47   20   23 1
    48   20   67 1
    49   21   22 1
    50   21   52 1
    51   21   53 1
    52   22   54 1
    53   22   55 1
    54   23   28 1
    55   23   24 1
    56   23   56 1
    57   24   25 1
    58   24   57 1
    59   24   58 1
    60   25   26 1
    61   25   59 1
    62   25   60 1
    63   26   27 1
    64   26   61 1
    65   26   62 1
    66   27   28 1
    67   27   63 1
    68   27   64 1
    69   28   65 1
    70   28   66 1
@<TRIPOS>MOLECULE
ZINC45285591
   67    70     0     0     0
SMALL
USER_CHARGES

@<TRIPOS>ATOM
      1 C1          3.0281   -6.6796   -0.0099 C.3       1 <0>         0.0259
      2 O1          1.8165   -6.2282   -0.6184 O.3       1 <0>        -0.3145
      3 C2          0.8765   -5.6909    0.2029 C.ar      1 <0>         0.1284
      4 C3          1.1231   -5.5976    1.5624 C.ar      1 <0>        -0.2105
      5 C4          0.1672   -5.0497    2.3955 C.ar      1 <0>        -0.0819
      6 C5         -1.0249   -4.5967    1.8681 C.ar      1 <0>        -0.1601
      7 C6         -1.2765   -4.6877    0.5051 C.ar      1 <0>        -0.0402
      8 C7         -0.3271   -5.2321   -0.3291 C.ar      1 <0>        -0.1041
      9 C8         -0.5361   -5.3714   -1.8142 C.3       1 <0>        -0.0725
     10 C9         -1.6673   -4.4598   -2.2854 C.3       1 <0>        -0.1207
     11 C10        -2.8906   -4.7067   -1.3947 C.3       1 <0>        -0.1144
     12 C11        -2.5964   -4.1665   -0.0004 C.3       1 <0>        -0.0439
     13 H1         -2.5582   -3.0783   -0.0493 H         1 <0>         0.0812
     14 C12        -3.7078   -4.5887    0.9626 C.3       1 <0>        -0.1145
     15 C13        -5.0303   -3.9567    0.5238 C.3       1 <0>        -0.1226
     16 C14        -6.1141   -4.2731    1.5562 C.3       1 <0>        -0.1166
     17 C15        -7.4366   -3.6411    1.1174 C.3       1 <0>        -0.1000
     18 C16        -7.3059   -2.1154    1.1356 C.3       1 <0>        -0.1433
     19 C17        -8.6542   -1.4892    0.7729 C.3       1 <0>        -0.0114
     20 N1         -9.6695   -1.9064    1.7473 N.4       1 <0>        -0.3805
     21 C18        -9.8516   -3.3616    1.6848 C.3       1 <0>        -0.0109
     22 C19        -8.5494   -4.0599    2.0825 C.3       1 <0>        -0.1419
     23 C20       -10.9430   -1.2415    1.4405 C.3       1 <0>         0.0255
     24 C21       -10.7570    0.2754    1.5144 C.3       1 <0>        -0.1407
     25 C22       -12.0834    0.9679    1.1949 C.3       1 <0>        -0.1175
     26 C23       -13.1428    0.5339    2.2098 C.3       1 <0>        -0.1315
     27 C24       -13.3288   -0.9829    2.1359 C.3       1 <0>        -0.1175
     28 C25       -12.0024   -1.6755    2.4554 C.3       1 <0>        -0.1408
     29 H2          3.6899   -7.0850   -0.7752 H         1 <0>         0.1029
     30 H3          3.5181   -5.8430    0.4882 H         1 <0>         0.0564
     31 H4          2.8004   -7.4550    0.7215 H         1 <0>         0.0564
     32 H5          2.0586   -5.9519    1.9694 H         1 <0>         0.1288
     33 H6          0.3522   -4.9764    3.4571 H         1 <0>         0.1244
     34 H7         -1.7698   -4.1674    2.5218 H         1 <0>         0.1217
     35 H8          0.3833   -5.1011   -2.3335 H         1 <0>         0.0775
     36 H9         -0.7882   -6.4062   -2.0461 H         1 <0>         0.0740
     37 H10        -1.3576   -3.4179   -2.2031 H         1 <0>         0.0649
     38 H11        -1.9157   -4.6886   -3.3218 H         1 <0>         0.0698
     39 H12        -3.7582   -4.1962   -1.8129 H         1 <0>         0.0665
     40 H13        -3.0887   -5.7766   -1.3315 H         1 <0>         0.0660
     41 H14        -3.8033   -5.6745    0.9536 H         1 <0>         0.0672
     42 H15        -3.4619   -4.2540    1.9704 H         1 <0>         0.0688
     43 H16        -4.9081   -2.8765    0.4447 H         1 <0>         0.0639
     44 H17        -5.3224   -4.3613   -0.4453 H         1 <0>         0.0681
     45 H18        -6.2363   -5.3534    1.6354 H         1 <0>         0.0736
     46 H19        -5.8220   -3.8686    2.5253 H         1 <0>         0.0685
     47 H20        -7.6834   -3.9750    0.1096 H         1 <0>         0.0889
     48 H21        -7.0084   -1.7875    2.1316 H         1 <0>         0.0876
     49 H22        -6.5538   -1.8058    0.4100 H         1 <0>         0.1138
     50 H23        -8.5646   -0.4029    0.7848 H         1 <0>         0.1312
     51 H24        -8.9506   -1.8176   -0.2232 H         1 <0>         0.1272
     52 H25       -10.6460   -3.6577    2.3698 H         1 <0>         0.1313
     53 H26       -10.1225   -3.6501    0.6691 H         1 <0>         0.1273
     54 H27        -8.6861   -5.1402    2.0337 H         1 <0>         0.1116
     55 H28        -8.2777   -3.7723    3.0982 H         1 <0>         0.0874
     56 H29       -11.2655   -1.5195    0.4371 H         1 <0>         0.1349
     57 H30       -10.4345    0.5534    2.5178 H         1 <0>         0.0857
     58 H31       -10.0023    0.5846    0.7914 H         1 <0>         0.0872
     59 H32       -11.9509    2.0486    1.2475 H         1 <0>         0.0844
     60 H33       -12.4059    0.6899    0.1915 H         1 <0>         0.0740
     61 H34       -12.8203    0.8120    3.2132 H         1 <0>         0.0700
     62 H35       -14.0877    1.0273    1.9821 H         1 <0>         0.0793
     63 H36       -14.0836   -1.2921    2.8589 H         1 <0>         0.0844
     64 H37       -13.6513   -1.2610    1.1325 H         1 <0>         0.0740
     65 H38       -12.1349   -2.7561    2.4028 H         1 <0>         0.0871
     66 H39       -11.6799   -1.3975    3.4588 H         1 <0>         0.0858
     67 H40        -9.3711   -1.6454    2.6752 H         1 <0>         0.4192
@<TRIPOS>BOND
     1    1    2 1
     2    1   29 1
     3    1   30 1
     4    1   31 1
     5    2    3 1
     6    3    8 ar
     7    3    4 ar
     8    4    5 ar
     9    4   32 1
    10    5    6 ar
    11    5   33 1
    12    6    7 ar
    13    6   34 1
    14    7   12 1
    15    7    8 ar
    16    8    9 1
    17    9   10 1
    18    9   35 1
    19    9   36 1
    20   10   11 1
    21   10   37 1
    22   10   38 1
    23   11   12 1
    24   11   39 1
    25   11   40 1
    26   12   13 1
    27   12   14 1
    28   14   15 1
    29   14   41 1
    30   14   42 1
    31   15   16 1
    32   15   43 1
    33   15   44 1
    34   16   17 1
    35   16   45 1
    36   16   46 1
    37   17   22 1
    38   17   18 1
    39   17   47 1
    40   18   19 1
    41   18   48 1
    42   18   49 1
    43   19   20 1
    44   19   50 1
    45   19   51 1
    46   20   21 1
    47   20   23 1
    48   20   67 1
    49   21   22 1
    50   21   52 1
    51   21   53 1
    52   22   54 1
    53   22   55 1
    54   23   28 1
    55   23   24 1
    56   23   56 1
    57   24   25 1
    58   24   57 1
    59   24   58 1
    60   25   26 1
    61   25   59 1
    62   25   60 1
    63   26   27 1
    64   26   61 1
    65   26   62 1
    66   27   28 1
    67   27   63 1
    68   27   64 1
    69   28   65 1
    70   28   66 1
@<TRIPOS>MOLECULE
ZINC01668339
   34    35     0     0     0
SMALL
USER_CHARGES

@<TRIPOS>ATOM
      1 C1         -0.0167    1.3781    0.0096 C.ar      1 <0>        -0.1042
      2 C2          1.1709    2.0855    0.0021 C.ar      1 <0>        -0.1138
      3 C3          2.3773    1.4107   -0.0130 C.ar      1 <0>        -0.1103
      4 C4          2.3960    0.0285   -0.0201 C.ar      1 <0>        -0.1088
      5 C5          1.2084   -0.6789   -0.0117 C.ar      1 <0>        -0.1105
      6 C6          0.0021   -0.0041    0.0020 C.ar      1 <0>        -0.1139
      7 C7          3.7112   -0.7071   -0.0376 C.3       1 <0>        -0.0995
      8 C8          4.1714   -0.9633    1.3989 C.3       1 <0>        -0.0062
      9 N1          5.4533   -1.6804    1.3819 N.4       1 <0>        -0.3831
     10 C9          5.2622   -3.0072    0.7840 C.3       1 <0>        -0.0127
     11 C10         6.6091   -3.7272    0.6897 C.3       1 <0>        -0.1458
     12 C11         7.2002   -3.8788    2.0942 C.3       1 <0>        -0.1397
     13 C12         7.3259   -2.4944    2.7367 C.3       1 <0>        -0.1462
     14 C13         5.9524   -1.8201    2.7552 C.3       1 <0>        -0.0067
     15 H1         -0.9591    1.9053    0.0259 H         1 <0>         0.1299
     16 H2          1.1563    3.1654    0.0076 H         1 <0>         0.1297
     17 H3          3.3051    1.9634   -0.0196 H         1 <0>         0.1241
     18 H4          1.2231   -1.7588   -0.0176 H         1 <0>         0.1234
     19 H5         -0.9258   -0.5567    0.0082 H         1 <0>         0.1295
     20 H6          3.5884   -1.6586   -0.5549 H         1 <0>         0.0945
     21 H7          4.4573   -0.1052   -0.5563 H         1 <0>         0.0945
     22 H8          4.2941   -0.0118    1.9163 H         1 <0>         0.1319
     23 H9          3.4252   -1.5652    1.9176 H         1 <0>         0.1303
     24 H10         4.5817   -3.5903    1.4046 H         1 <0>         0.1283
     25 H11         4.8385   -2.8978   -0.2143 H         1 <0>         0.1311
     26 H12         6.4647   -4.7128    0.2472 H         1 <0>         0.1118
     27 H13         7.2903   -3.1451    0.0690 H         1 <0>         0.0875
     28 H14         6.5441   -4.5037    2.7003 H         1 <0>         0.0816
     29 H15         8.1854   -4.3404    2.0272 H         1 <0>         0.0942
     30 H16         7.6939   -2.5988    3.7574 H         1 <0>         0.1121
     31 H17         8.0219   -1.8867    2.1585 H         1 <0>         0.0875
     32 H18         6.0382   -0.8342    3.2121 H         1 <0>         0.1297
     33 H19         5.2572   -2.4284    3.3338 H         1 <0>         0.1279
     34 H20         6.1215   -1.1598    0.8336 H         1 <0>         0.4220
@<TRIPOS>BOND
     1    1    6 ar
     2    1    2 ar
     3    1   15 1
     4    2    3 ar
     5    2   16 1
     6    3    4 ar
     7    3   17 1
     8    4    5 ar
     9    4    7 1
    10    5    6 ar
    11    5   18 1
    12    6   19 1
    13    7    8 1
    14    7   20 1
    15    7   21 1
    16    8    9 1
    17    8   22 1
    18    8   23 1
    19    9   14 1
    20    9   10 1
    21    9   34 1
    22   10   11 1
    23   10   24 1
    24   10   25 1
    25   11   12 1
    26   11   26 1
    27   11   27 1
    28   12   13 1
    29   12   28 1
    30   12   29 1
    31   13   14 1
    32   13   30 1
    33   13   31 1
    34   14   32 1
    35   14   33 1
