@<TRIPOS>MOLECULE
ZINC04165898
   78    81     0     0     0
SMALL
USER_CHARGES

@<TRIPOS>ATOM
      1 C1          0.0711    1.6542    0.3900 C.3       1 <0>        -0.1518
      2 C2         -0.0792    0.1317    0.4057 C.3       1 <0>        -0.0387
      3 C3         -1.5370   -0.2302    0.5777 C.3       1 <0>        -0.1105
      4 C4         -2.0718    0.5822    1.7675 C.3       1 <0>        -0.1197
      5 C5         -1.2908    0.3071    3.0519 C.3       1 <0>        -0.0501
      6 H1         -1.5530   -0.6990    3.3794 H         1 <0>         0.0907
      7 C6          0.1964    0.3302    2.8219 C.2       1 <0>        -0.0364
      8 C7          1.0589    0.9569    3.6136 C.2       1 <0>        -0.2304
      9 C8          0.5784    1.6757    4.7994 C.2       1 <0>         0.3940
     10 O1          1.2417    2.5404    5.3327 O.2       1 <0>        -0.4480
     11 C9         -0.7873    1.2839    5.3234 C.3       1 <0>        -0.1184
     12 H2         -1.1235    2.0155    6.0582 H         1 <0>         0.1096
     13 C10        -1.7450    1.2669    4.1374 C.3       1 <0>        -0.0385
     14 C11        -3.1386    0.8697    4.6328 C.3       1 <0>        -0.0969
     15 C12        -3.0738   -0.5220    5.2656 C.3       1 <0>         0.0704
     16 H3         -2.7325   -1.2430    4.5228 H         1 <0>         0.0666
     17 C13        -2.0986   -0.5041    6.4441 C.3       1 <0>         0.0788
     18 H4         -2.0518   -1.4968    6.8919 H         1 <0>         0.0596
     19 C14        -0.7031   -0.0988    5.9721 C.3       1 <0>        -0.0986
     20 O2         -2.5485    0.4377    7.4201 O.3       1 <0>        -0.5546
     21 O3         -4.3731   -0.8950    5.7290 O.3       1 <0>        -0.5621
     22 C15        -1.8343    2.6748    3.5452 C.3       1 <0>        -0.1550
     23 C16         0.6863   -0.4521    1.6264 C.3       1 <0>         0.1521
     24 C17         2.1396   -0.2345    1.1991 C.3       1 <0>        -0.1476
     25 C18         2.1212   -0.6438   -0.3009 C.3       1 <0>        -0.1007
     26 C19         0.6581   -0.4641   -0.7837 C.3       1 <0>        -0.0913
     27 H5          0.2268   -1.4285   -1.0522 H         1 <0>         0.0833
     28 C20         0.6054    0.4935   -1.9758 C.3       1 <0>         0.1127
     29 C21        -0.8530    0.8169   -2.3061 C.3       1 <0>        -0.1570
     30 C22         1.2691   -0.1637   -3.1876 C.3       1 <0>         0.0823
     31 H6          0.7404   -1.0837   -3.4369 H         1 <0>         0.1015
     32 C23         1.2165    0.7938   -4.3797 C.3       1 <0>        -0.1451
     33 C24         1.7669    0.0916   -5.6226 C.3       1 <0>        -0.1400
     34 C25         1.7142    1.0492   -6.8147 C.3       1 <0>         0.1253
     35 C26         2.1469    0.3098   -8.0824 C.3       1 <0>        -0.1801
     36 C27         0.2855    1.5680   -6.9895 C.3       1 <0>        -0.1431
     37 O4          2.5953    2.1497   -6.5810 O.3       1 <0>        -0.5593
     38 O5          2.6313   -0.4659   -2.8791 O.3       1 <0>        -0.5517
     39 O6          1.2986    1.6996   -1.6489 O.3       1 <0>        -0.5435
     40 O7          0.3996   -1.8424    1.7908 O.3       1 <0>        -0.5363
     41 H7          1.1279    1.9144    0.3297 H         1 <0>         0.0683
     42 H8         -0.4533    2.0622   -0.4741 H         1 <0>         0.0810
     43 H9         -0.3541    2.0708    1.3030 H         1 <0>         0.0505
     44 H10        -2.0916    0.0253   -0.3252 H         1 <0>         0.0722
     45 H11        -1.6326   -1.2963    0.7836 H         1 <0>         0.0771
     46 H12        -2.0012    1.6440    1.5312 H         1 <0>         0.0795
     47 H13        -3.1190    0.3263    1.9285 H         1 <0>         0.0688
     48 H14         2.1142    0.9379    3.3846 H         1 <0>         0.1362
     49 H15        -3.4801    1.5912    5.3751 H         1 <0>         0.0836
     50 H16        -3.8329    0.8552    3.7927 H         1 <0>         0.0772
     51 H17        -0.3437   -0.8225    5.2405 H         1 <0>         0.0817
     52 H18        -0.0151   -0.0629    6.8168 H         1 <0>         0.0819
     53 H19        -3.4256    0.2443    7.7783 H         1 <0>         0.3816
     54 H20        -4.4073   -1.7684    6.1428 H         1 <0>         0.3791
     55 H21        -2.6388    2.7097    2.8106 H         1 <0>         0.0702
     56 H22        -2.0376    3.3915    4.3409 H         1 <0>         0.0620
     57 H23        -0.8901    2.9264    3.0622 H         1 <0>         0.0596
     58 H24         2.4223    0.8123    1.3104 H         1 <0>         0.0817
     59 H25         2.8100   -0.8793    1.7673 H         1 <0>         0.0708
     60 H26         2.7864    0.0026   -0.8735 H         1 <0>         0.0670
     61 H27         2.4258   -1.6848   -0.4087 H         1 <0>         0.0714
     62 H28        -1.3614    1.1626   -1.4060 H         1 <0>         0.0833
     63 H29        -0.8890    1.5974   -3.0661 H         1 <0>         0.0674
     64 H30        -1.3478   -0.0788   -2.6815 H         1 <0>         0.0685
     65 H31         0.1842    1.0941   -4.5592 H         1 <0>         0.0779
     66 H32         1.8192    1.6761   -4.1640 H         1 <0>         0.0774
     67 H33         2.7992   -0.2087   -5.4431 H         1 <0>         0.0697
     68 H34         1.1641   -0.7906   -5.8383 H         1 <0>         0.0679
     69 H35         1.4749   -0.5296   -8.2607 H         1 <0>         0.0651
     70 H36         2.1094    0.9920   -8.9317 H         1 <0>         0.0636
     71 H37         3.1648   -0.0598   -7.9579 H         1 <0>         0.0577
     72 H38        -0.0228    2.0948   -6.0864 H         1 <0>         0.0660
     73 H39         0.2480    2.2502   -7.8388 H         1 <0>         0.0611
     74 H40        -0.3866    0.7285   -7.1678 H         1 <0>         0.0684
     75 H41         3.5202    1.8944   -6.4607 H         1 <0>         0.3742
     76 H42         3.1630    0.3079   -2.6472 H         1 <0>         0.3679
     77 H43         2.2311    1.5699   -1.4281 H         1 <0>         0.3656
     78 H44         0.8541   -2.2518    2.5397 H         1 <0>         0.3758
@<TRIPOS>BOND
     1    1    2 1
     2    1   41 1
     3    1   42 1
     4    1   43 1
     5    2   23 1
     6    2   26 1
     7    2    3 1
     8    3    4 1
     9    3   44 1
    10    3   45 1
    11    4    5 1
    12    4   46 1
    13    4   47 1
    14    5    6 1
    15    5   13 1
    16    5    7 1
    17    7    8 2
    18    7   23 1
    19    8    9 1
    20    8   48 1
    21    9   10 2
    22    9   11 1
    23   11   12 1
    24   11   19 1
    25   11   13 1
    26   13   14 1
    27   13   22 1
    28   14   15 1
    29   14   49 1
    30   14   50 1
    31   15   16 1
    32   15   17 1
    33   15   21 1
    34   17   18 1
    35   17   19 1
    36   17   20 1
    37   19   51 1
    38   19   52 1
    39   20   53 1
    40   21   54 1
    41   22   55 1
    42   22   56 1
    43   22   57 1
    44   23   24 1
    45   23   40 1
    46   24   25 1
    47   24   58 1
    48   24   59 1
    49   25   26 1
    50   25   60 1
    51   25   61 1
    52   26   27 1
    53   26   28 1
    54   28   29 1
    55   28   30 1
    56   28   39 1
    57   29   62 1
    58   29   63 1
    59   29   64 1
    60   30   31 1
    61   30   32 1
    62   30   38 1
    63   32   33 1
    64   32   65 1
    65   32   66 1
    66   33   34 1
    67   33   67 1
    68   33   68 1
    69   34   35 1
    70   34   36 1
    71   34   37 1
    72   35   69 1
    73   35   70 1
    74   35   71 1
    75   36   72 1
    76   36   73 1
    77   36   74 1
    78   37   75 1
    79   38   76 1
    80   39   77 1
    81   40   78 1
@<TRIPOS>MOLECULE
ZINC04165898
   78    81     0     0     0
SMALL
USER_CHARGES

@<TRIPOS>ATOM
      1 C1         -0.0411    1.4179    0.0486 C.3       1 <0>        -0.1460
      2 C2         -0.0006   -0.1088   -0.0223 C.3       1 <0>        -0.0393
      3 C3         -1.3862   -0.6834    0.0140 C.3       1 <0>        -0.1047
      4 C4         -1.9152   -0.8647    1.4432 C.3       1 <0>        -0.1059
      5 C5         -1.1756   -0.0143    2.4602 C.3       1 <0>        -0.0629
      6 H1         -1.2771    1.0232    2.1056 H         1 <0>         0.0967
      7 C6          0.2958   -0.3105    2.4237 C.2       1 <0>        -0.0368
      8 C7          1.0673   -0.2947    3.5079 C.2       1 <0>        -0.2301
      9 C8          0.4432   -0.0620    4.8177 C.2       1 <0>         0.3954
     10 O1          1.0338    0.4406    5.7488 O.2       1 <0>        -0.4439
     11 C9         -0.9893   -0.5459    4.9471 C.3       1 <0>        -0.1172
     12 H2         -1.3918   -0.2305    5.9129 H         1 <0>         0.1100
     13 C10        -1.8142    0.0623    3.8198 C.3       1 <0>        -0.0281
     14 C11        -3.2365   -0.4819    3.8423 C.3       1 <0>        -0.0948
     15 C12        -3.2910   -2.0025    3.8526 C.3       1 <0>         0.0711
     16 H3         -2.9251   -2.4053    2.9057 H         1 <0>         0.0733
     17 C13        -2.4525   -2.5593    5.0011 C.3       1 <0>         0.0793
     18 H4         -2.4684   -3.6505    4.9653 H         1 <0>         0.0587
     19 C14        -1.0104   -2.0715    4.8555 C.3       1 <0>        -0.0991
     20 O2         -2.9840   -2.1226    6.2513 O.3       1 <0>        -0.5542
     21 O3         -4.6486   -2.4233    4.0254 O.3       1 <0>        -0.5672
     22 C15        -1.9266    1.5683    4.1432 C.3       1 <0>        -0.1577
     23 C16         0.8757   -0.7159    1.1025 C.3       1 <0>         0.1608
     24 C17         2.2574   -0.1419    0.7595 C.3       1 <0>        -0.1443
     25 C18         2.3035   -0.2317   -0.7907 C.3       1 <0>        -0.0985
     26 C19         0.8437   -0.4598   -1.2612 C.3       1 <0>        -0.0938
     27 H5          0.6789   -1.4917   -1.5434 H         1 <0>         0.0869
     28 C20         0.4952    0.4888   -2.4077 C.3       1 <0>         0.1114
     29 C21        -1.0135    0.4519   -2.6596 C.3       1 <0>        -0.1558
     30 C22         1.2345    0.0517   -3.6739 C.3       1 <0>         0.0823
     31 H6          0.9349   -0.9626   -3.9377 H         1 <0>         0.1014
     32 C23         0.8857    1.0013   -4.8217 C.3       1 <0>        -0.1462
     33 C24         1.5247    0.4935   -6.1158 C.3       1 <0>        -0.1399
     34 C25         1.1759    1.4431   -7.2636 C.3       1 <0>         0.1253
     35 C26         1.7088    0.8710   -8.5788 C.3       1 <0>        -0.1801
     36 C27        -0.3436    1.5982   -7.3534 C.3       1 <0>        -0.1431
     37 O4          1.7716    2.7197   -7.0234 O.3       1 <0>        -0.5594
     38 O5          2.6436    0.0861   -3.4387 O.3       1 <0>        -0.5521
     39 O6          0.8880    1.8185   -2.0619 O.3       1 <0>        -0.5446
     40 O7          0.9089   -2.1535    0.9970 O.3       1 <0>        -0.5384
     41 H7          0.9635    1.8151   -0.0966 H         1 <0>         0.0697
     42 H8         -0.6993    1.8005   -0.7314 H         1 <0>         0.0832
     43 H9         -0.4163    1.7264    1.0244 H         1 <0>         0.0428
     44 H10        -2.0689   -0.0203   -0.5326 H         1 <0>         0.0678
     45 H11        -1.3879   -1.6543   -0.4952 H         1 <0>         0.0680
     46 H12        -2.9788   -0.6166    1.4607 H         1 <0>         0.0743
     47 H13        -1.8021   -1.9233    1.7135 H         1 <0>         0.0661
     48 H14         2.1317   -0.4519    3.4272 H         1 <0>         0.1378
     49 H15        -3.7432   -0.0988    4.7416 H         1 <0>         0.0789
     50 H16        -3.7901   -0.0972    2.9797 H         1 <0>         0.0772
     51 H17        -0.6135   -2.3901    3.8922 H         1 <0>         0.0853
     52 H18        -0.3989   -2.4947    5.6518 H         1 <0>         0.0768
     53 H19        -3.8962   -2.4014    6.4097 H         1 <0>         0.3816
     54 H20        -4.7638   -3.3832    4.0422 H         1 <0>         0.3788
     55 H21        -2.5417    2.0572    3.3878 H         1 <0>         0.0643
     56 H22        -2.3852    1.6961    5.1237 H         1 <0>         0.0648
     57 H23        -0.9320    2.0144    4.1463 H         1 <0>         0.0556
     58 H24         2.3581    0.8838    1.1019 H         1 <0>         0.0796
     59 H25         3.0430   -0.7606    1.1998 H         1 <0>         0.0691
     60 H26         2.6924    0.6983   -1.2081 H         1 <0>         0.0597
     61 H27         2.9288   -1.0695   -1.0985 H         1 <0>         0.0737
     62 H28        -1.5351    0.8844   -1.8058 H         1 <0>         0.0820
     63 H29        -1.2462    1.0260   -3.5565 H         1 <0>         0.0659
     64 H30        -1.3339   -0.5809   -2.7960 H         1 <0>         0.0701
     65 H31        -0.1967    1.0427   -4.9428 H         1 <0>         0.0790
     66 H32         1.2645    1.9982   -4.5963 H         1 <0>         0.0773
     67 H33         2.6071    0.4521   -5.9947 H         1 <0>         0.0697
     68 H34         1.1459   -0.5034   -6.3412 H         1 <0>         0.0679
     69 H35         1.2544   -0.1027   -8.7620 H         1 <0>         0.0651
     70 H36         1.4603    1.5475   -9.3965 H         1 <0>         0.0636
     71 H37         2.7913    0.7606   -8.5148 H         1 <0>         0.0577
     72 H38        -0.7232    2.0058   -6.4165 H         1 <0>         0.0659
     73 H39        -0.5921    2.2747   -8.1711 H         1 <0>         0.0612
     74 H40        -0.7980    0.6245   -7.5366 H         1 <0>         0.0685
     75 H41         2.7359    2.6971   -6.9548 H         1 <0>         0.3742
     76 H42         2.9810    0.9600   -3.1986 H         1 <0>         0.3673
     77 H43         1.8342    1.9165   -1.8880 H         1 <0>         0.3660
     78 H44         1.4437   -2.5855    1.6770 H         1 <0>         0.3751
@<TRIPOS>BOND
     1    1    2 1
     2    1   41 1
     3    1   42 1
     4    1   43 1
     5    2   23 1
     6    2   26 1
     7    2    3 1
     8    3    4 1
     9    3   44 1
    10    3   45 1
    11    4    5 1
    12    4   46 1
    13    4   47 1
    14    5    6 1
    15    5   13 1
    16    5    7 1
    17    7    8 2
    18    7   23 1
    19    8    9 1
    20    8   48 1
    21    9   10 2
    22    9   11 1
    23   11   12 1
    24   11   19 1
    25   11   13 1
    26   13   14 1
    27   13   22 1
    28   14   15 1
    29   14   49 1
    30   14   50 1
    31   15   16 1
    32   15   17 1
    33   15   21 1
    34   17   18 1
    35   17   19 1
    36   17   20 1
    37   19   51 1
    38   19   52 1
    39   20   53 1
    40   21   54 1
    41   22   55 1
    42   22   56 1
    43   22   57 1
    44   23   24 1
    45   23   40 1
    46   24   25 1
    47   24   58 1
    48   24   59 1
    49   25   26 1
    50   25   60 1
    51   25   61 1
    52   26   27 1
    53   26   28 1
    54   28   29 1
    55   28   30 1
    56   28   39 1
    57   29   62 1
    58   29   63 1
    59   29   64 1
    60   30   31 1
    61   30   32 1
    62   30   38 1
    63   32   33 1
    64   32   65 1
    65   32   66 1
    66   33   34 1
    67   33   67 1
    68   33   68 1
    69   34   35 1
    70   34   36 1
    71   34   37 1
    72   35   69 1
    73   35   70 1
    74   35   71 1
    75   36   72 1
    76   36   73 1
    77   36   74 1
    78   37   75 1
    79   38   76 1
    80   39   77 1
    81   40   78 1
@<TRIPOS>MOLECULE
ZINC30731581
   81    84     0     0     0
SMALL
USER_CHARGES
(2S,3R,5R,9R,10R,13R,14S,17S)-2,3,14-trihydroxy-10,13-dimethyl-17-[(1R,2R,4R)-1,2,5-trihydroxy-1,4,5-trimethyl-hexyl]-2,3,4,5,9,11,12,15,16,17-decahydro-1H-cyclopenta[a]phenanthren-6-one
@<TRIPOS>ATOM
      1 C1          3.7388   -0.1558    3.7921 C.3       1 <0>        -0.1474
      2 C2          2.5684   -1.1283    3.6334 C.3       1 <0>        -0.0728
      3 H1          2.9537   -2.1285    3.3862 H         1 <0>         0.0826
      4 C3          1.6509   -0.6430    2.5093 C.3       1 <0>        -0.1058
      5 C4          2.4037   -0.6951    1.1783 C.3       1 <0>         0.1360
      6 H2          3.3720   -0.1778    1.2472 H         1 <0>         0.0572
      7 C5          1.5308   -0.0940    0.0748 C.3       1 <0>         0.1282
      8 C6          1.1296    1.3310    0.4613 C.3       1 <0>        -0.1961
      9 C7          2.3164   -0.0645   -1.2377 C.3       1 <0>        -0.0975
     10 H3          3.2270    0.5233   -1.0495 H         1 <0>         0.0796
     11 C8          2.6172   -1.5083   -1.7183 C.3       1 <0>        -0.1410
     12 C9          2.0138   -1.6280   -3.1464 C.3       1 <0>        -0.1066
     13 C10         1.9810   -0.1735   -3.6217 C.3       1 <0>         0.1773
     14 C11         1.4742    0.5522   -2.3438 C.3       1 <0>        -0.0736
     15 C12         1.5816    2.0364   -2.5985 C.3       1 <0>        -0.1157
     16 C13         0.5474    2.4028   -3.6745 C.3       1 <0>        -0.1271
     17 C14         0.7567    1.6176   -4.9687 C.3       1 <0>        -0.0567
     18 H4          1.6776    1.9494   -5.4706 H         1 <0>         0.0867
     19 C15         0.9975    0.1550   -4.7086 C.2       1 <0>        -0.0516
     20 C16         0.4070   -0.8248   -5.3832 C.2       1 <0>        -0.2236
     21 C17        -0.5612   -0.5080   -6.4395 C.2       1 <0>         0.3944
     22 O1         -1.3896   -1.3129   -6.8112 O.2       1 <0>        -0.4475
     23 C18        -0.4659    0.8753   -7.0488 C.3       1 <0>        -0.1172
     24 H5         -1.3366    1.0678   -7.6929 H         1 <0>         0.1091
     25 C19        -0.4077    1.8868   -5.9056 C.3       1 <0>        -0.0335
     26 C20        -0.2925    3.2996   -6.4853 C.3       1 <0>        -0.0971
     27 C21         0.9857    3.4018   -7.3201 C.3       1 <0>         0.1254
     28 H6          1.8807    3.2566   -6.6973 H         1 <0>         0.0630
     29 C22         0.9349    2.3841   -8.4612 C.3       1 <0>         0.0895
     30 H7          1.8165    2.4726   -9.1131 H         1 <0>         0.0557
     31 C23         0.8129    0.9726   -7.8828 C.3       1 <0>        -0.1422
     32 O2         -0.1948    2.6573   -9.2926 O.3       1 <0>        -0.5835
     33 O3          1.0958    4.7195   -7.8620 O.3       1 <0>        -0.5893
     34 C24        -1.7110    1.8053   -5.1084 C.3       1 <0>        -0.1605
     35 C25         0.0004    0.2116   -2.1144 C.3       1 <0>        -0.2107
     36 O4          3.2917    0.2727   -3.9754 O.3       1 <0>        -0.5589
     37 O5          0.3564   -0.8912   -0.0908 O.3       1 <0>        -0.6196
     38 O6          2.7095   -2.0535    0.8569 O.3       1 <0>        -0.5958
     39 C26         1.7795   -1.1948    4.9427 C.3       1 <0>         0.1415
     40 C27         1.2436    0.1965    5.2864 C.3       1 <0>        -0.1835
     41 C28         0.6090   -2.1673    4.7841 C.3       1 <0>        -0.1812
     42 O7          2.6364   -1.6480    5.9926 O.3       1 <0>        -0.5872
     43 H8          4.3984   -0.5047    4.6003 H         1 <0>         0.0619
     44 H9          3.3535    0.8444    4.0393 H         1 <0>         0.0524
     45 H10         4.3059   -0.1079    2.8508 H         1 <0>         0.0508
     46 H11         0.7638   -1.2911    2.4545 H         1 <0>         0.0839
     47 H12         1.3371    0.3915    2.7129 H         1 <0>         0.0764
     48 H13         0.5020    1.7632   -0.3320 H         1 <0>         0.0688
     49 H14         2.0336    1.9446    0.5889 H         1 <0>         0.0625
     50 H15         0.5647    1.3097    1.4049 H         1 <0>         0.0679
     51 H16         3.7051   -1.6701   -1.7347 H         1 <0>         0.0698
     52 H17         2.1497   -2.2285   -1.0307 H         1 <0>         0.1106
     53 H18         2.6631   -2.2633   -3.7667 H         1 <0>         0.0776
     54 H19         1.0118   -2.0776   -3.0846 H         1 <0>         0.0879
     55 H20         1.3747    2.5841   -1.6673 H         1 <0>         0.0804
     56 H21         2.5970    2.2761   -2.9470 H         1 <0>         0.0696
     57 H22        -0.4637    2.1825   -3.3014 H         1 <0>         0.0889
     58 H23         0.6262    3.4746   -3.9090 H         1 <0>         0.0766
     59 H24         0.6437   -1.8734   -5.1501 H         1 <0>         0.1408
     60 H25        -1.1653    3.5070   -7.1219 H         1 <0>         0.0874
     61 H26        -0.2553    4.0309   -5.6644 H         1 <0>         0.0761
     62 H27         1.6836    0.7600   -7.2451 H         1 <0>         0.0791
     63 H28         0.7721    0.2412   -8.7034 H         1 <0>         0.0744
     64 H29        -0.3972    2.0260  -10.1704 H         1 <0>         0.4053
     65 H30         1.9562    4.9841   -8.4942 H         1 <0>         0.4062
     66 H31        -2.5626    1.9988   -5.7772 H         1 <0>         0.0653
     67 H32        -1.6972    2.5570   -4.3054 H         1 <0>         0.0732
     68 H33        -1.8101    0.8016   -4.6694 H         1 <0>         0.0579
     69 H34        -0.6080    0.6580   -2.9148 H         1 <0>         0.0763
     70 H35        -0.3216    0.6127   -1.1420 H         1 <0>         0.0997
     71 H36        -0.1289   -0.8808   -2.1214 H         1 <0>         0.0920
     72 H37         3.4437    1.2998   -4.3386 H         1 <0>         0.3994
     73 H38        -0.3953   -0.6132   -0.8442 H         1 <0>         0.4104
     74 H39         3.2523   -2.2906   -0.0700 H         1 <0>         0.3992
     75 H40         0.6764    0.1487    6.2277 H         1 <0>         0.0545
     76 H41         0.5840    0.5453    4.4782 H         1 <0>         0.0644
     77 H42         2.0851    0.8957    5.4004 H         1 <0>         0.0652
     78 H43         0.0419   -2.2151    5.7254 H         1 <0>         0.0538
     79 H44         0.9943   -3.1675    4.5370 H         1 <0>         0.0625
     80 H45        -0.0506   -1.8184    3.9759 H         1 <0>         0.0679
     81 H46         2.2433   -1.7595    7.0139 H         1 <0>         0.4000
@<TRIPOS>BOND
     1    1    2 1
     2    1   43 1
     3    1   44 1
     4    1   45 1
     5    2    3 1
     6    2    4 1
     7    2   39 1
     8    4    5 1
     9    4   46 1
    10    4   47 1
    11    5    6 1
    12    5    7 1
    13    5   38 1
    14    7    8 1
    15    7    9 1
    16    7   37 1
    17    8   48 1
    18    8   49 1
    19    8   50 1
    20    9   10 1
    21    9   14 1
    22    9   11 1
    23   11   12 1
    24   11   51 1
    25   11   52 1
    26   12   13 1
    27   12   53 1
    28   12   54 1
    29   13   19 1
    30   13   14 1
    31   13   36 1
    32   14   15 1
    33   14   35 1
    34   15   16 1
    35   15   55 1
    36   15   56 1
    37   16   17 1
    38   16   57 1
    39   16   58 1
    40   17   18 1
    41   17   25 1
    42   17   19 1
    43   19   20 2
    44   20   21 1
    45   20   59 1
    46   21   22 2
    47   21   23 1
    48   23   24 1
    49   23   31 1
    50   23   25 1
    51   25   26 1
    52   25   34 1
    53   26   27 1
    54   26   60 1
    55   26   61 1
    56   27   28 1
    57   27   29 1
    58   27   33 1
    59   29   30 1
    60   29   31 1
    61   29   32 1
    62   31   62 1
    63   31   63 1
    64   32   64 1
    65   33   65 1
    66   34   66 1
    67   34   67 1
    68   34   68 1
    69   35   69 1
    70   35   70 1
    71   35   71 1
    72   36   72 1
    73   37   73 1
    74   38   74 1
    75   39   40 1
    76   39   41 1
    77   39   42 1
    78   40   75 1
    79   40   76 1
    80   40   77 1
    81   41   78 1
    82   41   79 1
    83   41   80 1
    84   42   81 1
@<TRIPOS>MOLECULE
ZINC08214375
   81    85     0     0     0
SMALL
USER_CHARGES
4-[2,3-dihydroxy-3-(2,3,14-trihydroxy-10,13-dimethyl-6-oxo-2,3,4,5,9,11,12,15,16,17-decahydro-1H-cyclopenta[a]phenanthren-17-yl)-butyl]-3,5-dimethyl-tetrahydrofuran-2-one
@<TRIPOS>ATOM
      1 C1          0.4629    3.2059   -5.2086 C.3       1 <0>        -0.1365
      2 C2         -0.0926    1.9346   -4.5637 C.3       1 <0>        -0.1540
      3 H1          0.7116    1.2243   -4.3714 H         1 <0>         0.1124
      4 C3         -0.8347    2.2758   -3.2526 C.3       1 <0>        -0.1113
      5 H2         -0.8066    3.3486   -3.0619 H         1 <0>         0.1022
      6 C4         -2.2775    1.8058   -3.5364 C.3       1 <0>         0.0952
      7 H3         -2.4613    0.8412   -3.0634 H         1 <0>         0.0902
      8 O1         -2.3574    1.6817   -4.9884 O.3       1 <0>        -0.3534
      9 C5         -1.1498    1.3083   -5.4500 C.2       1 <0>         0.4866
     10 O2         -0.9444    0.5975   -6.4052 O.2       1 <0>        -0.4476
     11 C6         -3.2829    2.8447   -3.0357 C.3       1 <0>        -0.1525
     12 C7         -0.2360    1.5033   -2.0755 C.3       1 <0>        -0.1427
     13 C8         -0.9065    1.9536   -0.7760 C.3       1 <0>         0.0827
     14 H4         -0.8166    3.0353   -0.6767 H         1 <0>         0.1093
     15 C9         -0.2235    1.2739    0.4124 C.3       1 <0>         0.1123
     16 C10         1.2561    1.6623    0.4408 C.3       1 <0>        -0.1568
     17 C11        -0.8940    1.7242    1.7119 C.3       1 <0>        -0.0897
     18 H5         -0.9005    2.8123    1.7766 H         1 <0>         0.0846
     19 C12        -2.3410    1.1709    1.7915 C.3       1 <0>        -0.1005
     20 C13        -2.4196    0.3477    3.1110 C.3       1 <0>        -0.1492
     21 C14        -1.3096    0.9685    3.9623 C.3       1 <0>         0.1516
     22 C15        -0.1748    1.1278    2.9119 C.3       1 <0>        -0.0380
     23 C16         0.9265    1.9347    3.5611 C.3       1 <0>        -0.1085
     24 C17         1.5571    1.0517    4.6496 C.3       1 <0>        -0.1201
     25 C18         0.5335    0.5994    5.6901 C.3       1 <0>        -0.0506
     26 H6          0.2711    1.4741    6.2852 H         1 <0>         0.0907
     27 C19        -0.7377    0.1074    5.0521 C.2       1 <0>        -0.0366
     28 C20        -1.3812   -0.9910    5.4409 C.2       1 <0>        -0.2308
     29 C21        -0.8393   -1.8154    6.5272 C.2       1 <0>         0.3912
     30 O3         -1.1554   -2.9791    6.6617 O.2       1 <0>        -0.4469
     31 C22         0.1334   -1.1421    7.4722 C.3       1 <0>        -0.1065
     32 H7          0.5729   -1.8331    8.0461 H         1 <0>         0.0992
     33 C23         1.1739   -0.4078    6.6286 C.3       1 <0>        -0.0382
     34 C24         2.1517    0.3043    7.5676 C.3       1 <0>        -0.0971
     35 C25         1.3836    1.2990    8.4403 C.3       1 <0>         0.0698
     36 H8          0.8897    2.0338    7.8045 H         1 <0>         0.0667
     37 C26         0.3343    0.5525    9.2662 C.3       1 <0>         0.0779
     38 H9         -0.2136    1.2630    9.8852 H         1 <0>         0.0608
     39 C27        -0.6399   -0.1636    8.3280 C.3       1 <0>        -0.1030
     40 O4          0.9820   -0.4077   10.1033 O.3       1 <0>        -0.5544
     41 O5          2.2943    1.9648    9.3175 O.3       1 <0>        -0.5623
     42 C28         1.9476   -1.4334    5.7976 C.3       1 <0>        -0.1550
     43 C29         0.3543   -0.2619    2.5516 C.3       1 <0>        -0.1534
     44 O6         -1.7070    2.2398    4.4798 O.3       1 <0>        -0.5360
     45 O7         -0.3413   -0.1443    0.2823 O.3       1 <0>        -0.5442
     46 O8         -2.2884    1.5908   -0.8025 O.3       1 <0>        -0.5468
     47 H10         1.1590    3.6875   -4.5218 H         1 <0>         0.0742
     48 H11         0.9828    2.9480   -6.1313 H         1 <0>         0.0676
     49 H12        -0.3573    3.8881   -5.4322 H         1 <0>         0.0636
     50 H13        -3.1107    3.7924   -3.5460 H         1 <0>         0.0588
     51 H14        -4.2958    2.4994   -3.2429 H         1 <0>         0.0633
     52 H15        -3.1585    2.9825   -1.9617 H         1 <0>         0.1066
     53 H16         0.8347    1.6997   -2.0189 H         1 <0>         0.0882
     54 H17        -0.4024    0.4357   -2.2192 H         1 <0>         0.0776
     55 H18         1.7338    1.3415   -0.4849 H         1 <0>         0.0666
     56 H19         1.3460    2.7440    0.5401 H         1 <0>         0.0709
     57 H20         1.7427    1.1781    1.2875 H         1 <0>         0.0829
     58 H21        -3.0554    1.9937    1.8188 H         1 <0>         0.0730
     59 H22        -2.5432    0.5271    0.9356 H         1 <0>         0.0674
     60 H23        -2.2179   -0.7067    2.9223 H         1 <0>         0.0818
     61 H24        -3.3908    0.4769    3.5886 H         1 <0>         0.0708
     62 H25         1.6782    2.2017    2.8182 H         1 <0>         0.0714
     63 H26         0.5104    2.8367    4.0099 H         1 <0>         0.0770
     64 H27         1.9971    0.1718    4.1804 H         1 <0>         0.0797
     65 H28         2.3448    1.6151    5.1498 H         1 <0>         0.0690
     66 H29        -2.2949   -1.2838    4.9451 H         1 <0>         0.1364
     67 H30         2.6463   -0.4305    8.2029 H         1 <0>         0.0839
     68 H31         2.8983    0.8374    6.9790 H         1 <0>         0.0779
     69 H32        -1.3850   -0.6986    8.9167 H         1 <0>         0.0810
     70 H33        -1.1366    0.5688    7.6916 H         1 <0>         0.0839
     71 H34         1.6148   -0.0237   10.7256 H         1 <0>         0.3824
     72 H35         1.8757    2.6117    9.9018 H         1 <0>         0.3793
     73 H36         2.7923   -0.9447    5.3120 H         1 <0>         0.0705
     74 H37         2.3126   -2.2276    6.4488 H         1 <0>         0.0623
     75 H38         1.2891   -1.8584    5.0401 H         1 <0>         0.0599
     76 H39         1.1376   -0.1687    1.7994 H         1 <0>         0.0812
     77 H40         0.7618   -0.7380    3.4435 H         1 <0>         0.0516
     78 H41        -0.4596   -0.8691    2.1553 H         1 <0>         0.0671
     79 H42        -2.4129    2.1929    5.1391 H         1 <0>         0.3761
     80 H43        -1.2541   -0.4625    0.2575 H         1 <0>         0.3665
     81 H44        -2.4440    0.6404   -0.8894 H         1 <0>         0.3684
@<TRIPOS>BOND
     1    1    2 1
     2    1   47 1
     3    1   48 1
     4    1   49 1
     5    2    3 1
     6    2    9 1
     7    2    4 1
     8    4    5 1
     9    4    6 1
    10    4   12 1
    11    6    7 1
    12    6    8 1
    13    6   11 1
    14    8    9 1
    15    9   10 2
    16   11   50 1
    17   11   51 1
    18   11   52 1
    19   12   13 1
    20   12   53 1
    21   12   54 1
    22   13   14 1
    23   13   15 1
    24   13   46 1
    25   15   16 1
    26   15   17 1
    27   15   45 1
    28   16   55 1
    29   16   56 1
    30   16   57 1
    31   17   18 1
    32   17   22 1
    33   17   19 1
    34   19   20 1
    35   19   58 1
    36   19   59 1
    37   20   21 1
    38   20   60 1
    39   20   61 1
    40   21   27 1
    41   21   22 1
    42   21   44 1
    43   22   23 1
    44   22   43 1
    45   23   24 1
    46   23   62 1
    47   23   63 1
    48   24   25 1
    49   24   64 1
    50   24   65 1
    51   25   26 1
    52   25   33 1
    53   25   27 1
    54   27   28 2
    55   28   29 1
    56   28   66 1
    57   29   30 2
    58   29   31 1
    59   31   32 1
    60   31   39 1
    61   31   33 1
    62   33   34 1
    63   33   42 1
    64   34   35 1
    65   34   67 1
    66   34   68 1
    67   35   36 1
    68   35   37 1
    69   35   41 1
    70   37   38 1
    71   37   39 1
    72   37   40 1
    73   39   69 1
    74   39   70 1
    75   40   71 1
    76   41   72 1
    77   42   73 1
    78   42   74 1
    79   42   75 1
    80   43   76 1
    81   43   77 1
    82   43   78 1
    83   44   79 1
    84   45   80 1
    85   46   81 1
@<TRIPOS>MOLECULE
ZINC04097822
   77    80     0     0     0
SMALL
USER_CHARGES
17-(1,2-dihydroxy-1,5-dimethyl-hexyl)-2,3,14-trihydroxy-10,13-dimethyl-2,3,4,5,9,11,12,15,16,17-decahydro-1H-cyclopenta[a]phenanthren-6-one
@<TRIPOS>ATOM
      1 C1          0.8982    3.8811   -3.4832 C.3       1 <0>        -0.1490
      2 C2          0.7796    2.3567   -3.5383 C.3       1 <0>        -0.0976
      3 C3          1.6222    1.8212   -4.6977 C.3       1 <0>        -0.1489
      4 C4          1.2826    1.7581   -2.2232 C.3       1 <0>        -0.1111
      5 C5          0.3642    2.1945   -1.0799 C.3       1 <0>        -0.1496
      6 C6          0.8672    1.5959    0.2352 C.3       1 <0>         0.0829
      7 H1          0.9506    0.5139    0.1335 H         1 <0>         0.1025
      8 C7         -0.1187    1.9283    1.3569 C.3       1 <0>         0.1112
      9 C8         -1.4907    1.3404    1.0208 C.3       1 <0>        -0.1521
     10 C9          0.3843    1.3298    2.6721 C.3       1 <0>        -0.0912
     11 H2          0.4845    0.2482    2.5812 H         1 <0>         0.0827
     12 C10         1.7425    1.9653    3.0687 C.3       1 <0>        -0.1063
     13 C11         1.5389    2.5763    4.4865 C.3       1 <0>        -0.1494
     14 C12         0.3754    1.7534    5.0446 C.3       1 <0>         0.1514
     15 C13        -0.5643    1.6789    3.8085 C.3       1 <0>        -0.0381
     16 C14        -1.6682    0.7024    4.1457 C.3       1 <0>        -0.1091
     17 C15        -2.5410    1.3585    5.2270 C.3       1 <0>        -0.1203
     18 C16        -1.7391    1.7215    6.4761 C.3       1 <0>        -0.0504
     19 H3         -1.5000    0.7893    6.9879 H         1 <0>         0.0905
     20 C17        -0.4359    2.3924    6.1354 C.2       1 <0>        -0.0357
     21 C18         0.0183    3.4815    6.7449 C.2       1 <0>        -0.2309
     22 C19        -0.7649    4.1013    7.8199 C.2       1 <0>         0.3931
     23 O1         -0.6001    5.2591    8.1430 O.2       1 <0>        -0.4470
     24 C20        -1.7898    3.2219    8.5052 C.3       1 <0>        -0.1070
     25 H4         -2.3755    3.7849    9.0883 H         1 <0>         0.0987
     26 C21        -2.6123    2.5295    7.4201 C.3       1 <0>        -0.0393
     27 C22        -3.6506    1.6159    8.0777 C.3       1 <0>        -0.0967
     28 C23        -2.9332    0.5602    8.9217 C.3       1 <0>         0.0691
     29 H5         -2.2786   -0.0322    8.2826 H         1 <0>         0.0670
     30 C24        -2.1008    1.2495   10.0045 C.3       1 <0>         0.0786
     31 H6         -1.5881    0.4963   10.6028 H         1 <0>         0.0611
     32 C25        -1.0682    2.1690    9.3487 C.3       1 <0>        -0.1021
     33 O2         -2.9599    2.0218   10.8455 O.3       1 <0>        -0.5544
     34 O3         -3.8995   -0.2946    9.5363 O.3       1 <0>        -0.5624
     35 C26        -3.3586    3.5934    6.6127 C.3       1 <0>        -0.1560
     36 C27        -1.1826    3.0551    3.5539 C.3       1 <0>        -0.1467
     37 O4          0.8077    0.4487    5.4355 O.3       1 <0>        -0.5361
     38 O5         -0.2280    3.3469    1.4902 O.3       1 <0>        -0.5433
     39 O6          2.1487    2.1450    0.5491 O.3       1 <0>        -0.5490
     40 H7          0.5398    4.3075   -4.4201 H         1 <0>         0.0521
     41 H8          0.2979    4.2626   -2.6572 H         1 <0>         0.0560
     42 H9          1.9414    4.1592   -3.3329 H         1 <0>         0.0534
     43 H10        -0.2636    2.0786   -3.6885 H         1 <0>         0.0667
     44 H11         1.5377    0.7352   -4.7369 H         1 <0>         0.0533
     45 H12         1.2639    2.2476   -5.6346 H         1 <0>         0.0536
     46 H13         2.6654    2.0993   -4.5474 H         1 <0>         0.0540
     47 H14         2.2963    2.1085   -2.0288 H         1 <0>         0.0672
     48 H15         1.2816    0.6705   -2.2951 H         1 <0>         0.0586
     49 H16        -0.6495    1.8442   -1.2743 H         1 <0>         0.0737
     50 H17         0.3652    3.2821   -1.0080 H         1 <0>         0.0738
     51 H18        -1.4073    0.2584    0.9192 H         1 <0>         0.0693
     52 H19        -2.1931    1.5772    1.8200 H         1 <0>         0.0777
     53 H20        -1.8491    1.7669    0.0839 H         1 <0>         0.0671
     54 H21         2.5194    1.2013    3.0967 H         1 <0>         0.0703
     55 H22         2.0114    2.7474    2.3587 H         1 <0>         0.0761
     56 H23         1.2692    3.6302    4.4189 H         1 <0>         0.0809
     57 H24         2.4322    2.4460    5.0973 H         1 <0>         0.0702
     58 H25        -2.2673    0.4986    3.2583 H         1 <0>         0.0711
     59 H26        -1.2399   -0.2248    4.5265 H         1 <0>         0.0762
     60 H27        -3.3369    0.6679    5.5061 H         1 <0>         0.0686
     61 H28        -2.9872    2.2648    4.8175 H         1 <0>         0.0806
     62 H29         0.9641    3.9110    6.4492 H         1 <0>         0.1370
     63 H30        -4.3049    2.2093    8.7163 H         1 <0>         0.0838
     64 H31        -4.2429    1.1238    7.3062 H         1 <0>         0.0782
     65 H32        -0.4102    1.5799    8.7099 H         1 <0>         0.0837
     66 H33        -0.4789    2.6633   10.1210 H         1 <0>         0.0802
     67 H34        -3.6409    1.5027   11.2948 H         1 <0>         0.3822
     68 H35        -3.5153   -0.9903   10.0871 H         1 <0>         0.3791
     69 H36        -4.0715    3.1094    5.9452 H         1 <0>         0.0704
     70 H37        -3.8912    4.2584    7.2926 H         1 <0>         0.0619
     71 H38        -2.6447    4.1706    6.0250 H         1 <0>         0.0600
     72 H39        -1.8284    3.0067    2.6772 H         1 <0>         0.0816
     73 H40        -1.7698    3.3557    4.4216 H         1 <0>         0.0485
     74 H41        -0.3900    3.7833    3.3816 H         1 <0>         0.0650
     75 H42         1.3963    0.4428    6.2028 H         1 <0>         0.3757
     76 H43         0.6060    3.7873    1.7036 H         1 <0>         0.3653
     77 H44         2.1496    3.1063    0.6543 H         1 <0>         0.3679
@<TRIPOS>BOND
     1    1    2 1
     2    1   40 1
     3    1   41 1
     4    1   42 1
     5    2    3 1
     6    2    4 1
     7    2   43 1
     8    3   44 1
     9    3   45 1
    10    3   46 1
    11    4    5 1
    12    4   47 1
    13    4   48 1
    14    5    6 1
    15    5   49 1
    16    5   50 1
    17    6    7 1
    18    6    8 1
    19    6   39 1
    20    8    9 1
    21    8   10 1
    22    8   38 1
    23    9   51 1
    24    9   52 1
    25    9   53 1
    26   10   11 1
    27   10   15 1
    28   10   12 1
    29   12   13 1
    30   12   54 1
    31   12   55 1
    32   13   14 1
    33   13   56 1
    34   13   57 1
    35   14   20 1
    36   14   15 1
    37   14   37 1
    38   15   16 1
    39   15   36 1
    40   16   17 1
    41   16   58 1
    42   16   59 1
    43   17   18 1
    44   17   60 1
    45   17   61 1
    46   18   19 1
    47   18   26 1
    48   18   20 1
    49   20   21 2
    50   21   22 1
    51   21   62 1
    52   22   23 2
    53   22   24 1
    54   24   25 1
    55   24   32 1
    56   24   26 1
    57   26   27 1
    58   26   35 1
    59   27   28 1
    60   27   63 1
    61   27   64 1
    62   28   29 1
    63   28   30 1
    64   28   34 1
    65   30   31 1
    66   30   32 1
    67   30   33 1
    68   32   65 1
    69   32   66 1
    70   33   67 1
    71   34   68 1
    72   35   69 1
    73   35   70 1
    74   35   71 1
    75   36   72 1
    76   36   73 1
    77   36   74 1
    78   37   75 1
    79   38   76 1
    80   39   77 1
