@<TRIPOS>MOLECULE
ZINC01488192
   70    73     0     0     0
SMALL
USER_CHARGES
3-[2-(3,4-dimethoxyphenyl)ethoxy]-2-(4,6-dimethylpyrimidin-2-yl)oxy-3,3-diphenyl-propanoic acid
@<TRIPOS>ATOM
      1 C1          5.9167    8.3035   -2.8081 C.3       1 <0>        -0.1068
      2 C2          4.6760    8.4201   -1.9606 C.ar      1 <0>         0.2145
      3 C3          4.2298    9.6621   -1.5373 C.ar      1 <0>        -0.2877
      4 C4          3.0846    9.7238   -0.7590 C.ar      1 <0>         0.2096
      5 N1          2.4564    8.6024   -0.4459 N.ar      1 <0>        -0.5338
      6 C5          2.9096    7.4326   -0.8669 C.ar      1 <0>         0.5300
      7 N2          4.0023    7.3378   -1.6070 N.ar      1 <0>        -0.5686
      8 O1          2.2417    6.3042   -0.5272 O.3       1 <0>        -0.2558
      9 C6          2.7721    5.0670   -1.0069 C.3       1 <0>         0.0309
     10 H1          3.8543    5.1502   -1.1071 H         1 <0>         0.0947
     11 C7          2.1665    4.7477   -2.3494 C.2       1 <0>         0.4701
     12 O2          1.2974    5.4537   -2.8034 O.co2     1 <0>        -0.6218
     13 C8          2.4359    3.9499   -0.0170 C.3       1 <0>         0.2273
     14 C9          0.9417    3.7627    0.0406 C.ar      1 <0>        -0.0616
     15 C10         0.1404    4.7573    0.5692 C.ar      1 <0>        -0.0809
     16 C11        -1.2303    4.5855    0.6221 C.ar      1 <0>        -0.1289
     17 C12        -1.7990    3.4169    0.1512 C.ar      1 <0>        -0.1216
     18 C13        -0.9981    2.4245   -0.3823 C.ar      1 <0>        -0.1319
     19 C14         0.3725    2.5964   -0.4356 C.ar      1 <0>        -0.0777
     20 C15         2.9490    4.3197    1.3509 C.ar      1 <0>        -0.0988
     21 C16         2.5364    3.6055    2.4602 C.ar      1 <0>        -0.0879
     22 C17         3.0107    3.9416    3.7144 C.ar      1 <0>        -0.1251
     23 C18         3.8895    4.9986    3.8605 C.ar      1 <0>        -0.1182
     24 C19         4.2980    5.7162    2.7518 C.ar      1 <0>        -0.1228
     25 C20         3.8277    5.3767    1.4971 C.ar      1 <0>        -0.0997
     26 O3          3.0523    2.7335   -0.4441 O.3       1 <0>        -0.3288
     27 C21         4.4807    2.7640   -0.4142 C.3       1 <0>         0.0732
     28 C22         5.0313    1.4749   -1.0272 C.3       1 <0>        -0.0742
     29 C23         6.5376    1.5070   -0.9957 C.ar      1 <0>        -0.0671
     30 C24         7.2387    2.0351   -2.0639 C.ar      1 <0>        -0.1046
     31 C25         8.6204    2.0721   -2.0373 C.ar      1 <0>        -0.1693
     32 C26         9.3060    1.5688   -0.9434 C.ar      1 <0>         0.0901
     33 C27         8.6005    1.0321    0.1293 C.ar      1 <0>         0.0961
     34 C28         7.2155    1.0033    0.0987 C.ar      1 <0>        -0.1661
     35 O4          9.2689    0.5374    1.2054 O.3       1 <0>        -0.3093
     36 C29         8.4794    0.0026    2.2697 C.3       1 <0>         0.0264
     37 O5         10.6653    1.5998   -0.9179 O.3       1 <0>        -0.3100
     38 C30        11.3228    2.1652   -2.0537 C.3       1 <0>         0.0270
     39 C31         2.5613   11.0518   -0.2758 C.3       1 <0>        -0.1015
     40 H2          6.7881    8.1915   -2.1630 H         1 <0>         0.0829
     41 H3          5.8318    7.4330   -3.4586 H         1 <0>         0.0841
     42 H4          6.0274    9.2017   -3.4157 H         1 <0>         0.0795
     43 H5          4.7627   10.5617   -1.8075 H         1 <0>         0.1423
     44 H6          0.5851    5.6684    0.9413 H         1 <0>         0.1230
     45 H7         -1.8563    5.3624    1.0354 H         1 <0>         0.1163
     46 H8         -2.8695    3.2808    0.1965 H         1 <0>         0.1141
     47 H9         -1.4429    1.5132   -0.7540 H         1 <0>         0.1167
     48 H10         0.9985    1.8195   -0.8489 H         1 <0>         0.1313
     49 H11         1.8464    2.7824    2.3466 H         1 <0>         0.1239
     50 H12         2.6913    3.3812    4.5806 H         1 <0>         0.1204
     51 H13         4.2566    5.2640    4.8409 H         1 <0>         0.1182
     52 H14         4.9843    6.5422    2.8661 H         1 <0>         0.1160
     53 H15         4.1466    5.9376    0.6309 H         1 <0>         0.1149
     54 H16         4.8379    3.6200   -0.9868 H         1 <0>         0.0534
     55 H17         4.8208    2.8498    0.6178 H         1 <0>         0.0420
     56 H18         4.6741    0.6189   -0.4547 H         1 <0>         0.0754
     57 H19         4.6912    1.3891   -2.0592 H         1 <0>         0.0943
     58 H20         6.7056    2.4237   -2.9190 H         1 <0>         0.1340
     59 H21         9.1656    2.4892   -2.8711 H         1 <0>         0.1344
     60 H22         6.6656    0.5870    0.9298 H         1 <0>         0.1344
     61 H23         9.1348   -0.3570    3.0630 H         1 <0>         0.0975
     62 H24         7.8254    0.7807    2.6634 H         1 <0>         0.0546
     63 H25         7.8758   -0.8238    1.8945 H         1 <0>         0.0543
     64 H26        12.4019    2.1281   -1.9047 H         1 <0>         0.0970
     65 H27        11.0595    1.5973   -2.9460 H         1 <0>         0.0538
     66 H28        11.0085    3.2017   -2.1768 H         1 <0>         0.0540
     67 H29         3.0075   11.2885    0.6902 H         1 <0>         0.0830
     68 H30         2.8204   11.8282   -0.9957 H         1 <0>         0.0797
     69 H31         1.4775   10.9994   -0.1722 H         1 <0>         0.0823
     70 O6          2.5925    3.6789   -3.0407 O.co2     1 <0>        -0.7368
@<TRIPOS>BOND
     1    1    2 1
     2    1   40 1
     3    1   41 1
     4    1   42 1
     5    2    7 ar
     6    2    3 ar
     7    3    4 ar
     8    3   43 1
     9    4    5 ar
    10    4   39 1
    11    5    6 ar
    12    6    7 ar
    13    6    8 1
    14    8    9 1
    15    9   10 1
    16    9   11 1
    17    9   13 1
    18   11   12 2
    19   11   70 1
    20   13   14 1
    21   13   20 1
    22   13   26 1
    23   14   19 ar
    24   14   15 ar
    25   15   16 ar
    26   15   44 1
    27   16   17 ar
    28   16   45 1
    29   17   18 ar
    30   17   46 1
    31   18   19 ar
    32   18   47 1
    33   19   48 1
    34   20   25 ar
    35   20   21 ar
    36   21   22 ar
    37   21   49 1
    38   22   23 ar
    39   22   50 1
    40   23   24 ar
    41   23   51 1
    42   24   25 ar
    43   24   52 1
    44   25   53 1
    45   26   27 1
    46   27   28 1
    47   27   54 1
    48   27   55 1
    49   28   29 1
    50   28   56 1
    51   28   57 1
    52   29   34 ar
    53   29   30 ar
    54   30   31 ar
    55   30   58 1
    56   31   32 ar
    57   31   59 1
    58   32   33 ar
    59   32   37 1
    60   33   34 ar
    61   33   35 1
    62   34   60 1
    63   35   36 1
    64   36   61 1
    65   36   62 1
    66   36   63 1
    67   37   38 1
    68   38   64 1
    69   38   65 1
    70   38   66 1
    71   39   67 1
    72   39   68 1
    73   39   69 1
@<TRIPOS>MOLECULE
ZINC01538857
   67    70     0     0     0
SMALL
USER_CHARGES

@<TRIPOS>ATOM
      1 C1         -0.0187    1.5258    0.0104 C.3       1 <0>        -0.1382
      2 C2          0.0021   -0.0041    0.0020 C.3       1 <0>        -0.0336
      3 C3          0.7421   -0.5109    1.2415 C.3       1 <0>        -0.1381
      4 C4         -1.4333   -0.5336    0.0129 C.3       1 <0>        -0.1445
      5 C5          0.7074   -0.4901   -1.2379 C.ar      1 <0>        -0.0354
      6 C6          0.0361   -1.2843   -2.1485 C.ar      1 <0>        -0.1476
      7 C7          0.6831   -1.7301   -3.2859 C.ar      1 <0>        -0.0191
      8 C8          2.0014   -1.3813   -3.5127 C.ar      1 <0>        -0.6294
      9 C9          2.6724   -0.5863   -2.6025 C.ar      1 <0>        -0.0193
     10 C10         2.0241   -0.1370   -1.4673 C.ar      1 <0>        -0.1421
     11 S1          2.8264   -1.9505   -4.9618 S.o2      1 <0>         2.6326
     12 O1          4.2169   -1.9365   -4.6694 O.2       1 <0>        -1.0088
     13 O2          2.1477   -3.1268   -5.3801 O.2       1 <0>        -1.0083
     14 N1          2.5798   -0.8164   -6.1431 N.2       1 <0>        -1.0341
     15 C11         3.1213   -1.0025   -7.4082 C.ar      1 <0>         0.4864
     16 C12         2.9242   -0.0487   -8.4114 C.ar      1 <0>        -0.0858
     17 C13         3.4885   -0.2805   -9.6652 C.ar      1 <0>         0.3658
     18 N2          4.1886   -1.3910   -9.8627 N.ar      1 <0>        -0.5868
     19 C14         4.3546   -2.2729   -8.8879 C.ar      1 <0>         0.4316
     20 N3          3.8386   -2.0865   -7.6813 N.ar      1 <0>        -0.5766
     21 C15         5.1445   -3.5012   -9.1529 C.ar      1 <0>         0.3858
     22 N4          5.6700   -3.6854  -10.3558 N.ar      1 <0>        -0.4764
     23 C16         6.3788   -4.7680  -10.6251 C.ar      1 <0>         0.1378
     24 C17         6.5692   -5.7165   -9.6309 C.ar      1 <0>        -0.2285
     25 C18         6.0051   -5.4919   -8.3836 C.ar      1 <0>         0.1431
     26 N5          5.3120   -4.3852   -8.1794 N.ar      1 <0>        -0.4640
     27 O3          3.3238    0.6161  -10.6697 O.3       1 <0>        -0.2846
     28 C19         3.9337    0.3046  -11.9239 C.3       1 <0>         0.0698
     29 C20         3.6412    1.4238  -12.9252 C.3       1 <0>         0.0778
     30 O4          4.2702    2.6302  -12.4883 O.3       1 <0>        -0.5631
     31 O5          2.1999    1.0769   -8.1704 O.3       1 <0>        -0.1988
     32 C21         2.8591    2.1742   -7.7125 C.ar      1 <0>         0.1327
     33 C22         4.2295    2.1271   -7.5099 C.ar      1 <0>        -0.1513
     34 C23         4.8981    3.2439   -7.0447 C.ar      1 <0>        -0.1158
     35 C24         4.2029    4.4094   -6.7801 C.ar      1 <0>        -0.1338
     36 C25         2.8359    4.4632   -6.9795 C.ar      1 <0>        -0.1781
     37 C26         2.1602    3.3494   -7.4515 C.ar      1 <0>         0.0921
     38 O6          0.8166    3.4025   -7.6540 O.3       1 <0>        -0.3032
     39 C27         0.1654    4.6412   -7.3649 C.3       1 <0>         0.0300
     40 H1          1.0039    1.9031    0.0027 H         1 <0>         0.0583
     41 H2         -0.5459    1.8868   -0.8726 H         1 <0>         0.0582
     42 H3         -0.5289    1.8773    0.9072 H         1 <0>         0.0573
     43 H4          0.2319   -0.1594    2.1383 H         1 <0>         0.0576
     44 H5          0.7568   -1.6008    1.2356 H         1 <0>         0.0567
     45 H6          1.7647   -0.1336    1.2338 H         1 <0>         0.0582
     46 H7         -1.9605   -0.1726   -0.8702 H         1 <0>         0.0606
     47 H8         -1.4185   -1.6235    0.0069 H         1 <0>         0.0594
     48 H9         -1.9435   -0.1821    0.9097 H         1 <0>         0.0568
     49 H10        -0.9938   -1.5568   -1.9713 H         1 <0>         0.1293
     50 H11         0.1588   -2.3512   -3.9970 H         1 <0>         0.1351
     51 H12         3.7024   -0.3141   -2.7796 H         1 <0>         0.1344
     52 H13         2.5473    0.4872   -0.7580 H         1 <0>         0.1235
     53 H14         6.8041   -4.9126  -11.6072 H         1 <0>         0.1694
     54 H15         7.1437   -6.6105   -9.8238 H         1 <0>         0.1470
     55 H16         6.1342   -6.2107   -7.5879 H         1 <0>         0.1709
     56 H17         5.0112    0.2091  -11.7902 H         1 <0>         0.0737
     57 H18         3.5296   -0.6350  -12.3009 H         1 <0>         0.0814
     58 H19         4.0297    1.1456  -13.9049 H         1 <0>         0.0645
     59 H20         2.5644    1.5792  -12.9922 H         1 <0>         0.0548
     60 H21         4.1268    3.3840  -13.0768 H         1 <0>         0.3753
     61 H22         4.7748    1.2177   -7.7151 H         1 <0>         0.1227
     62 H23         5.9659    3.2059   -6.8872 H         1 <0>         0.1185
     63 H24         4.7289    5.2797   -6.4164 H         1 <0>         0.1181
     64 H25         2.2954    5.3748   -6.7716 H         1 <0>         0.1266
     65 H26         0.5872    5.4280   -7.9903 H         1 <0>         0.0486
     66 H27        -0.9012    4.5474   -7.5691 H         1 <0>         0.0938
     67 H28         0.3136    4.8932   -6.3148 H         1 <0>         0.0495
@<TRIPOS>BOND
     1    1    2 1
     2    1   40 1
     3    1   41 1
     4    1   42 1
     5    2    3 1
     6    2    4 1
     7    2    5 1
     8    3   43 1
     9    3   44 1
    10    3   45 1
    11    4   46 1
    12    4   47 1
    13    4   48 1
    14    5   10 ar
    15    5    6 ar
    16    6    7 ar
    17    6   49 1
    18    7    8 ar
    19    7   50 1
    20    8    9 ar
    21    8   11 1
    22    9   10 ar
    23    9   51 1
    24   10   52 1
    25   11   12 2
    26   11   13 2
    27   11   14 1
    28   14   15 1
    29   15   20 ar
    30   15   16 ar
    31   16   17 ar
    32   16   31 1
    33   17   18 ar
    34   17   27 1
    35   18   19 ar
    36   19   20 ar
    37   19   21 1
    38   21   26 ar
    39   21   22 ar
    40   22   23 ar
    41   23   24 ar
    42   23   53 1
    43   24   25 ar
    44   24   54 1
    45   25   26 ar
    46   25   55 1
    47   27   28 1
    48   28   29 1
    49   28   56 1
    50   28   57 1
    51   29   30 1
    52   29   58 1
    53   29   59 1
    54   30   60 1
    55   31   32 1
    56   32   37 ar
    57   32   33 ar
    58   33   34 ar
    59   33   61 1
    60   34   35 ar
    61   34   62 1
    62   35   36 ar
    63   35   63 1
    64   36   37 ar
    65   36   64 1
    66   37   38 1
    67   38   39 1
    68   39   65 1
    69   39   66 1
    70   39   67 1
@<TRIPOS>MOLECULE
ZINC03826221
   51    53     0     0     0
SMALL
USER_CHARGES
2-(4,6-dimethoxypyrimidin-2-yl)oxy-3-methoxy-3,3-diphenyl-propanoic acid
@<TRIPOS>ATOM
      1 C1         -1.9248    2.7869   -2.7597 C.3       1 <0>         0.0354
      2 O1         -2.9464    1.9295   -2.2467 O.3       1 <0>        -0.2976
      3 C2         -2.6284    1.1688   -1.1709 C.ar      1 <0>         0.4219
      4 C3         -3.5681    0.3091   -0.6137 C.ar      1 <0>        -0.3163
      5 C4         -3.1971   -0.4513    0.4894 C.ar      1 <0>         0.4179
      6 N1         -1.9643   -0.3323    0.9720 N.ar      1 <0>        -0.5987
      7 C5         -1.0961    0.4964    0.4158 C.ar      1 <0>         0.5899
      8 N2         -1.4156    1.2389   -0.6313 N.ar      1 <0>        -0.6303
      9 O2          0.1511    0.5913    0.9355 O.3       1 <0>        -0.2545
     10 C6          1.0517    1.5001    0.2992 C.3       1 <0>         0.0317
     11 H1          0.4880    2.3256   -0.1354 H         1 <0>         0.0992
     12 C7          1.8072    0.7802   -0.7880 C.2       1 <0>         0.4711
     13 O3          1.6892   -0.4155   -0.9156 O.co2     1 <0>        -0.6219
     14 C8          2.0402    2.0455    1.3319 C.3       1 <0>         0.2223
     15 C9          2.8840    3.1223    0.6998 C.ar      1 <0>        -0.0319
     16 C10         2.2802    4.2227    0.1206 C.ar      1 <0>        -0.0953
     17 C11         3.0544    5.2128   -0.4550 C.ar      1 <0>        -0.1228
     18 C12         4.4320    5.0974   -0.4605 C.ar      1 <0>        -0.1224
     19 C13         5.0355    3.9945    0.1141 C.ar      1 <0>        -0.1237
     20 C14         4.2615    3.0069    0.6942 C.ar      1 <0>        -0.0715
     21 C15         1.2806    2.6225    2.4985 C.ar      1 <0>        -0.0902
     22 C16         0.0953    3.3008    2.2841 C.ar      1 <0>        -0.1062
     23 C17        -0.6039    3.8259    3.3547 C.ar      1 <0>        -0.1196
     24 C18        -0.1126    3.6819    4.6387 C.ar      1 <0>        -0.1232
     25 C19         1.0754    3.0081    4.8527 C.ar      1 <0>        -0.1219
     26 C20         1.7720    2.4785    3.7826 C.ar      1 <0>        -0.0977
     27 O4          2.8836    0.9866    1.7895 O.3       1 <0>        -0.3614
     28 C21         2.1744   -0.1224    2.3456 C.3       1 <0>         0.0228
     29 O5         -4.0806   -1.3030    1.0649 O.3       1 <0>        -0.2960
     30 C22        -3.6215   -2.0486    2.1941 C.3       1 <0>         0.0371
     31 H2         -2.3100    3.3380   -3.6176 H         1 <0>         0.0996
     32 H3         -1.6171    3.4893   -1.9851 H         1 <0>         0.0611
     33 H4         -1.0682    2.1875   -3.0678 H         1 <0>         0.0701
     34 H5         -4.5626    0.2335   -1.0281 H         1 <0>         0.1552
     35 H6          1.2038    4.3107    0.1210 H         1 <0>         0.1096
     36 H7          2.5829    6.0743   -0.9042 H         1 <0>         0.1157
     37 H8          5.0366    5.8688   -0.9141 H         1 <0>         0.1141
     38 H9          6.1117    3.9041    0.1094 H         1 <0>         0.1162
     39 H10         4.7330    2.1450    1.1428 H         1 <0>         0.1257
     40 H11        -0.2863    3.4172    1.2805 H         1 <0>         0.1153
     41 H12        -1.5319    4.3526    3.1876 H         1 <0>         0.1179
     42 H13        -0.6566    4.0960    5.4748 H         1 <0>         0.1179
     43 H14         1.4594    2.8959    5.8558 H         1 <0>         0.1202
     44 H15         2.7003    1.9524    3.9496 H         1 <0>         0.1284
     45 H16         2.8812   -0.8088    2.8119 H         1 <0>         0.0766
     46 H17         1.4684    0.2365    3.0945 H         1 <0>         0.0431
     47 H18         1.6326   -0.6408    1.5545 H         1 <0>         0.0751
     48 H19        -2.7700   -2.6632    1.9020 H         1 <0>         0.0649
     49 H20        -3.3195   -1.3616    2.9847 H         1 <0>         0.0627
     50 H21        -4.4247   -2.6897    2.5572 H         1 <0>         0.0977
     51 O6          2.6068    1.4681   -1.6181 O.co2     1 <0>        -0.7333
@<TRIPOS>BOND
     1    1    2 1
     2    1   31 1
     3    1   32 1
     4    1   33 1
     5    2    3 1
     6    3    8 ar
     7    3    4 ar
     8    4    5 ar
     9    4   34 1
    10    5    6 ar
    11    5   29 1
    12    6    7 ar
    13    7    8 ar
    14    7    9 1
    15    9   10 1
    16   10   11 1
    17   10   12 1
    18   10   14 1
    19   12   13 2
    20   12   51 1
    21   14   15 1
    22   14   21 1
    23   14   27 1
    24   15   20 ar
    25   15   16 ar
    26   16   17 ar
    27   16   35 1
    28   17   18 ar
    29   17   36 1
    30   18   19 ar
    31   18   37 1
    32   19   20 ar
    33   19   38 1
    34   20   39 1
    35   21   26 ar
    36   21   22 ar
    37   22   23 ar
    38   22   40 1
    39   23   24 ar
    40   23   41 1
    41   24   25 ar
    42   24   42 1
    43   25   26 ar
    44   25   43 1
    45   26   44 1
    46   27   28 1
    47   28   45 1
    48   28   46 1
    49   28   47 1
    50   29   30 1
    51   30   48 1
    52   30   49 1
    53   30   50 1
@<TRIPOS>MOLECULE
ZINC03945732
   62    65     0     0     0
SMALL
USER_CHARGES
2-benzo[1,3]dioxol-5-yl-4-(4-methoxyphenyl)-4-oxo-3-[(3,4,5-trimethoxyphenyl)methyl]but-2-enoic acid
@<TRIPOS>ATOM
      1 C1          6.3268    1.0855   -2.8550 C.3       1 <0>         0.0262
      2 O1          6.2362    0.1186   -1.8066 O.3       1 <0>        -0.3166
      3 C2          5.0130   -0.0764   -1.2525 C.ar      1 <0>         0.1430
      4 C3          4.8559   -1.0031   -0.2276 C.ar      1 <0>        -0.1632
      5 C4          3.6168   -1.2040    0.3373 C.ar      1 <0>        -0.0223
      6 C5          2.5152   -0.4743   -0.1205 C.ar      1 <0>        -0.1728
      7 C6          2.6767    0.4532   -1.1547 C.ar      1 <0>        -0.0390
      8 C7          3.9202    0.6514   -1.7107 C.ar      1 <0>        -0.2209
      9 C8          1.1847   -0.6867    0.4818 C.2       1 <0>         0.4510
     10 O2          1.0591   -1.4397    1.4298 O.2       1 <0>        -0.4089
     11 C9          0.0144    0.0093   -0.0617 C.2       1 <0>        -0.1567
     12 C10        -0.9487   -0.6912   -0.7199 C.2       1 <0>        -0.0545
     13 C11        -2.0709    0.0209   -1.3608 C.ar      1 <0>         0.0057
     14 C12        -1.8320    0.8823   -2.4364 C.ar      1 <0>        -0.1077
     15 C13        -2.8811    1.5457   -3.0334 C.ar      1 <0>        -0.0971
     16 C14        -4.1780    1.3629   -2.5708 C.ar      1 <0>         0.0169
     17 C15        -4.4235    0.5044   -1.4975 C.ar      1 <0>         0.0304
     18 C16        -3.3768   -0.1681   -0.8982 C.ar      1 <0>        -0.0689
     19 O3         -5.7644    0.5011   -1.2407 O.3       1 <0>        -0.3094
     20 C17        -6.3827    1.0441   -2.4222 C.3       1 <0>         0.2133
     21 O4         -5.3649    1.8944   -2.9822 O.3       1 <0>        -0.3123
     22 C18        -0.8706   -2.1687   -0.7930 C.2       1 <0>         0.4814
     23 O5          0.0068   -2.7604   -0.1981 O.co2     1 <0>        -0.5993
     24 C19        -0.1219    1.5004    0.1085 C.3       1 <0>        -0.0452
     25 C20        -0.7272    1.7989    1.4560 C.ar      1 <0>         0.0067
     26 C21        -2.1014    1.8230    1.6042 C.ar      1 <0>        -0.2216
     27 C22        -2.6623    2.0917    2.8436 C.ar      1 <0>         0.1527
     28 C23        -1.8410    2.3476    3.9351 C.ar      1 <0>         0.0209
     29 C24        -0.4599    2.3279    3.7806 C.ar      1 <0>         0.1507
     30 C25         0.0931    2.0533    2.5390 C.ar      1 <0>        -0.2242
     31 O6          0.3480    2.5781    4.8456 O.3       1 <0>        -0.3043
     32 C26         1.7575    2.5417    4.6133 C.3       1 <0>         0.0246
     33 O7         -2.3876    2.6163    5.1522 O.3       1 <0>        -0.3112
     34 C27        -2.6619    3.9863    5.4520 C.3       1 <0>         0.0358
     35 O8         -4.0142    2.1093    2.9897 O.3       1 <0>        -0.3039
     36 C28        -4.7963    1.8373    1.8251 C.3       1 <0>         0.0277
     37 H1          7.3563    1.1428   -3.2084 H         1 <0>         0.0983
     38 H2          5.6759    0.7909   -3.6782 H         1 <0>         0.0571
     39 H3          6.0173    2.0602   -2.4780 H         1 <0>         0.0559
     40 H4          5.7072   -1.5663    0.1253 H         1 <0>         0.1337
     41 H5          3.4957   -1.9240    1.1332 H         1 <0>         0.1411
     42 H6          1.8278    1.0159   -1.5140 H         1 <0>         0.1324
     43 H7          4.0467    1.3704   -2.5066 H         1 <0>         0.1308
     44 H8         -0.8250    1.0277   -2.7985 H         1 <0>         0.1376
     45 H9         -2.6947    2.2105   -3.8639 H         1 <0>         0.1339
     46 H10        -3.5661   -0.8356   -0.0706 H         1 <0>         0.1341
     47 H11        -6.6420    0.2472   -3.1193 H         1 <0>         0.0807
     48 H12        -7.2658    1.6263   -2.1590 H         1 <0>         0.1268
     49 H13         0.8617    1.9652    0.0411 H         1 <0>         0.0857
     50 H14        -0.7663    1.8982   -0.6754 H         1 <0>         0.0949
     51 H15        -2.7389    1.6284    0.7545 H         1 <0>         0.1364
     52 H16         1.1662    2.0378    2.4181 H         1 <0>         0.1332
     53 H17         2.2846    2.7580    5.5426 H         1 <0>         0.0997
     54 H18         2.0415    1.5516    4.2565 H         1 <0>         0.0601
     55 H19         2.0216    3.2876    3.8637 H         1 <0>         0.0550
     56 H20        -3.3652    4.3845    4.7207 H         1 <0>         0.0419
     57 H21        -3.0944    4.0603    6.4498 H         1 <0>         0.0881
     58 H22        -1.7353    4.5590    5.4143 H         1 <0>         0.0414
     59 H23        -5.8552    1.8828    2.0796 H         1 <0>         0.1008
     60 H24        -4.5750    2.5789    1.0575 H         1 <0>         0.0537
     61 H25        -4.5552    0.8428    1.4496 H         1 <0>         0.0607
     62 O9         -1.7731   -2.8556   -1.5195 O.co2     1 <0>        -0.7407
@<TRIPOS>BOND
     1    1    2 1
     2    1   37 1
     3    1   38 1
     4    1   39 1
     5    2    3 1
     6    3    8 ar
     7    3    4 ar
     8    4    5 ar
     9    4   40 1
    10    5    6 ar
    11    5   41 1
    12    6    7 ar
    13    6    9 1
    14    7    8 ar
    15    7   42 1
    16    8   43 1
    17    9   10 2
    18    9   11 1
    19   11   12 2
    20   11   24 1
    21   12   13 1
    22   12   22 1
    23   13   18 ar
    24   13   14 ar
    25   14   15 ar
    26   14   44 1
    27   15   16 ar
    28   15   45 1
    29   16   21 1
    30   16   17 ar
    31   17   18 ar
    32   17   19 1
    33   18   46 1
    34   19   20 1
    35   20   21 1
    36   20   47 1
    37   20   48 1
    38   22   23 2
    39   22   62 1
    40   24   25 1
    41   24   49 1
    42   24   50 1
    43   25   30 ar
    44   25   26 ar
    45   26   27 ar
    46   26   51 1
    47   27   28 ar
    48   27   35 1
    49   28   29 ar
    50   28   33 1
    51   29   30 ar
    52   29   31 1
    53   30   52 1
    54   31   32 1
    55   32   53 1
    56   32   54 1
    57   32   55 1
    58   33   34 1
    59   34   56 1
    60   34   57 1
    61   34   58 1
    62   35   36 1
    63   36   59 1
    64   36   60 1
    65   36   61 1
@<TRIPOS>MOLECULE
ZINC01481831
   43    46     0     0     0
SMALL
USER_CHARGES

@<TRIPOS>ATOM
      1 C1         -0.0184    1.5028    0.0103 C.3       1 <0>        -0.1164
      2 C2          0.0021   -0.0041    0.0020 C.ar      1 <0>        -0.0500
      3 C3          0.0057   -0.6874   -1.2002 C.ar      1 <0>        -0.0976
      4 C4          0.0240   -2.0723   -1.2102 C.ar      1 <0>         0.0353
      5 C5          0.0391   -2.7738   -0.0068 C.ar      1 <0>         0.0233
      6 C6          0.0352   -2.0828    1.1936 C.ar      1 <0>        -0.0805
      7 C7          0.0229   -0.7000    1.1959 C.ar      1 <0>        -0.0640
      8 C8          0.0251    0.0497    2.5032 C.3       1 <0>        -0.1183
      9 C9         -1.3914    0.3878    2.8908 C.2       1 <0>         0.3943
     10 O1         -2.3134    0.0524    2.1749 O.2       1 <0>        -0.3564
     11 C10        -1.6468    1.0945    4.0866 C.2       1 <0>        -0.1687
     12 C11        -2.8657    1.4965    4.6252 C.2       1 <0>        -0.5777
     13 C12        -2.7948    2.1751    5.8150 C.2       1 <0>        -0.1103
     14 C13        -1.5785    2.4042    6.3738 C.2       1 <0>        -0.2437
     15 S1         -0.4927    1.6978    5.3041 S.3       1 <0>         0.2409
     16 S2         -4.4006    1.1560    3.8296 S.o2      1 <0>         2.6215
     17 O2         -4.3857   -0.2243    3.4921 O.2       1 <0>        -0.9866
     18 O3         -5.4152    1.7308    4.6416 O.2       1 <0>        -1.0171
     19 N1         -4.4074    1.9926    2.4005 N.2       1 <0>        -0.9949
     20 C14        -5.5014    1.9124    1.5572 C.2       1 <0>         0.4162
     21 C15        -5.6365    2.5391    0.3584 C.2       1 <0>        -0.3013
     22 C16        -6.8869    2.1949   -0.1725 C.2       1 <0>         0.1341
     23 N2         -7.4818    1.3944    0.6697 N.2       1 <0>        -0.3722
     24 O4         -6.6180    1.1963    1.7741 O.3       1 <0>        -0.1594
     25 C17        -7.4480    2.6675   -1.4888 C.3       1 <0>        -0.0757
     26 Cl1        -4.4656    3.5837   -0.3843 Cl        1 <0>        -0.0683
     27 O5          0.0554   -4.1108   -0.2815 O.3       1 <0>        -0.3110
     28 C18        -0.3620   -4.2262   -1.6547 C.3       1 <0>         0.2134
     29 O6          0.0308   -2.9700   -2.2385 O.3       1 <0>        -0.3112
     30 H1          1.0042    1.8801    0.0026 H         1 <0>         0.0736
     31 H2         -0.5455    1.8639   -0.8728 H         1 <0>         0.0751
     32 H3         -0.5286    1.8543    0.9071 H         1 <0>         0.0739
     33 H4         -0.0061   -0.1410   -2.1316 H         1 <0>         0.1358
     34 H5          0.0470   -2.6240    2.1280 H         1 <0>         0.1343
     35 H6          0.4752   -0.5715    3.2775 H         1 <0>         0.1087
     36 H7          0.6011    0.9686    2.3941 H         1 <0>         0.1140
     37 H8         -3.6944    2.5230    6.3009 H         1 <0>         0.1502
     38 H9         -1.3595    2.9190    7.2976 H         1 <0>         0.1928
     39 H10        -7.1605    1.9718   -2.2771 H         1 <0>         0.0795
     40 H11        -8.5351    2.7146   -1.4244 H         1 <0>         0.0721
     41 H12        -7.0544    3.6580   -1.7170 H         1 <0>         0.0798
     42 H13         0.1530   -5.0533   -2.1433 H         1 <0>         0.1288
     43 H14        -1.4425   -4.3562   -1.7169 H         1 <0>         0.0836
@<TRIPOS>BOND
     1    1    2 1
     2    1   30 1
     3    1   31 1
     4    1   32 1
     5    2    7 ar
     6    2    3 ar
     7    3    4 ar
     8    3   33 1
     9    4   29 1
    10    4    5 ar
    11    5    6 ar
    12    5   27 1
    13    6    7 ar
    14    6   34 1
    15    7    8 1
    16    8    9 1
    17    8   35 1
    18    8   36 1
    19    9   10 2
    20    9   11 1
    21   11   15 1
    22   11   12 2
    23   12   13 1
    24   12   16 1
    25   13   14 2
    26   13   37 1
    27   14   15 1
    28   14   38 1
    29   16   17 2
    30   16   18 2
    31   16   19 1
    32   19   20 1
    33   20   24 1
    34   20   21 2
    35   21   22 1
    36   21   26 1
    37   22   23 2
    38   22   25 1
    39   23   24 1
    40   25   39 1
    41   25   40 1
    42   25   41 1
    43   27   28 1
    44   28   29 1
    45   28   42 1
    46   28   43 1
@<TRIPOS>MOLECULE
ZINC00538627
   49    51     0     0     0
SMALL
USER_CHARGES

@<TRIPOS>ATOM
      1 C1          2.3194   -0.1482   -0.3525 C.3       1 <0>        -0.1051
      2 C2          2.7150   -0.3159    1.0920 C.ar      1 <0>         0.2128
      3 C3          3.9904    0.0246    1.5141 C.ar      1 <0>        -0.2904
      4 C4          4.3122   -0.1451    2.8515 C.ar      1 <0>         0.2085
      5 N1          3.3978   -0.6238    3.6791 N.ar      1 <0>        -0.5368
      6 C5          2.1890   -0.9390    3.2429 C.ar      1 <0>         0.5302
      7 N2          1.8474   -0.7847    1.9739 N.ar      1 <0>        -0.5665
      8 O1          1.2773   -1.4271    4.1179 O.3       1 <0>        -0.2558
      9 C6         -0.0130   -1.7520    3.5966 C.3       1 <0>         0.0072
     10 H1          0.0822   -2.0556    2.5541 H         1 <0>         0.0927
     11 C7         -0.9103   -0.5447    3.6883 C.2       1 <0>         0.5038
     12 O2         -2.0283   -0.5778    3.2030 O.co2     1 <0>        -0.6691
     13 O3         -0.5182    0.4652    4.2478 O.co2     1 <0>        -0.6792
     14 C8         -0.6171   -2.8992    4.4088 C.3       1 <0>         0.2203
     15 C9         -1.9058   -3.3448    3.7672 C.ar      1 <0>        -0.0312
     16 C10        -1.9186   -3.7364    2.4415 C.ar      1 <0>        -0.0971
     17 C11        -3.1006   -4.1452    1.8529 C.ar      1 <0>        -0.1223
     18 C12        -4.2699   -4.1627    2.5901 C.ar      1 <0>        -0.1244
     19 C13        -4.2570   -3.7720    3.9160 C.ar      1 <0>        -0.1238
     20 C14        -3.0741   -3.3674    4.5058 C.ar      1 <0>        -0.0768
     21 C15         0.3513   -4.0533    4.4452 C.ar      1 <0>        -0.0881
     22 C16         1.0965   -4.3659    3.3236 C.ar      1 <0>        -0.1057
     23 C17         1.9848   -5.4245    3.3569 C.ar      1 <0>        -0.1207
     24 C18         2.1282   -6.1703    4.5119 C.ar      1 <0>        -0.1246
     25 C19         1.3837   -5.8572    5.6338 C.ar      1 <0>        -0.1226
     26 C20         0.4985   -4.7959    5.6018 C.ar      1 <0>        -0.0988
     27 O4         -0.8776   -2.4539    5.7415 O.3       1 <0>        -0.3631
     28 C21         0.2666   -1.9188    6.4096 C.3       1 <0>         0.0233
     29 C22         5.6867    0.2108    3.3565 C.3       1 <0>        -0.1008
     30 H2          1.9076    0.8498   -0.5029 H         1 <0>         0.0852
     31 H3          3.1960   -0.2790   -0.9868 H         1 <0>         0.0778
     32 H4          1.5683   -0.8941   -0.6124 H         1 <0>         0.0805
     33 H5          4.7175    0.4131    0.8164 H         1 <0>         0.1408
     34 H6         -1.0050   -3.7227    1.8656 H         1 <0>         0.1109
     35 H7         -3.1107   -4.4504    0.8170 H         1 <0>         0.1162
     36 H8         -5.1936   -4.4814    2.1300 H         1 <0>         0.1144
     37 H9         -5.1705   -3.7854    4.4918 H         1 <0>         0.1165
     38 H10        -3.0632   -3.0656    5.5427 H         1 <0>         0.1262
     39 H11         0.9844   -3.7832    2.4212 H         1 <0>         0.1156
     40 H12         2.5665   -5.6691    2.4805 H         1 <0>         0.1171
     41 H13         2.8217   -6.9979    4.5378 H         1 <0>         0.1173
     42 H14         1.4955   -6.4401    6.5361 H         1 <0>         0.1197
     43 H15        -0.0804   -4.5490    6.4794 H         1 <0>         0.1280
     44 H16         1.0930   -2.6259    6.3378 H         1 <0>         0.0413
     45 H17         0.5529   -0.9767    5.9419 H         1 <0>         0.0790
     46 H18         0.0268   -1.7455    7.4586 H         1 <0>         0.0746
     47 H19         5.6976    1.2527    3.6767 H         1 <0>         0.0839
     48 H20         5.9414   -0.4311    4.1998 H         1 <0>         0.0805
     49 H21         6.4152    0.0684    2.5583 H         1 <0>         0.0783
@<TRIPOS>BOND
     1    1    2 1
     2    1   30 1
     3    1   31 1
     4    1   32 1
     5    2    7 ar
     6    2    3 ar
     7    3    4 ar
     8    3   33 1
     9    4    5 ar
    10    4   29 1
    11    5    6 ar
    12    6    7 ar
    13    6    8 1
    14    8    9 1
    15    9   10 1
    16    9   11 1
    17    9   14 1
    18   11   12 2
    19   11   13 1
    20   14   15 1
    21   14   21 1
    22   14   27 1
    23   15   20 ar
    24   15   16 ar
    25   16   17 ar
    26   16   34 1
    27   17   18 ar
    28   17   35 1
    29   18   19 ar
    30   18   36 1
    31   19   20 ar
    32   19   37 1
    33   20   38 1
    34   21   26 ar
    35   21   22 ar
    36   22   23 ar
    37   22   39 1
    38   23   24 ar
    39   23   40 1
    40   24   25 ar
    41   24   41 1
    42   25   26 ar
    43   25   42 1
    44   26   43 1
    45   27   28 1
    46   28   44 1
    47   28   45 1
    48   28   46 1
    49   29   47 1
    50   29   48 1
    51   29   49 1
@<TRIPOS>MOLECULE
ZINC03644203
   49    51     0     0     0
SMALL
USER_CHARGES

@<TRIPOS>ATOM
      1 C1          0.7310    2.1708    0.7341 C.3       1 <0>        -0.1062
      2 C2          0.8627    0.6948    0.4599 C.ar      1 <0>         0.2134
      3 C3          1.1946    0.2436   -0.8078 C.ar      1 <0>        -0.2905
      4 C4          1.3057   -1.1221   -1.0161 C.ar      1 <0>         0.2089
      5 N1          1.0930   -1.9482   -0.0049 N.ar      1 <0>        -0.5366
      6 C5          0.7776   -1.4838    1.1934 C.ar      1 <0>         0.5308
      7 N2          0.6683   -0.1861    1.4276 N.ar      1 <0>        -0.5683
      8 O1          0.5661   -2.3582    2.2062 O.3       1 <0>        -0.2552
      9 C6          0.2283   -1.8059    3.4801 C.3       1 <0>         0.0025
     10 H1          0.6896   -0.8238    3.5842 H         1 <0>         0.0947
     11 C7         -1.2688   -1.6717    3.5884 C.2       1 <0>         0.5043
     12 O2         -1.9866   -2.1303    2.7161 O.co2     1 <0>        -0.6785
     13 O3         -1.7622   -1.1045    4.5483 O.co2     1 <0>        -0.6710
     14 C8          0.7390   -2.7293    4.5879 C.3       1 <0>         0.2216
     15 C9          2.2082   -2.9951    4.3829 C.ar      1 <0>        -0.0907
     16 C10         3.0066   -2.0387    3.7840 C.ar      1 <0>        -0.1017
     17 C11         4.3542   -2.2825    3.5959 C.ar      1 <0>        -0.1208
     18 C12         4.9035   -3.4825    4.0071 C.ar      1 <0>        -0.1232
     19 C13         4.1052   -4.4386    4.6068 C.ar      1 <0>        -0.1236
     20 C14         2.7585   -4.1931    4.7988 C.ar      1 <0>        -0.0987
     21 C15         0.5298   -2.0707    5.9271 C.ar      1 <0>        -0.0448
     22 C16         0.5517   -0.6924    6.0305 C.ar      1 <0>        -0.0617
     23 C17         0.3598   -0.0882    7.2589 C.ar      1 <0>        -0.1239
     24 C18         0.1455   -0.8624    8.3839 C.ar      1 <0>        -0.1212
     25 C19         0.1227   -2.2407    8.2805 C.ar      1 <0>        -0.1335
     26 C20         0.3104   -2.8447    7.0513 C.ar      1 <0>        -0.0890
     27 O4          0.0213   -3.9644    4.5472 O.3       1 <0>        -0.3581
     28 C21         0.2461   -4.7284    3.3607 C.3       1 <0>         0.0238
     29 C22         1.6640   -1.6595   -2.3777 C.3       1 <0>        -0.1010
     30 H2          1.6973    2.5709    1.0410 H         1 <0>         0.0823
     31 H3          0.3975    2.6800   -0.1702 H         1 <0>         0.0788
     32 H4          0.0029    2.3290    1.5297 H         1 <0>         0.0836
     33 H5          1.3625    0.9406   -1.6155 H         1 <0>         0.1409
     34 H6          2.5774   -1.1011    3.4628 H         1 <0>         0.1151
     35 H7          4.9778   -1.5355    3.1274 H         1 <0>         0.1168
     36 H8          5.9562   -3.6732    3.8595 H         1 <0>         0.1177
     37 H9          4.5343   -5.3763    4.9277 H         1 <0>         0.1202
     38 H10         2.1356   -4.9385    5.2706 H         1 <0>         0.1266
     39 H11         0.7191   -0.0876    5.1515 H         1 <0>         0.1162
     40 H12         0.3776    0.9886    7.3397 H         1 <0>         0.1170
     41 H13        -0.0037   -0.3904    9.3438 H         1 <0>         0.1143
     42 H14        -0.0444   -2.8455    9.1595 H         1 <0>         0.1159
     43 H15         0.2888   -3.9214    6.9698 H         1 <0>         0.1214
     44 H16        -0.2104   -4.2217    2.5104 H         1 <0>         0.0708
     45 H17         1.3181   -4.8290    3.1909 H         1 <0>         0.0424
     46 H18        -0.1980   -5.7171    3.4756 H         1 <0>         0.0753
     47 H19         2.7474   -1.7452   -2.4609 H         1 <0>         0.0822
     48 H20         1.2104   -2.6415   -2.5116 H         1 <0>         0.0816
     49 H21         1.2933   -0.9803   -3.1454 H         1 <0>         0.0791
@<TRIPOS>BOND
     1    1    2 1
     2    1   30 1
     3    1   31 1
     4    1   32 1
     5    2    7 ar
     6    2    3 ar
     7    3    4 ar
     8    3   33 1
     9    4    5 ar
    10    4   29 1
    11    5    6 ar
    12    6    7 ar
    13    6    8 1
    14    8    9 1
    15    9   10 1
    16    9   11 1
    17    9   14 1
    18   11   12 2
    19   11   13 1
    20   14   15 1
    21   14   21 1
    22   14   27 1
    23   15   20 ar
    24   15   16 ar
    25   16   17 ar
    26   16   34 1
    27   17   18 ar
    28   17   35 1
    29   18   19 ar
    30   18   36 1
    31   19   20 ar
    32   19   37 1
    33   20   38 1
    34   21   26 ar
    35   21   22 ar
    36   22   23 ar
    37   22   39 1
    38   23   24 ar
    39   23   40 1
    40   24   25 ar
    41   24   41 1
    42   25   26 ar
    43   25   42 1
    44   26   43 1
    45   27   28 1
    46   28   44 1
    47   28   45 1
    48   28   46 1
    49   29   47 1
    50   29   48 1
    51   29   49 1
@<TRIPOS>MOLECULE
ZINC09435020
   46    48     0     0     0
SMALL
USER_CHARGES

@<TRIPOS>ATOM
      1 C1          5.6723   -2.5593    1.1553 C.3       1 <0>        -0.1018
      2 C2          4.1709   -2.4439    1.2145 C.ar      1 <0>         0.2071
      3 C3          3.5256   -1.3714    0.6190 C.ar      1 <0>        -0.2916
      4 C4          2.1437   -1.3043    0.6973 C.ar      1 <0>         0.1880
      5 N1          1.4866   -2.2599    1.3342 N.ar      1 <0>        -0.5672
      6 C5          2.1337   -3.2702    1.8918 C.ar      1 <0>         0.5265
      7 N2          3.4521   -3.3677    1.8308 N.ar      1 <0>        -0.5332
      8 O1          1.4293   -4.2310    2.5364 O.3       1 <0>        -0.2554
      9 C6          0.0084   -4.0820    2.5689 C.3       1 <0>         0.0066
     10 H1         -0.2463   -3.0224    2.5502 H         1 <0>         0.0932
     11 C7         -0.5959   -4.7653    1.3693 C.2       1 <0>         0.5034
     12 O2          0.1146   -5.3940    0.6036 O.co2     1 <0>        -0.6798
     13 O3         -1.7954   -4.6893    1.1645 O.co2     1 <0>        -0.6693
     14 C8         -0.5417   -4.7163    3.8480 C.3       1 <0>         0.2208
     15 C9          0.1379   -4.1032    5.0452 C.ar      1 <0>        -0.0909
     16 C10         0.5245   -2.7763    5.0163 C.ar      1 <0>        -0.1048
     17 C11         1.1479   -2.2139    6.1144 C.ar      1 <0>        -0.1206
     18 C12         1.3843   -2.9783    7.2417 C.ar      1 <0>        -0.1235
     19 C13         0.9969   -4.3049    7.2710 C.ar      1 <0>        -0.1232
     20 C14         0.3696   -4.8661    6.1744 C.ar      1 <0>        -0.0989
     21 C15        -2.0261   -4.4703    3.9324 C.ar      1 <0>        -0.0306
     22 C16        -2.5227   -3.1870    3.8006 C.ar      1 <0>        -0.0901
     23 C17        -3.8843   -2.9614    3.8780 C.ar      1 <0>        -0.1217
     24 C18        -4.7494   -4.0192    4.0867 C.ar      1 <0>        -0.1240
     25 C19        -4.2529   -5.3026    4.2176 C.ar      1 <0>        -0.1252
     26 C20        -2.8916   -5.5288    4.1359 C.ar      1 <0>        -0.0798
     27 O4         -0.2924   -6.1232    3.8274 O.3       1 <0>        -0.3601
     28 C21         1.0943   -6.4680    3.8426 C.3       1 <0>         0.0225
     29 H2          5.9591   -3.1148    0.2624 H         1 <0>         0.0842
     30 H3          6.1122   -1.5627    1.1200 H         1 <0>         0.0787
     31 H4          6.0316   -3.0840    2.0406 H         1 <0>         0.0804
     32 H5          4.0873   -0.6050    0.1057 H         1 <0>         0.1419
     33 H6          1.6097   -0.4820    0.2445 H         1 <0>         0.1648
     34 H7          0.3398   -2.1791    4.1355 H         1 <0>         0.1166
     35 H8          1.4506   -1.1775    6.0916 H         1 <0>         0.1175
     36 H9          1.8720   -2.5391    8.0994 H         1 <0>         0.1178
     37 H10         1.1819   -4.9022    8.1516 H         1 <0>         0.1202
     38 H11         0.0636   -5.9016    6.1986 H         1 <0>         0.1275
     39 H12        -1.8468   -2.3606    3.6375 H         1 <0>         0.1104
     40 H13        -4.2722   -1.9586    3.7757 H         1 <0>         0.1161
     41 H14        -5.8131   -3.8428    4.1479 H         1 <0>         0.1141
     42 H15        -4.9288   -6.1290    4.3810 H         1 <0>         0.1161
     43 H16        -2.5040   -6.5320    4.2345 H         1 <0>         0.1254
     44 H17         1.1993   -7.5455    3.9699 H         1 <0>         0.0761
     45 H18         1.5540   -6.1669    2.9013 H         1 <0>         0.0728
     46 H19         1.5872   -5.9549    4.6683 H         1 <0>         0.0430
@<TRIPOS>BOND
     1    1    2 1
     2    1   29 1
     3    1   30 1
     4    1   31 1
     5    2    7 ar
     6    2    3 ar
     7    3    4 ar
     8    3   32 1
     9    4    5 ar
    10    4   33 1
    11    5    6 ar
    12    6    7 ar
    13    6    8 1
    14    8    9 1
    15    9   10 1
    16    9   11 1
    17    9   14 1
    18   11   12 2
    19   11   13 1
    20   14   15 1
    21   14   21 1
    22   14   27 1
    23   15   20 ar
    24   15   16 ar
    25   16   17 ar
    26   16   34 1
    27   17   18 ar
    28   17   35 1
    29   18   19 ar
    30   18   36 1
    31   19   20 ar
    32   19   37 1
    33   20   38 1
    34   21   26 ar
    35   21   22 ar
    36   22   23 ar
    37   22   39 1
    38   23   24 ar
    39   23   40 1
    40   24   25 ar
    41   24   41 1
    42   25   26 ar
    43   25   42 1
    44   26   43 1
    45   27   28 1
    46   28   44 1
    47   28   45 1
    48   28   46 1
@<TRIPOS>MOLECULE
ZINC09435021
   46    48     0     0     0
SMALL
USER_CHARGES

@<TRIPOS>ATOM
      1 C1          0.3555    1.6080    0.3768 C.3       1 <0>        -0.1020
      2 C2          0.4945    0.1095    0.2985 C.ar      1 <0>         0.2075
      3 C3          0.7068   -0.5128   -0.9218 C.ar      1 <0>        -0.2914
      4 C4          0.8288   -1.8929   -0.9484 C.ar      1 <0>         0.1881
      5 N1          0.7395   -2.5703    0.1847 N.ar      1 <0>        -0.5683
      6 C5          0.5364   -1.9449    1.3328 C.ar      1 <0>         0.5262
      7 N2          0.4208   -0.6280    1.3943 N.ar      1 <0>        -0.5329
      8 O1          0.4497   -2.6698    2.4738 O.3       1 <0>        -0.2548
      9 C6          0.5866   -4.0871    2.3539 C.3       1 <0>         0.0009
     10 H1          1.2364   -4.3193    1.5102 H         1 <0>         0.0952
     11 C7         -0.7691   -4.7055    2.1288 C.2       1 <0>         0.5034
     12 O2         -0.8645   -5.8997    1.9021 O.co2     1 <0>        -0.6691
     13 O3         -1.7707   -4.0116    2.1734 O.co2     1 <0>        -0.6786
     14 C8          1.1974   -4.6510    3.6384 C.3       1 <0>         0.2220
     15 C9          1.4684   -6.1228    3.4618 C.ar      1 <0>        -0.0434
     16 C10         1.7731   -6.6242    2.2101 C.ar      1 <0>        -0.0607
     17 C11         2.0217   -7.9743    2.0481 C.ar      1 <0>        -0.1238
     18 C12         1.9660   -8.8230    3.1378 C.ar      1 <0>        -0.1216
     19 C13         1.6621   -8.3215    4.3897 C.ar      1 <0>        -0.1334
     20 C14         1.4177   -6.9707    4.5524 C.ar      1 <0>        -0.0896
     21 C15         2.4892   -3.9346    3.9369 C.ar      1 <0>        -0.0904
     22 C16         3.2538   -3.4283    2.9025 C.ar      1 <0>        -0.1031
     23 C17         4.4387   -2.7712    3.1763 C.ar      1 <0>        -0.1209
     24 C18         4.8589   -2.6200    4.4845 C.ar      1 <0>        -0.1237
     25 C19         4.0939   -3.1255    5.5190 C.ar      1 <0>        -0.1233
     26 C20         2.9068   -3.7789    5.2454 C.ar      1 <0>        -0.0978
     27 O4          0.2859   -4.4612    4.7225 O.3       1 <0>        -0.3599
     28 C21        -0.0448   -3.0934    4.9711 C.3       1 <0>         0.0257
     29 H2          1.3380    2.0569    0.5229 H         1 <0>         0.0824
     30 H3         -0.0803    1.9813   -0.5499 H         1 <0>         0.0795
     31 H4         -0.2916    1.8697    1.2139 H         1 <0>         0.0816
     32 H5          0.7752    0.0650   -1.8316 H         1 <0>         0.1420
     33 H6          0.9943   -2.4092   -1.8824 H         1 <0>         0.1650
     34 H7          1.8167   -5.9611    1.3587 H         1 <0>         0.1155
     35 H8          2.2591   -8.3662    1.0701 H         1 <0>         0.1168
     36 H9          2.1595   -9.8780    3.0111 H         1 <0>         0.1141
     37 H10         1.6182   -8.9846    5.2410 H         1 <0>         0.1156
     38 H11         1.1840   -6.5783    5.5311 H         1 <0>         0.1212
     39 H12         2.9255   -3.5465    1.8804 H         1 <0>         0.1153
     40 H13         5.0364   -2.3763    2.3681 H         1 <0>         0.1168
     41 H14         5.7850   -2.1073    4.6984 H         1 <0>         0.1175
     42 H15         4.4223   -3.0077    6.5411 H         1 <0>         0.1200
     43 H16         2.3072   -4.1705    6.0538 H         1 <0>         0.1266
     44 H17        -0.6108   -3.0194    5.8997 H         1 <0>         0.0747
     45 H18         0.8707   -2.5079    5.0561 H         1 <0>         0.0401
     46 H19        -0.6464   -2.7095    4.1473 H         1 <0>         0.0749
@<TRIPOS>BOND
     1    1    2 1
     2    1   29 1
     3    1   30 1
     4    1   31 1
     5    2    7 ar
     6    2    3 ar
     7    3    4 ar
     8    3   32 1
     9    4    5 ar
    10    4   33 1
    11    5    6 ar
    12    6    7 ar
    13    6    8 1
    14    8    9 1
    15    9   10 1
    16    9   11 1
    17    9   14 1
    18   11   12 2
    19   11   13 1
    20   14   15 1
    21   14   21 1
    22   14   27 1
    23   15   20 ar
    24   15   16 ar
    25   16   17 ar
    26   16   34 1
    27   17   18 ar
    28   17   35 1
    29   18   19 ar
    30   18   36 1
    31   19   20 ar
    32   19   37 1
    33   20   38 1
    34   21   26 ar
    35   21   22 ar
    36   22   23 ar
    37   22   39 1
    38   23   24 ar
    39   23   40 1
    40   24   25 ar
    41   24   41 1
    42   25   26 ar
    43   25   42 1
    44   26   43 1
    45   27   28 1
    46   28   44 1
    47   28   45 1
    48   28   46 1
@<TRIPOS>MOLECULE
ZINC09660252
   62    65     0     0     0
SMALL
USER_CHARGES

@<TRIPOS>ATOM
      1 C1          1.5430    1.2805    0.3565 C.3       1 <0>        -0.1053
      2 C2          1.5732   -0.2243    0.4321 C.ar      1 <0>         0.2133
      3 C3          2.0214   -0.9721   -0.6452 C.ar      1 <0>        -0.2900
      4 C4          2.0330   -2.3535   -0.5329 C.ar      1 <0>         0.2093
      5 N1          1.6184   -2.9126    0.5921 N.ar      1 <0>        -0.5350
      6 C5          1.1965   -2.1689    1.6020 C.ar      1 <0>         0.5314
      7 N2          1.1773   -0.8478    1.5298 N.ar      1 <0>        -0.5680
      8 O1          0.7786   -2.7746    2.7392 O.3       1 <0>        -0.2522
      9 C6          0.3329   -1.9268    3.7997 C.3       1 <0>         0.0059
     10 H1         -0.0923   -1.0145    3.3813 H         1 <0>         0.0880
     11 C7          1.4996   -1.5764    4.6868 C.2       1 <0>         0.5026
     12 O2          1.3530   -0.7852    5.6028 O.co2     1 <0>        -0.6702
     13 O3          2.5903   -2.0841    4.4885 O.co2     1 <0>        -0.6777
     14 C8         -0.7321   -2.6555    4.6219 C.3       1 <0>         0.2247
     15 C9         -1.9319   -2.9357    3.7541 C.ar      1 <0>        -0.0988
     16 C10        -3.0002   -3.6511    4.2620 C.ar      1 <0>        -0.0894
     17 C11        -4.1007   -3.9082    3.4660 C.ar      1 <0>        -0.1250
     18 C12        -4.1332   -3.4495    2.1624 C.ar      1 <0>        -0.1193
     19 C13        -3.0653   -2.7334    1.6548 C.ar      1 <0>        -0.1229
     20 C14        -1.9666   -2.4726    2.4521 C.ar      1 <0>        -0.1031
     21 C15        -0.1683   -3.9556    5.1347 C.ar      1 <0>        -0.0572
     22 C16         0.0640   -5.0008    4.2605 C.ar      1 <0>        -0.0799
     23 C17         0.5811   -6.1934    4.7309 C.ar      1 <0>        -0.1290
     24 C18         0.8663   -6.3405    6.0755 C.ar      1 <0>        -0.1224
     25 C19         0.6348   -5.2949    6.9496 C.ar      1 <0>        -0.1311
     26 C20         0.1217   -4.1009    6.4785 C.ar      1 <0>        -0.0798
     27 O4         -1.1236   -1.8374    5.7262 O.3       1 <0>        -0.3322
     28 C21        -1.7807   -0.6261    5.3481 C.3       1 <0>         0.0762
     29 C22        -2.1093    0.1883    6.6009 C.3       1 <0>        -0.0770
     30 C23        -2.8023    1.4657    6.2022 C.ar      1 <0>        -0.0709
     31 C24        -2.0596    2.6004    5.9341 C.ar      1 <0>        -0.1092
     32 C25        -2.6953    3.7721    5.5684 C.ar      1 <0>        -0.1200
     33 C26        -4.0737    3.8091    5.4702 C.ar      1 <0>        -0.1293
     34 C27        -4.8163    2.6742    5.7373 C.ar      1 <0>        -0.1236
     35 C28        -4.1804    1.5013    6.0989 C.ar      1 <0>        -0.1166
     36 C29         2.5114   -3.2080   -1.6784 C.3       1 <0>        -0.1011
     37 H2          2.4948    1.6809    0.7055 H         1 <0>         0.0854
     38 H3          1.3755    1.5891   -0.6754 H         1 <0>         0.0781
     39 H4          0.7369    1.6597    0.9845 H         1 <0>         0.0804
     40 H5          2.3540   -0.4892   -1.5522 H         1 <0>         0.1414
     41 H6         -2.9748   -4.0095    5.2805 H         1 <0>         0.1238
     42 H7         -4.9351   -4.4677    3.8625 H         1 <0>         0.1203
     43 H8         -4.9928   -3.6510    1.5403 H         1 <0>         0.1181
     44 H9         -3.0905   -2.3753    0.6362 H         1 <0>         0.1161
     45 H10        -1.1338   -1.9099    2.0568 H         1 <0>         0.1176
     46 H11        -0.1588   -4.8859    3.2100 H         1 <0>         0.1203
     47 H12         0.7620   -7.0103    4.0480 H         1 <0>         0.1159
     48 H13         1.2696   -7.2725    6.4432 H         1 <0>         0.1139
     49 H14         0.8572   -5.4100    8.0002 H         1 <0>         0.1163
     50 H15        -0.0557   -3.2827    7.1608 H         1 <0>         0.1301
     51 H16        -1.1261   -0.0452    4.6984 H         1 <0>         0.0554
     52 H17        -2.7024   -0.8634    4.8168 H         1 <0>         0.0405
     53 H18        -2.7639   -0.3926    7.2506 H         1 <0>         0.0744
     54 H19        -1.1876    0.4256    7.1322 H         1 <0>         0.0907
     55 H20        -0.9827    2.5715    6.0108 H         1 <0>         0.1278
     56 H21        -2.1151    4.6588    5.3596 H         1 <0>         0.1199
     57 H22        -4.5704    4.7248    5.1851 H         1 <0>         0.1170
     58 H23        -5.8932    2.7032    5.6609 H         1 <0>         0.1178
     59 H24        -4.7603    0.6136    6.3040 H         1 <0>         0.1198
     60 H25         3.5842   -3.3758   -1.5831 H         1 <0>         0.0843
     61 H26         1.9908   -4.1654   -1.6595 H         1 <0>         0.0810
     62 H27         2.3053   -2.7008   -2.6209 H         1 <0>         0.0786
@<TRIPOS>BOND
     1    1    2 1
     2    1   37 1
     3    1   38 1
     4    1   39 1
     5    2    7 ar
     6    2    3 ar
     7    3    4 ar
     8    3   40 1
     9    4    5 ar
    10    4   36 1
    11    5    6 ar
    12    6    7 ar
    13    6    8 1
    14    8    9 1
    15    9   10 1
    16    9   11 1
    17    9   14 1
    18   11   12 2
    19   11   13 1
    20   14   15 1
    21   14   21 1
    22   14   27 1
    23   15   20 ar
    24   15   16 ar
    25   16   17 ar
    26   16   41 1
    27   17   18 ar
    28   17   42 1
    29   18   19 ar
    30   18   43 1
    31   19   20 ar
    32   19   44 1
    33   20   45 1
    34   21   26 ar
    35   21   22 ar
    36   22   23 ar
    37   22   46 1
    38   23   24 ar
    39   23   47 1
    40   24   25 ar
    41   24   48 1
    42   25   26 ar
    43   25   49 1
    44   26   50 1
    45   27   28 1
    46   28   29 1
    47   28   51 1
    48   28   52 1
    49   29   30 1
    50   29   53 1
    51   29   54 1
    52   30   35 ar
    53   30   31 ar
    54   31   32 ar
    55   31   55 1
    56   32   33 ar
    57   32   56 1
    58   33   34 ar
    59   33   57 1
    60   34   35 ar
    61   34   58 1
    62   35   59 1
    63   36   60 1
    64   36   61 1
    65   36   62 1
@<TRIPOS>MOLECULE
ZINC13140305
   62    65     0     0     0
SMALL
USER_CHARGES

@<TRIPOS>ATOM
      1 C1          1.5384    3.6006    3.5346 C.3       1 <0>        -0.1061
      2 C2          1.1135    2.4854    2.6143 C.ar      1 <0>         0.2137
      3 C3          1.0220    2.6996    1.2481 C.ar      1 <0>        -0.2899
      4 C4          0.6278    1.6464    0.4381 C.ar      1 <0>         0.2093
      5 N1          0.3527    0.4760    0.9902 N.ar      1 <0>        -0.5350
      6 C5          0.4503    0.3055    2.2987 C.ar      1 <0>         0.5315
      7 N2          0.8285    1.2883    3.0999 N.ar      1 <0>        -0.5683
      8 O1          0.1606   -0.9062    2.8305 O.3       1 <0>        -0.2523
      9 C6          0.2816   -1.0382    4.2483 C.3       1 <0>         0.0055
     10 H1          1.0553   -0.3617    4.6114 H         1 <0>         0.0883
     11 C7         -1.0332   -0.6931    4.8989 C.2       1 <0>         0.5025
     12 O2         -2.0100   -0.4534    4.2099 O.co2     1 <0>        -0.6773
     13 O3         -1.1201   -0.6536    6.1144 O.co2     1 <0>        -0.6702
     14 C8          0.6599   -2.4793    4.5959 C.3       1 <0>         0.2247
     15 C9         -0.3660   -3.4209    4.0198 C.ar      1 <0>        -0.0571
     16 C10        -1.2539   -4.0714    4.8561 C.ar      1 <0>        -0.0797
     17 C11        -2.1949   -4.9351    4.3276 C.ar      1 <0>        -0.1309
     18 C12        -2.2483   -5.1481    2.9628 C.ar      1 <0>        -0.1224
     19 C13        -1.3610   -4.4969    2.1264 C.ar      1 <0>        -0.1292
     20 C14        -0.4228   -3.6299    2.6545 C.ar      1 <0>        -0.0800
     21 C15         2.0145   -2.7967    4.0166 C.ar      1 <0>        -0.0989
     22 C16         2.5416   -4.0679    4.1475 C.ar      1 <0>        -0.0892
     23 C17         3.7840   -4.3590    3.6162 C.ar      1 <0>        -0.1251
     24 C18         4.4993   -3.3791    2.9536 C.ar      1 <0>        -0.1193
     25 C19         3.9718   -2.1082    2.8219 C.ar      1 <0>        -0.1233
     26 C20         2.7274   -1.8182    3.3495 C.ar      1 <0>        -0.1031
     27 O4          0.7017   -2.6314    6.0162 O.3       1 <0>        -0.3323
     28 C21         1.7189   -1.8566    6.6541 C.3       1 <0>         0.0767
     29 C22         1.6207   -2.0354    8.1704 C.3       1 <0>        -0.0771
     30 C23         2.6934   -1.2182    8.8431 C.ar      1 <0>        -0.0707
     31 C24         3.9359   -1.7738    9.0851 C.ar      1 <0>        -0.1168
     32 C25         4.9199   -1.0242    9.7022 C.ar      1 <0>        -0.1237
     33 C26         4.6615    0.2811   10.0769 C.ar      1 <0>        -0.1294
     34 C27         3.4194    0.8369    9.8341 C.ar      1 <0>        -0.1201
     35 C28         2.4367    0.0887    9.2131 C.ar      1 <0>        -0.1090
     36 C29         0.5136    1.8321   -1.0531 C.3       1 <0>        -0.1011
     37 H2          2.6230    3.5894    3.6423 H         1 <0>         0.0823
     38 H3          1.2248    4.5568    3.1156 H         1 <0>         0.0791
     39 H4          1.0748    3.4623    4.5113 H         1 <0>         0.0833
     40 H5          1.2523    3.6659    0.8242 H         1 <0>         0.1414
     41 H6         -1.2121   -3.9050    5.9224 H         1 <0>         0.1301
     42 H7         -2.8881   -5.4439    4.9810 H         1 <0>         0.1163
     43 H8         -2.9831   -5.8234    2.5500 H         1 <0>         0.1139
     44 H9         -1.4025   -4.6635    1.0601 H         1 <0>         0.1159
     45 H10         0.2681   -3.1183    2.0007 H         1 <0>         0.1201
     46 H11         1.9828   -4.8335    4.6652 H         1 <0>         0.1239
     47 H12         4.1961   -5.3520    3.7191 H         1 <0>         0.1203
     48 H13         5.4703   -3.6064    2.5390 H         1 <0>         0.1181
     49 H14         4.5307   -1.3425    2.3045 H         1 <0>         0.1159
     50 H15         2.3137   -0.8262    3.2434 H         1 <0>         0.1178
     51 H16         2.6984   -2.1903    6.3115 H         1 <0>         0.0400
     52 H17         1.5852   -0.8043    6.4029 H         1 <0>         0.0557
     53 H18         0.6412   -1.7017    8.5129 H         1 <0>         0.0911
     54 H19         1.7544   -3.0876    8.4215 H         1 <0>         0.0742
     55 H20         4.1377   -2.7936    8.7923 H         1 <0>         0.1198
     56 H21         5.8903   -1.4585    9.8918 H         1 <0>         0.1177
     57 H22         5.4301    0.8665   10.5596 H         1 <0>         0.1169
     58 H23         3.2174    1.8566   10.1271 H         1 <0>         0.1199
     59 H24         1.4675    0.5242    9.0201 H         1 <0>         0.1279
     60 H25         1.4679    1.5944   -1.5230 H         1 <0>         0.0824
     61 H26        -0.2588    1.1695   -1.4436 H         1 <0>         0.0821
     62 H27         0.2490    2.8668   -1.2711 H         1 <0>         0.0792
@<TRIPOS>BOND
     1    1    2 1
     2    1   37 1
     3    1   38 1
     4    1   39 1
     5    2    7 ar
     6    2    3 ar
     7    3    4 ar
     8    3   40 1
     9    4    5 ar
    10    4   36 1
    11    5    6 ar
    12    6    7 ar
    13    6    8 1
    14    8    9 1
    15    9   10 1
    16    9   11 1
    17    9   14 1
    18   11   12 2
    19   11   13 1
    20   14   15 1
    21   14   21 1
    22   14   27 1
    23   15   20 ar
    24   15   16 ar
    25   16   17 ar
    26   16   41 1
    27   17   18 ar
    28   17   42 1
    29   18   19 ar
    30   18   43 1
    31   19   20 ar
    32   19   44 1
    33   20   45 1
    34   21   26 ar
    35   21   22 ar
    36   22   23 ar
    37   22   46 1
    38   23   24 ar
    39   23   47 1
    40   24   25 ar
    41   24   48 1
    42   25   26 ar
    43   25   49 1
    44   26   50 1
    45   27   28 1
    46   28   29 1
    47   28   51 1
    48   28   52 1
    49   29   30 1
    50   29   53 1
    51   29   54 1
    52   30   35 ar
    53   30   31 ar
    54   31   32 ar
    55   31   55 1
    56   32   33 ar
    57   32   56 1
    58   33   34 ar
    59   33   57 1
    60   34   35 ar
    61   34   58 1
    62   35   59 1
    63   36   60 1
    64   36   61 1
    65   36   62 1
@<TRIPOS>MOLECULE
ZINC01891205
   77    81     0     0     0
SMALL
USER_CHARGES
2-[2-[(3,5-dimethylbenzoyl)-methyl-amino]-3-(4-phenylphenyl)-propanoyl]amino-3-(1H-indol-3-yl)propanoic acid
@<TRIPOS>ATOM
      1 C1          2.7331   -5.9532    4.1900 C.3       1 <0>        -0.1120
      2 C2          3.1519   -4.5719    4.6231 C.ar      1 <0>        -0.0954
      3 C3          2.7435   -4.0797    5.8500 C.ar      1 <0>        -0.1006
      4 C4          3.1235   -2.8125    6.2552 C.ar      1 <0>        -0.0941
      5 C5          3.9134   -2.0314    5.4372 C.ar      1 <0>        -0.0655
      6 C6          4.3289   -2.5219    4.1982 C.ar      1 <0>        -0.1155
      7 C7          3.9372   -3.7988    3.7931 C.ar      1 <0>        -0.1365
      8 C8          5.1751   -1.6900    3.3163 C.2       1 <0>         0.5647
      9 O1          5.2639   -0.4935    3.5112 O.2       1 <0>        -0.5297
     10 N1          5.8480   -2.2584    2.2962 N.am      1 <0>        -0.5809
     11 C9          5.6023   -3.6599    1.9472 C.3       1 <0>         0.0723
     12 C10         6.8251   -1.4748    1.5363 C.3       1 <0>         0.1337
     13 H1          6.8064   -0.4402    1.8787 H         1 <0>         0.1211
     14 C11         6.4735   -1.5260    0.0482 C.3       1 <0>        -0.0863
     15 C12         5.1502   -0.8417   -0.1792 C.ar      1 <0>        -0.0623
     16 C13         5.1134    0.5136   -0.4532 C.ar      1 <0>        -0.1050
     17 C14         3.9043    1.1453   -0.6627 C.ar      1 <0>        -0.1037
     18 C15         2.7193    0.4154   -0.5972 C.ar      1 <0>        -0.0554
     19 C16         2.7618   -0.9485   -0.3152 C.ar      1 <0>        -0.1065
     20 C17         3.9769   -1.5713   -0.1135 C.ar      1 <0>        -0.1085
     21 C18         1.4163    1.0892   -0.8211 C.ar      1 <0>        -0.0359
     22 C19         0.2312    0.3592   -0.7556 C.ar      1 <0>        -0.1136
     23 C20        -0.9776    0.9900   -0.9693 C.ar      1 <0>        -0.1180
     24 C21        -1.0148    2.3465   -1.2377 C.ar      1 <0>        -0.1249
     25 C22         0.1586    3.0760   -1.3039 C.ar      1 <0>        -0.1175
     26 C23         1.3733    2.4543   -1.0970 C.ar      1 <0>        -0.1129
     27 C24         8.2025   -2.0488    1.7471 C.2       1 <0>         0.5102
     28 O2          8.3306   -3.1889    2.1406 O.2       1 <0>        -0.5385
     29 N2          9.2919   -1.2953    1.4983 N.am      1 <0>        -0.6873
     30 C25        10.6309   -1.8533    1.7032 C.3       1 <0>         0.1125
     31 H2         10.6268   -2.9121    1.4441 H         1 <0>         0.0875
     32 C26        11.6329   -1.1145    0.8138 C.3       1 <0>        -0.0404
     33 C27        11.3086   -1.3775   -0.6342 C.2       1 <0>        -0.1506
     34 C28        11.8537   -2.3232   -1.4154 C.2       1 <0>         0.0465
     35 N3         11.3121   -2.2609   -2.6705 N.pl3     1 <0>        -0.5977
     36 H3         11.5485   -2.8437   -3.4090 H         1 <0>         0.4123
     37 C29        10.3815   -1.2478   -2.7289 C.ar      1 <0>         0.0953
     38 C30        10.3342   -0.6537   -1.4543 C.ar      1 <0>        -0.0932
     39 C31         9.4721    0.4182   -1.2171 C.ar      1 <0>        -0.0720
     40 C32         8.6696    0.8789   -2.2229 C.ar      1 <0>        -0.1482
     41 C33         8.7083    0.2925   -3.4803 C.ar      1 <0>        -0.1012
     42 C34         9.5557   -0.7631   -3.7377 C.ar      1 <0>        -0.1321
     43 C35        11.0269   -1.6913    3.1482 C.2       1 <0>         0.4572
     44 O3         10.2685   -1.1639    3.9269 O.co2     1 <0>        -0.6247
     45 C36         2.6740   -2.2846    7.5932 C.3       1 <0>        -0.1127
     46 H4          1.7896   -5.8935    3.6475 H         1 <0>         0.0690
     47 H5          3.4989   -6.3783    3.5412 H         1 <0>         0.0678
     48 H6          2.6080   -6.5869    5.0680 H         1 <0>         0.0656
     49 H7          2.1256   -4.6874    6.4944 H         1 <0>         0.1217
     50 H8          4.2100   -1.0427    5.7549 H         1 <0>         0.1323
     51 H9          4.2516   -4.1824    2.8337 H         1 <0>         0.1698
     52 H10         6.3250   -3.9794    1.1964 H         1 <0>         0.0846
     53 H11         5.7057   -4.2796    2.8379 H         1 <0>         0.0824
     54 H12         4.5934   -3.7634    1.5477 H         1 <0>         0.0621
     55 H13         6.4051   -2.5652   -0.2735 H         1 <0>         0.0815
     56 H14         7.2485   -1.0182   -0.5259 H         1 <0>         0.0954
     57 H15         6.0326    1.0785   -0.5037 H         1 <0>         0.1257
     58 H16         3.8767    2.2036   -0.8766 H         1 <0>         0.1232
     59 H17         1.8460   -1.5181   -0.2589 H         1 <0>         0.1209
     60 H18         4.0114   -2.6293    0.1005 H         1 <0>         0.1200
     61 H19         0.2589   -0.6992   -0.5425 H         1 <0>         0.1239
     62 H20        -1.8964    0.4244   -0.9229 H         1 <0>         0.1219
     63 H21        -1.9631    2.8369   -1.4006 H         1 <0>         0.1202
     64 H22         0.1241    4.1340   -1.5182 H         1 <0>         0.1225
     65 H23         2.2889    3.0247   -1.1492 H         1 <0>         0.1254
     66 H24         9.1894   -0.3835    1.1836 H         1 <0>         0.3888
     67 H25        11.5733   -0.0441    1.0109 H         1 <0>         0.0689
     68 H26        12.6408   -1.4682    1.0305 H         1 <0>         0.0954
     69 H27        12.6083   -3.0286   -1.1002 H         1 <0>         0.1704
     70 H28         9.4363    0.8792   -0.2411 H         1 <0>         0.1174
     71 H29         7.9997    1.7055   -2.0377 H         1 <0>         0.1194
     72 H30         8.0676    0.6673   -4.2648 H         1 <0>         0.1198
     73 H31         9.5783   -1.2128   -4.7193 H         1 <0>         0.1140
     74 H32         1.7232   -1.7643    7.4777 H         1 <0>         0.0697
     75 H33         2.5517   -3.1148    8.2889 H         1 <0>         0.0660
     76 H34         3.4220   -1.5930    7.9808 H         1 <0>         0.0687
     77 O4         12.2221   -2.1330    3.5700 O.co2     1 <0>        -0.7677
@<TRIPOS>BOND
     1    1    2 1
     2    1   46 1
     3    1   47 1
     4    1   48 1
     5    2    7 ar
     6    2    3 ar
     7    3    4 ar
     8    3   49 1
     9    4    5 ar
    10    4   45 1
    11    5    6 ar
    12    5   50 1
    13    6    7 ar
    14    6    8 1
    15    7   51 1
    16    8    9 2
    17    8   10 am
    18   10   11 1
    19   10   12 1
    20   11   52 1
    21   11   53 1
    22   11   54 1
    23   12   13 1
    24   12   14 1
    25   12   27 1
    26   14   15 1
    27   14   55 1
    28   14   56 1
    29   15   20 ar
    30   15   16 ar
    31   16   17 ar
    32   16   57 1
    33   17   18 ar
    34   17   58 1
    35   18   19 ar
    36   18   21 1
    37   19   20 ar
    38   19   59 1
    39   20   60 1
    40   21   26 ar
    41   21   22 ar
    42   22   23 ar
    43   22   61 1
    44   23   24 ar
    45   23   62 1
    46   24   25 ar
    47   24   63 1
    48   25   26 ar
    49   25   64 1
    50   26   65 1
    51   27   28 2
    52   27   29 am
    53   29   30 1
    54   29   66 1
    55   30   31 1
    56   30   32 1
    57   30   43 1
    58   32   33 1
    59   32   67 1
    60   32   68 1
    61   33   38 1
    62   33   34 2
    63   34   35 1
    64   34   69 1
    65   35   36 1
    66   35   37 1
    67   37   42 ar
    68   37   38 ar
    69   38   39 ar
    70   39   40 ar
    71   39   70 1
    72   40   41 ar
    73   40   71 1
    74   41   42 ar
    75   41   72 1
    76   42   73 1
    77   43   44 2
    78   43   77 1
    79   45   74 1
    80   45   75 1
    81   45   76 1
@<TRIPOS>MOLECULE
ZINC34026476
   75    78     0     0     0
SMALL
USER_CHARGES
(2R,3S,4S)-4-(1,3-benzodioxol-5-yl)-1-[2-(dibutylamino)-2-oxo-ethyl]-2-(4-methoxyphenyl)pyrrolidine-3-carboxylic acid
@<TRIPOS>ATOM
      1 C1          2.0123   10.2502   -1.7050 C.3       1 <0>        -0.1552
      2 C2          1.2019    9.1925   -2.4569 C.3       1 <0>        -0.1227
      3 C3          2.0066    7.8935   -2.5347 C.3       1 <0>        -0.1358
      4 C4          1.1961    6.8358   -3.2867 C.3       1 <0>         0.1097
      5 N1          1.9666    5.5920   -3.3611 N.am      1 <0>        -0.5897
      6 C5          2.8660    5.3542   -4.4928 C.3       1 <0>         0.0915
      7 C6          2.1005    4.6467   -5.6128 C.3       1 <0>        -0.1408
      8 C7          3.0399    4.3983   -6.7946 C.3       1 <0>        -0.1247
      9 C8          2.2744    3.6908   -7.9146 C.3       1 <0>        -0.1566
     10 C9          1.8479    4.6665   -2.3886 C.2       1 <0>         0.5034
     11 O1          1.1033    4.8635   -1.4517 O.2       1 <0>        -0.5181
     12 C10         2.6404    3.3871   -2.4652 C.3       1 <0>        -0.0455
     13 N2          2.3366    2.5521   -1.2954 N.4       1 <0>        -0.3922
     14 C11         0.8742    2.3223   -1.1706 C.3       1 <0>         0.0063
     15 C12         0.7525    1.0568   -0.2949 C.3       1 <0>        -0.0345
     16 H1         -0.1181    0.4390   -0.5603 H         1 <0>         0.1220
     17 C13         2.0906    0.3117   -0.4792 C.3       1 <0>        -0.1539
     18 H2          1.9567   -0.7169   -0.8453 H         1 <0>         0.1246
     19 C14         2.9082    1.1897   -1.4508 C.3       1 <0>         0.1096
     20 H3          2.8614    0.8582   -2.4986 H         1 <0>         0.1418
     21 C15         4.3650    1.1838   -1.0654 C.ar      1 <0>        -0.1106
     22 C16         5.0225    2.3779   -0.8338 C.ar      1 <0>        -0.0879
     23 C17         6.3565    2.3749   -0.4748 C.ar      1 <0>        -0.1890
     24 C18         7.0395    1.1730   -0.3583 C.ar      1 <0>         0.1366
     25 C19         6.3790   -0.0235   -0.5967 C.ar      1 <0>        -0.1270
     26 C20         5.0434   -0.0154   -0.9494 C.ar      1 <0>        -0.0427
     27 O2          8.3536    1.1677   -0.0115 O.3       1 <0>        -0.3148
     28 C21         8.9688    2.4367    0.2188 C.3       1 <0>         0.0236
     29 C22         2.8061    0.1862    0.8411 C.2       1 <0>         0.4751
     30 O3          3.4934    1.0944    1.2445 O.co2     1 <0>        -0.6132
     31 O4          2.6798   -0.9344    1.5691 O.co2     1 <0>        -0.7277
     32 C23         0.5588    1.4348    1.1510 C.ar      1 <0>        -0.0987
     33 C24         1.4455    2.3019    1.7620 C.ar      1 <0>        -0.0498
     34 C25         1.2718    2.6520    3.0879 C.ar      1 <0>        -0.0993
     35 C26         0.2077    2.1339    3.8082 C.ar      1 <0>         0.0427
     36 C27        -0.6855    1.2604    3.1927 C.ar      1 <0>         0.0238
     37 C28        -0.5084    0.9184    1.8618 C.ar      1 <0>        -0.0740
     38 O5         -1.6350    0.8945    4.1026 O.3       1 <0>        -0.3109
     39 C29        -1.5498    1.8684    5.1597 C.3       1 <0>         0.2094
     40 O6         -0.1822    2.3152    5.1037 O.3       1 <0>        -0.3054
     41 H4          1.4337   11.1841   -1.6491 H         1 <0>         0.0580
     42 H5          2.9569   10.4353   -2.2375 H         1 <0>         0.0543
     43 H6          2.2289    9.8916   -0.6879 H         1 <0>         0.0554
     44 H7          0.2573    9.0074   -1.9244 H         1 <0>         0.0660
     45 H8          0.9853    9.5511   -3.4740 H         1 <0>         0.0641
     46 H9          2.9512    8.0787   -3.0671 H         1 <0>         0.0655
     47 H10         2.2232    7.5349   -1.5176 H         1 <0>         0.0688
     48 H11         0.2515    6.6507   -2.7543 H         1 <0>         0.0927
     49 H12         0.9795    7.1944   -4.3038 H         1 <0>         0.0869
     50 H13         3.2517    6.3156   -4.8629 H         1 <0>         0.0962
     51 H14         3.7060    4.7230   -4.1673 H         1 <0>         0.0835
     52 H15         1.7147    3.6854   -5.2427 H         1 <0>         0.0636
     53 H16         1.2606    5.2780   -5.9384 H         1 <0>         0.0745
     54 H17         3.4257    5.3597   -7.1647 H         1 <0>         0.0679
     55 H18         3.8798    3.7670   -6.4690 H         1 <0>         0.0663
     56 H19         2.9498    3.5122   -8.7643 H         1 <0>         0.0595
     57 H20         1.4345    4.3221   -8.2402 H         1 <0>         0.0560
     58 H21         1.8886    2.7295   -7.5445 H         1 <0>         0.0550
     59 H22         2.3718    2.8438   -3.3832 H         1 <0>         0.1541
     60 H23         3.7150    3.6217   -2.4791 H         1 <0>         0.1571
     61 H24         0.4050    3.1961   -0.6948 H         1 <0>         0.1566
     62 H25         0.4400    2.1719   -2.1700 H         1 <0>         0.1246
     63 H26         4.4916    3.3135   -0.9297 H         1 <0>         0.1009
     64 H27         6.8684    3.3076   -0.2894 H         1 <0>         0.1287
     65 H28         6.9087   -0.9604   -0.5069 H         1 <0>         0.1347
     66 H29         4.5288   -0.9466   -1.1351 H         1 <0>         0.1324
     67 H30        10.0246    2.2886    0.4897 H         1 <0>         0.1029
     68 H31         8.4486    2.9528    1.0392 H         1 <0>         0.0580
     69 H32         8.9067    3.0455   -0.6952 H         1 <0>         0.0547
     70 H33         2.2760    2.7062    1.2023 H         1 <0>         0.1308
     71 H34         1.9660    3.3296    3.5627 H         1 <0>         0.1319
     72 H35        -1.2021    0.2448    1.3807 H         1 <0>         0.1324
     73 H36        -2.2626    2.6834    4.9657 H         1 <0>         0.0827
     74 H37        -1.7927    1.3897    6.1198 H         1 <0>         0.1314
     75 H38         2.7570    3.0944   -0.4357 H         1 <0>         0.4524
@<TRIPOS>BOND
     1    1    2 1
     2    1   41 1
     3    1   42 1
     4    1   43 1
     5    2    3 1
     6    2   44 1
     7    2   45 1
     8    3    4 1
     9    3   46 1
    10    3   47 1
    11    4    5 1
    12    4   48 1
    13    4   49 1
    14    5    6 1
    15    5   10 am
    16    6    7 1
    17    6   50 1
    18    6   51 1
    19    7    8 1
    20    7   52 1
    21    7   53 1
    22    8    9 1
    23    8   54 1
    24    8   55 1
    25    9   56 1
    26    9   57 1
    27    9   58 1
    28   10   11 2
    29   10   12 1
    30   12   13 1
    31   12   59 1
    32   12   60 1
    33   13   19 1
    34   13   14 1
    35   13   75 1
    36   14   15 1
    37   14   61 1
    38   14   62 1
    39   15   16 1
    40   15   17 1
    41   15   32 1
    42   17   18 1
    43   17   19 1
    44   17   29 1
    45   19   20 1
    46   19   21 1
    47   21   26 ar
    48   21   22 ar
    49   22   23 ar
    50   22   63 1
    51   23   24 ar
    52   23   64 1
    53   24   25 ar
    54   24   27 1
    55   25   26 ar
    56   25   65 1
    57   26   66 1
    58   27   28 1
    59   28   67 1
    60   28   68 1
    61   28   69 1
    62   29   30 2
    63   29   31 1
    64   32   37 ar
    65   32   33 ar
    66   33   34 ar
    67   33   70 1
    68   34   35 ar
    69   34   71 1
    70   35   40 1
    71   35   36 ar
    72   36   37 ar
    73   36   38 1
    74   37   72 1
    75   38   39 1
    76   39   40 1
    77   39   73 1
    78   39   74 1
@<TRIPOS>MOLECULE
ZINC34026477
   75    78     0     0     0
SMALL
USER_CHARGES
(2R,3S,4R)-4-(1,3-benzodioxol-5-yl)-1-[2-(dibutylamino)-2-oxo-ethyl]-2-(4-methoxyphenyl)pyrrolidine-3-carboxylic acid
@<TRIPOS>ATOM
      1 C1          8.8444   -1.3691    6.8363 C.3       1 <0>        -0.1551
      2 C2          7.7797   -0.2728    6.7623 C.3       1 <0>        -0.1228
      3 C3          7.7285    0.2932    5.3417 C.3       1 <0>        -0.1355
      4 C4          6.6638    1.3895    5.2676 C.3       1 <0>         0.1095
      5 N1          6.6147    1.9314    3.9074 N.am      1 <0>        -0.5896
      6 C5          7.4614    3.0696    3.5414 C.3       1 <0>         0.0915
      7 C6          6.7085    4.3735    3.8134 C.3       1 <0>        -0.1411
      8 C7          7.5928    5.5622    3.4311 C.3       1 <0>        -0.1246
      9 C8          6.8399    6.8661    3.7031 C.3       1 <0>        -0.1568
     10 C9          5.7907    1.3829    2.9928 C.2       1 <0>         0.5045
     11 O1          5.0898    0.4406    3.2958 O.2       1 <0>        -0.5238
     12 C10         5.7402    1.9403    1.5936 C.3       1 <0>        -0.0360
     13 N2          4.7727    1.1748    0.7961 N.4       1 <0>        -0.3968
     14 C11         3.3825    1.4416    1.2460 C.3       1 <0>         0.0119
     15 C12         2.5272    1.0141    0.0269 C.3       1 <0>        -0.0459
     16 H1          2.2689   -0.0550    0.0115 H         1 <0>         0.1328
     17 C13         3.3861    1.4702   -1.1749 C.3       1 <0>        -0.1442
     18 H2          3.0326    2.4125   -1.6188 H         1 <0>         0.1194
     19 C14         4.8208    1.5784   -0.6259 C.3       1 <0>         0.1137
     20 H3          5.2256    2.5983   -0.7027 H         1 <0>         0.1367
     21 C15         5.7341    0.6555   -1.3909 C.ar      1 <0>        -0.1627
     22 C16         5.8045   -0.6830   -1.0516 C.ar      1 <0>        -0.0519
     23 C17         6.6367   -1.5322   -1.7550 C.ar      1 <0>        -0.1954
     24 C18         7.4111   -1.0385   -2.7949 C.ar      1 <0>         0.1497
     25 C19         7.3429    0.3061   -3.1296 C.ar      1 <0>        -0.1436
     26 C20         6.5045    1.1499   -2.4271 C.ar      1 <0>        -0.0246
     27 O2          8.2354   -1.8706   -3.4841 O.3       1 <0>        -0.3136
     28 C21         8.2543   -3.2425   -3.0845 C.3       1 <0>         0.0216
     29 C22         3.3246    0.4473   -2.2799 C.2       1 <0>         0.4754
     30 O3          3.0784   -0.7070   -2.0215 O.co2     1 <0>        -0.6201
     31 O4          3.5434    0.8186   -3.5511 O.co2     1 <0>        -0.7341
     32 C23         1.1981    1.7244    0.0325 C.ar      1 <0>        -0.0694
     33 C24         1.1544    3.1061    0.0123 C.ar      1 <0>        -0.1080
     34 C25        -0.0624    3.7622    0.0179 C.ar      1 <0>        -0.0963
     35 C26        -1.2418    3.0357    0.0438 C.ar      1 <0>         0.0348
     36 C27        -1.1977    1.6438    0.0580 C.ar      1 <0>         0.0398
     37 C28         0.0254    0.9931    0.0585 C.ar      1 <0>        -0.0818
     38 O5         -2.4765    1.1672    0.0873 O.3       1 <0>        -0.3076
     39 C29        -3.2943    2.2804    0.4938 C.3       1 <0>         0.2087
     40 O6         -2.5482    3.4311    0.0549 O.3       1 <0>        -0.3035
     41 H4          8.8813   -1.7761    7.8576 H         1 <0>         0.0581
     42 H5          9.8254   -0.9458    6.5746 H         1 <0>         0.0546
     43 H6          8.5920   -2.1736    6.1299 H         1 <0>         0.0552
     44 H7          6.7987   -0.6961    7.0240 H         1 <0>         0.0658
     45 H8          8.0321    0.5317    7.4687 H         1 <0>         0.0644
     46 H9          8.7095    0.7165    5.0801 H         1 <0>         0.0659
     47 H10         7.4762   -0.5114    4.6353 H         1 <0>         0.0683
     48 H11         5.6828    0.9662    5.5293 H         1 <0>         0.0921
     49 H12         6.9162    2.1941    5.9740 H         1 <0>         0.0871
     50 H13         8.3843    3.0474    4.1396 H         1 <0>         0.0963
     51 H14         7.7155    3.0089    2.4729 H         1 <0>         0.0845
     52 H15         5.7856    4.3956    3.2152 H         1 <0>         0.0636
     53 H16         6.4544    4.4342    4.8819 H         1 <0>         0.0743
     54 H17         8.5157    5.5400    4.0293 H         1 <0>         0.0680
     55 H18         7.8469    5.5015    2.3626 H         1 <0>         0.0666
     56 H19         7.4756    7.7207    3.4283 H         1 <0>         0.0597
     57 H20         6.5858    6.9267    4.7716 H         1 <0>         0.0558
     58 H21         5.9170    6.8882    3.1049 H         1 <0>         0.0552
     59 H22         5.4318    2.9955    1.6302 H         1 <0>         0.1533
     60 H23         6.7362    1.8652    1.1328 H         1 <0>         0.1577
     61 H24         3.1660    0.8426    2.1429 H         1 <0>         0.1416
     62 H25         3.2726    2.5100    1.4834 H         1 <0>         0.1250
     63 H26         5.2053   -1.0658   -0.2387 H         1 <0>         0.1158
     64 H27         6.6883   -2.5785   -1.4923 H         1 <0>         0.1322
     65 H28         7.9450    0.6929   -3.9385 H         1 <0>         0.1363
     66 H29         6.4511    2.1967   -2.6873 H         1 <0>         0.1336
     67 H30         8.9582   -3.7998   -3.7201 H         1 <0>         0.1040
     68 H31         7.2463   -3.6695   -3.1918 H         1 <0>         0.0610
     69 H32         8.5730   -3.3141   -2.0341 H         1 <0>         0.0560
     70 H33         2.0727    3.6741   -0.0076 H         1 <0>         0.1349
     71 H34        -0.0936    4.8417    0.0023 H         1 <0>         0.1381
     72 H35         0.0626   -0.0862    0.0746 H         1 <0>         0.1409
     73 H36        -4.2776    2.2105    0.0058 H         1 <0>         0.1353
     74 H37        -3.4247    2.2601    1.5859 H         1 <0>         0.0867
     75 H38         5.0485    0.1177    0.9246 H         1 <0>         0.4470
@<TRIPOS>BOND
     1    1    2 1
     2    1   41 1
     3    1   42 1
     4    1   43 1
     5    2    3 1
     6    2   44 1
     7    2   45 1
     8    3    4 1
     9    3   46 1
    10    3   47 1
    11    4    5 1
    12    4   48 1
    13    4   49 1
    14    5    6 1
    15    5   10 am
    16    6    7 1
    17    6   50 1
    18    6   51 1
    19    7    8 1
    20    7   52 1
    21    7   53 1
    22    8    9 1
    23    8   54 1
    24    8   55 1
    25    9   56 1
    26    9   57 1
    27    9   58 1
    28   10   11 2
    29   10   12 1
    30   12   13 1
    31   12   59 1
    32   12   60 1
    33   13   19 1
    34   13   14 1
    35   13   75 1
    36   14   15 1
    37   14   61 1
    38   14   62 1
    39   15   16 1
    40   15   17 1
    41   15   32 1
    42   17   18 1
    43   17   19 1
    44   17   29 1
    45   19   20 1
    46   19   21 1
    47   21   26 ar
    48   21   22 ar
    49   22   23 ar
    50   22   63 1
    51   23   24 ar
    52   23   64 1
    53   24   25 ar
    54   24   27 1
    55   25   26 ar
    56   25   65 1
    57   26   66 1
    58   27   28 1
    59   28   67 1
    60   28   68 1
    61   28   69 1
    62   29   30 2
    63   29   31 1
    64   32   37 ar
    65   32   33 ar
    66   33   34 ar
    67   33   70 1
    68   34   35 ar
    69   34   71 1
    70   35   40 1
    71   35   36 ar
    72   36   37 ar
    73   36   38 1
    74   37   72 1
    75   38   39 1
    76   39   40 1
    77   39   73 1
    78   39   74 1
@<TRIPOS>MOLECULE
ZINC13740974
   63    67     0     0     0
SMALL
USER_CHARGES
(5R)-3-(1,3-benzodioxol-5-yl)-5-hydroxy-5-(4-methoxyphenyl)-4-[(3,4,5-trimethoxyphenyl)methyl]furan-2-one
@<TRIPOS>ATOM
      1 C1         -4.6039   -9.7187    2.1873 C.3       1 <0>         0.0237
      2 O1         -3.4596   -9.4932    3.0129 O.3       1 <0>        -0.3129
      3 C2         -2.4693   -8.7186    2.4968 C.ar      1 <0>         0.1490
      4 C3         -1.3297   -8.4586    3.2440 C.ar      1 <0>        -0.1513
      5 C4         -0.3247   -7.6706    2.7173 C.ar      1 <0>        -0.0476
      6 C5         -0.4542   -7.1407    1.4468 C.ar      1 <0>        -0.1724
      7 C6         -1.5915   -7.3937    0.7023 C.ar      1 <0>        -0.0438
      8 C7         -2.5966   -8.1861    1.2221 C.ar      1 <0>        -0.2069
      9 C8          0.6434   -6.2810    0.8749 C.3       1 <0>         0.3570
     10 C9          0.3750   -4.8239    1.1705 C.2       1 <0>        -0.0277
     11 C10         0.2569   -4.2027   -0.0141 C.2       1 <0>        -0.1477
     12 C11         0.4436   -5.1837   -1.0956 C.2       1 <0>         0.5128
     13 O2          0.3990   -4.9299   -2.2829 O.2       1 <0>        -0.4291
     14 O3          0.6703   -6.4028   -0.5744 O.3       1 <0>        -0.3308
     15 C12        -0.0126   -2.7561   -0.2029 C.ar      1 <0>        -0.0212
     16 C13        -1.2399   -2.2187    0.1810 C.ar      1 <0>        -0.0894
     17 C14        -1.4896   -0.8730    0.0055 C.ar      1 <0>        -0.0967
     18 C15        -0.5219   -0.0512   -0.5527 C.ar      1 <0>         0.0432
     19 C16         0.7073   -0.5836   -0.9384 C.ar      1 <0>         0.0360
     20 C17         0.9612   -1.9321   -0.7640 C.ar      1 <0>        -0.0747
     21 O4          1.4751    0.4209   -1.4536 O.3       1 <0>        -0.3035
     22 C18         0.8611    1.6431   -1.0041 C.3       1 <0>         0.2115
     23 O5         -0.5224    1.2862   -0.8269 O.3       1 <0>        -0.3047
     24 C19         0.2600   -4.1900    2.5328 C.3       1 <0>        -0.0270
     25 C20         1.6338   -3.8306    3.0373 C.ar      1 <0>        -0.0072
     26 C21         2.3298   -4.7200    3.8344 C.ar      1 <0>        -0.2042
     27 C22         3.5965   -4.3954    4.2960 C.ar      1 <0>         0.1512
     28 C23         4.1613   -3.1693    3.9658 C.ar      1 <0>         0.0317
     29 C24         3.4558   -2.2755    3.1689 C.ar      1 <0>         0.1498
     30 C25         2.1922   -2.6102    2.7063 C.ar      1 <0>        -0.2212
     31 O6          4.0040   -1.0742    2.8434 O.3       1 <0>        -0.2997
     32 C26         3.1785   -0.1590    2.1203 C.3       1 <0>         0.0245
     33 O7          5.4019   -2.8447    4.4214 O.3       1 <0>        -0.3126
     34 C27         5.4754   -2.1708    5.6794 C.3       1 <0>         0.0358
     35 O8          4.2829   -5.2736    5.0752 O.3       1 <0>        -0.3013
     36 C28         3.6409   -6.5147    5.3743 C.3       1 <0>         0.0240
     37 O9          1.9057   -6.6651    1.4236 O.3       1 <0>        -0.5130
     38 H1         -5.0731   -8.7644    1.9481 H         1 <0>         0.0589
     39 H2         -4.2954  -10.2129    1.2660 H         1 <0>         0.0590
     40 H3         -5.3159  -10.3508    2.7179 H         1 <0>         0.1047
     41 H4         -1.2284   -8.8717    4.2368 H         1 <0>         0.1397
     42 H5          0.5627   -7.4679    3.2986 H         1 <0>         0.1399
     43 H6         -1.6924   -6.9748   -0.2880 H         1 <0>         0.1271
     44 H7         -3.4827   -8.3874    0.6383 H         1 <0>         0.1356
     45 H8         -1.9958   -2.8557    0.6160 H         1 <0>         0.1426
     46 H9         -2.4411   -0.4585    0.3040 H         1 <0>         0.1432
     47 H10         1.9133   -2.3458   -1.0620 H         1 <0>         0.1375
     48 H11         0.9618    2.4226   -1.7593 H         1 <0>         0.1354
     49 H12         1.2975    1.9657   -0.0588 H         1 <0>         0.0864
     50 H13        -0.3491   -3.2886    2.4639 H         1 <0>         0.1029
     51 H14        -0.2079   -4.8927    3.2222 H         1 <0>         0.1028
     52 H15         1.8881   -5.6705    4.0947 H         1 <0>         0.1363
     53 H16         1.6433   -1.9163    2.0869 H         1 <0>         0.1327
     54 H17         3.7154    0.7785    1.9759 H         1 <0>         0.1028
     55 H18         2.9259   -0.5863    1.1499 H         1 <0>         0.0564
     56 H19         2.2644    0.0289    2.6836 H         1 <0>         0.0556
     57 H20         5.0337   -2.7978    6.4539 H         1 <0>         0.0444
     58 H21         6.5186   -1.9713    5.9244 H         1 <0>         0.0927
     59 H22         4.9298   -1.2290    5.6194 H         1 <0>         0.0435
     60 H23         4.2951   -7.1202    6.0016 H         1 <0>         0.1023
     61 H24         2.7069   -6.3226    5.9024 H         1 <0>         0.0563
     62 H25         3.4311   -7.0480    4.4471 H         1 <0>         0.0605
     63 H26         2.1501   -7.5832    1.2432 H         1 <0>         0.3971
@<TRIPOS>BOND
     1    1    2 1
     2    1   38 1
     3    1   39 1
     4    1   40 1
     5    2    3 1
     6    3    8 ar
     7    3    4 ar
     8    4    5 ar
     9    4   41 1
    10    5    6 ar
    11    5   42 1
    12    6    7 ar
    13    6    9 1
    14    7    8 ar
    15    7   43 1
    16    8   44 1
    17    9   14 1
    18    9   10 1
    19    9   37 1
    20   10   11 2
    21   10   24 1
    22   11   12 1
    23   11   15 1
    24   12   13 2
    25   12   14 1
    26   15   20 ar
    27   15   16 ar
    28   16   17 ar
    29   16   45 1
    30   17   18 ar
    31   17   46 1
    32   18   23 1
    33   18   19 ar
    34   19   20 ar
    35   19   21 1
    36   20   47 1
    37   21   22 1
    38   22   23 1
    39   22   48 1
    40   22   49 1
    41   24   25 1
    42   24   50 1
    43   24   51 1
    44   25   30 ar
    45   25   26 ar
    46   26   27 ar
    47   26   52 1
    48   27   28 ar
    49   27   35 1
    50   28   29 ar
    51   28   33 1
    52   29   30 ar
    53   29   31 1
    54   30   53 1
    55   31   32 1
    56   32   54 1
    57   32   55 1
    58   32   56 1
    59   33   34 1
    60   34   57 1
    61   34   58 1
    62   34   59 1
    63   35   36 1
    64   36   60 1
    65   36   61 1
    66   36   62 1
    67   37   63 1
@<TRIPOS>MOLECULE
ZINC13740975
   63    67     0     0     0
SMALL
USER_CHARGES
(5S)-3-(1,3-benzodioxol-5-yl)-5-hydroxy-5-(4-methoxyphenyl)-4-[(3,4,5-trimethoxyphenyl)methyl]furan-2-one
@<TRIPOS>ATOM
      1 C1          4.7724    0.1638   -0.0441 C.3       1 <0>         0.0241
      2 O1          3.5855   -0.6319   -0.0371 O.3       1 <0>        -0.3128
      3 C2          2.3989    0.0304   -0.0212 C.ar      1 <0>         0.1491
      4 C3          1.2070   -0.6796   -0.0136 C.ar      1 <0>        -0.1494
      5 C4          0.0021   -0.0041    0.0020 C.ar      1 <0>        -0.0455
      6 C5         -0.0167    1.3784    0.0096 C.ar      1 <0>        -0.1730
      7 C6          1.1698    2.0883    0.0021 C.ar      1 <0>        -0.0460
      8 C7          2.3774    1.4175   -0.0131 C.ar      1 <0>        -0.2088
      9 C8         -1.3326    2.1128    0.0199 C.3       1 <0>         0.3572
     10 C9         -1.8034    2.3546   -1.3952 C.2       1 <0>        -0.0284
     11 C10        -2.9834    1.7238   -1.5236 C.2       1 <0>        -0.1469
     12 C11        -3.3238    1.0691   -0.2499 C.2       1 <0>         0.5134
     13 O2         -4.3298    0.4189   -0.0467 O.2       1 <0>        -0.4294
     14 O3         -2.3555    1.2972    0.6556 O.3       1 <0>        -0.3302
     15 C12        -3.8122    1.6939   -2.7538 C.ar      1 <0>        -0.0214
     16 C13        -3.3368    1.0602   -3.9005 C.ar      1 <0>        -0.0898
     17 C14        -4.1082    1.0328   -5.0442 C.ar      1 <0>        -0.0969
     18 C15        -5.3578    1.6342   -5.0571 C.ar      1 <0>         0.0431
     19 C16        -5.8382    2.2689   -3.9128 C.ar      1 <0>         0.0358
     20 C17        -5.0698    2.2942   -2.7630 C.ar      1 <0>        -0.0735
     21 O4         -7.0772    2.7749   -4.1826 O.3       1 <0>        -0.3048
     22 C18        -7.5211    2.0920   -5.3699 C.3       1 <0>         0.2121
     23 O5         -6.2966    1.7436   -6.0423 O.3       1 <0>        -0.3055
     24 C19        -1.0875    3.1492   -2.4568 C.3       1 <0>        -0.0267
     25 C20        -1.4289    4.6094   -2.3073 C.ar      1 <0>        -0.0082
     26 C21        -2.5157    5.1355   -2.9802 C.ar      1 <0>        -0.2208
     27 C22        -2.8366    6.4774   -2.8408 C.ar      1 <0>         0.1508
     28 C23        -2.0574    7.2958   -2.0318 C.ar      1 <0>         0.0313
     29 C24        -0.9621    6.7641   -1.3615 C.ar      1 <0>         0.1504
     30 C25        -0.6511    5.4202   -1.5021 C.ar      1 <0>        -0.2044
     31 O6         -0.1963    7.5610   -0.5691 O.3       1 <0>        -0.3013
     32 C26         0.9138    6.9471    0.0889 C.3       1 <0>         0.0245
     33 O7         -2.3662    8.6143   -1.8961 O.3       1 <0>        -0.3126
     34 C27        -1.7697    9.5195   -2.8271 C.3       1 <0>         0.0357
     35 O8         -3.9096    6.9928   -3.4985 O.3       1 <0>        -0.3006
     36 C28        -4.6651    6.0933   -4.3122 C.3       1 <0>         0.0265
     37 O9         -1.1955    3.3559    0.7112 O.3       1 <0>        -0.5133
     38 H1          4.7793    0.7983   -0.9304 H         1 <0>         0.0588
     39 H2          4.7971    0.7875    0.8494 H         1 <0>         0.0587
     40 H3          5.6464   -0.4875   -0.0568 H         1 <0>         0.1043
     41 H4          1.2211   -1.7595   -0.0203 H         1 <0>         0.1389
     42 H5         -0.9260   -0.5563    0.0079 H         1 <0>         0.1320
     43 H6          1.1525    3.1682    0.0077 H         1 <0>         0.1351
     44 H7          3.3039    1.9724   -0.0187 H         1 <0>         0.1365
     45 H8         -2.3641    0.5909   -3.8940 H         1 <0>         0.1429
     46 H9         -3.7377    0.5418   -5.9319 H         1 <0>         0.1431
     47 H10        -5.4424    2.7821   -1.8744 H         1 <0>         0.1374
     48 H11        -8.0830    1.1954   -5.1085 H         1 <0>         0.0880
     49 H12        -8.1234    2.7554   -5.9906 H         1 <0>         0.1354
     50 H13        -0.0114    3.0146   -2.3476 H         1 <0>         0.1019
     51 H14        -1.3989    2.8023   -3.4422 H         1 <0>         0.1030
     52 H15        -3.1182    4.4998   -3.6121 H         1 <0>         0.1336
     53 H16         0.1998    5.0062   -0.9816 H         1 <0>         0.1356
     54 H17         1.5941    6.5337   -0.6556 H         1 <0>         0.0553
     55 H18         1.4388    7.6918    0.6871 H         1 <0>         0.1018
     56 H19         0.5551    6.1475    0.7370 H         1 <0>         0.0604
     57 H20        -0.6843    9.4629   -2.7443 H         1 <0>         0.0440
     58 H21        -2.0714    9.2508   -3.8394 H         1 <0>         0.0439
     59 H22        -2.0984   10.5353   -2.6076 H         1 <0>         0.0926
     60 H23        -4.0211    5.6747   -5.0855 H         1 <0>         0.0557
     61 H24        -5.0603    5.2879   -3.6931 H         1 <0>         0.0574
     62 H25        -5.4904    6.6313   -4.7787 H         1 <0>         0.1032
     63 H26        -0.9085    3.2654    1.6302 H         1 <0>         0.3966
@<TRIPOS>BOND
     1    1    2 1
     2    1   38 1
     3    1   39 1
     4    1   40 1
     5    2    3 1
     6    3    8 ar
     7    3    4 ar
     8    4    5 ar
     9    4   41 1
    10    5    6 ar
    11    5   42 1
    12    6    7 ar
    13    6    9 1
    14    7    8 ar
    15    7   43 1
    16    8   44 1
    17    9   14 1
    18    9   10 1
    19    9   37 1
    20   10   11 2
    21   10   24 1
    22   11   12 1
    23   11   15 1
    24   12   13 2
    25   12   14 1
    26   15   20 ar
    27   15   16 ar
    28   16   17 ar
    29   16   45 1
    30   17   18 ar
    31   17   46 1
    32   18   23 1
    33   18   19 ar
    34   19   20 ar
    35   19   21 1
    36   20   47 1
    37   21   22 1
    38   22   23 1
    39   22   48 1
    40   22   49 1
    41   24   25 1
    42   24   50 1
    43   24   51 1
    44   25   30 ar
    45   25   26 ar
    46   26   27 ar
    47   26   52 1
    48   27   28 ar
    49   27   35 1
    50   28   29 ar
    51   28   33 1
    52   29   30 ar
    53   29   31 1
    54   30   53 1
    55   31   32 1
    56   32   54 1
    57   32   55 1
    58   32   56 1
    59   33   34 1
    60   34   57 1
    61   34   58 1
    62   34   59 1
    63   35   36 1
    64   36   60 1
    65   36   61 1
    66   36   62 1
    67   37   63 1
@<TRIPOS>MOLECULE
ZINC03812144
   75    78     0     0     0
SMALL
USER_CHARGES
4-benzo[1,3]dioxol-5-yl-1-(dibutylcarbamoylmethyl)-2-(4-methoxyphenyl)-pyrrolidine-3-carboxylic acid
@<TRIPOS>ATOM
      1 C1          0.9498    0.9127    6.1925 C.3       1 <0>        -0.1547
      2 C2          1.4487    1.9314    5.1658 C.3       1 <0>        -0.1218
      3 C3          2.9242    1.6664    4.8598 C.3       1 <0>        -0.1414
      4 C4          3.4231    2.6851    3.8331 C.3       1 <0>         0.0947
      5 N1          4.8359    2.4314    3.5401 N.am      1 <0>        -0.5904
      6 C5          5.8779    3.0876    4.3337 C.3       1 <0>         0.1109
      7 C6          6.2477    4.4231    3.6852 C.3       1 <0>        -0.1341
      8 C7          7.3360    5.1084    4.5141 C.3       1 <0>        -0.1225
      9 C8          7.7058    6.4440    3.8656 C.3       1 <0>        -0.1534
     10 C9          5.1770    1.5942    2.5404 C.2       1 <0>         0.5035
     11 O1          6.3466    1.3841    2.2979 O.2       1 <0>        -0.5231
     12 C10         4.1051    0.9192    1.7241 C.3       1 <0>        -0.0256
     13 C11         5.2114    0.8721   -0.4443 C.3       1 <0>        -0.0107
     14 C12         5.3321   -0.1707   -1.5838 C.3       1 <0>        -0.0381
     15 H1          6.2642   -0.7294   -1.4983 H         1 <0>         0.1169
     16 C13         4.1166   -1.0938   -1.3378 C.3       1 <0>        -0.1352
     17 H2          3.2821   -0.8008   -1.9749 H         1 <0>         0.1149
     18 C14         3.7530   -0.8934    0.1451 C.3       1 <0>         0.0779
     19 H3          3.8150   -1.8442    0.6744 H         1 <0>         0.1699
     20 C15         2.3593   -0.3318    0.2606 C.ar      1 <0>        -0.1581
     21 C16         1.3712   -1.0623    0.8944 C.ar      1 <0>        -0.0434
     22 C17         0.0927   -0.5499    1.0011 C.ar      1 <0>        -0.1410
     23 C18        -0.1993    0.6987    0.4718 C.ar      1 <0>         0.1506
     24 C19         0.7939    1.4297   -0.1637 C.ar      1 <0>        -0.2016
     25 C20         2.0708    0.9129   -0.2678 C.ar      1 <0>        -0.0893
     26 O2         -1.4576    1.2025    0.5706 O.3       1 <0>        -0.3100
     27 C21        -1.6858    2.4939    0.0029 C.3       1 <0>         0.0234
     28 C22         4.4905   -2.5308   -1.5951 C.2       1 <0>         0.4678
     29 O3          4.4730   -3.3310   -0.6900 O.co2     1 <0>        -0.6261
     30 C23         5.2306    0.4972   -2.9309 C.ar      1 <0>        -0.0557
     31 C24         4.1485    1.3079   -3.2190 C.ar      1 <0>        -0.1146
     32 C25         4.0532    1.9264   -4.4516 C.ar      1 <0>        -0.0972
     33 C26         5.0380    1.7268   -5.4055 C.ar      1 <0>         0.0362
     34 C27         6.1254    0.9058   -5.1172 C.ar      1 <0>         0.0412
     35 C28         6.2168    0.2932   -3.8779 C.ar      1 <0>        -0.0669
     36 O4          6.9464    0.8704   -6.2071 O.3       1 <0>        -0.3041
     37 C29         6.5617    1.9985   -7.0150 C.3       1 <0>         0.2126
     38 O5          5.1777    2.2057   -6.6761 O.3       1 <0>        -0.3079
     39 H4         -0.1014    1.1015    6.4105 H         1 <0>         0.0586
     40 H5          1.0622   -0.0939    5.7898 H         1 <0>         0.0559
     41 H6          1.5331    1.0047    7.1087 H         1 <0>         0.0553
     42 H7          1.3363    2.9380    5.5685 H         1 <0>         0.0660
     43 H8          0.8654    1.8394    4.2496 H         1 <0>         0.0650
     44 H9          3.0366    0.6598    4.4571 H         1 <0>         0.0651
     45 H10         3.5075    1.7584    5.7760 H         1 <0>         0.0742
     46 H11         3.3106    3.6917    4.2358 H         1 <0>         0.0946
     47 H12         2.8398    2.5931    2.9169 H         1 <0>         0.0810
     48 H13         5.5082    3.2641    5.3438 H         1 <0>         0.0868
     49 H14         6.7594    2.4478    4.3760 H         1 <0>         0.0918
     50 H15         6.6174    4.2465    2.6752 H         1 <0>         0.0673
     51 H16         5.3663    5.0629    3.6429 H         1 <0>         0.0650
     52 H17         6.9663    5.2850    5.5242 H         1 <0>         0.0644
     53 H18         8.2174    4.4687    4.5564 H         1 <0>         0.0659
     54 H19         8.0755    6.2674    2.8555 H         1 <0>         0.0545
     55 H20         6.8243    7.0837    3.8233 H         1 <0>         0.0539
     56 H21         8.4811    6.9322    4.4561 H         1 <0>         0.0578
     57 H22         3.4899    1.6751    1.2361 H         1 <0>         0.1524
     58 H23         3.4811    0.3091    2.3772 H         1 <0>         0.1571
     59 H24         6.1826    1.3151   -0.2238 H         1 <0>         0.1444
     60 H25         4.4879    1.6446   -0.7048 H         1 <0>         0.1266
     61 H26         1.5989   -2.0345    1.3060 H         1 <0>         0.1445
     62 H27        -0.6789   -1.1211    1.4960 H         1 <0>         0.1420
     63 H28         0.5690    2.4019   -0.5769 H         1 <0>         0.1373
     64 H29         2.8444    1.4817   -0.7621 H         1 <0>         0.1254
     65 H30        -1.0389    3.2241    0.4893 H         1 <0>         0.0579
     66 H31        -1.4644    2.4661   -1.0640 H         1 <0>         0.0601
     67 H32        -2.7281    2.7767    0.1504 H         1 <0>         0.1056
     68 H33         3.3777    1.4613   -2.4782 H         1 <0>         0.1291
     69 H34         3.2088    2.5625   -4.6725 H         1 <0>         0.1367
     70 H35         7.0591   -0.3436   -3.6514 H         1 <0>         0.1411
     71 H36         7.1550    2.8754   -6.7557 H         1 <0>         0.0853
     72 H37         6.6682    1.7650   -8.0743 H         1 <0>         0.1337
     73 N2          4.7351    0.0571    0.6793 N.4       1 <0>        -0.3729
     74 H38         5.5228   -0.4539    1.0947 H         1 <0>         0.4398
     75 O6          4.8430   -2.9218   -2.8299 O.co2     1 <0>        -0.7221
@<TRIPOS>BOND
     1    1    2 1
     2    1   39 1
     3    1   40 1
     4    1   41 1
     5    2    3 1
     6    2   42 1
     7    2   43 1
     8    3    4 1
     9    3   44 1
    10    3   45 1
    11    4    5 1
    12    4   46 1
    13    4   47 1
    14    5    6 1
    15    5   10 am
    16    6    7 1
    17    6   48 1
    18    6   49 1
    19    7    8 1
    20    7   50 1
    21    7   51 1
    22    8    9 1
    23    8   52 1
    24    8   53 1
    25    9   54 1
    26    9   55 1
    27    9   56 1
    28   10   11 2
    29   10   12 1
    30   12   57 1
    31   12   58 1
    32   12   73 1
    33   13   14 1
    34   13   59 1
    35   13   60 1
    36   13   73 1
    37   14   15 1
    38   14   16 1
    39   14   30 1
    40   16   17 1
    41   16   18 1
    42   16   28 1
    43   18   19 1
    44   18   20 1
    45   18   73 1
    46   20   25 ar
    47   20   21 ar
    48   21   22 ar
    49   21   61 1
    50   22   23 ar
    51   22   62 1
    52   23   24 ar
    53   23   26 1
    54   24   25 ar
    55   24   63 1
    56   25   64 1
    57   26   27 1
    58   27   65 1
    59   27   66 1
    60   27   67 1
    61   28   29 2
    62   28   75 1
    63   30   35 ar
    64   30   31 ar
    65   31   32 ar
    66   31   68 1
    67   32   33 ar
    68   32   69 1
    69   33   38 1
    70   33   34 ar
    71   34   35 ar
    72   34   36 1
    73   35   70 1
    74   36   37 1
    75   37   38 1
    76   37   71 1
    77   37   72 1
    78   73   74 1
