@<TRIPOS>MOLECULE
ZINC60291636
   85    88     0     0     0
SMALL
USER_CHARGES

@<TRIPOS>ATOM
      1 C1         -5.4025    1.3849   -3.9242 C.3       1 <0>        -0.1458
      2 C2         -5.2204   -0.0231   -3.3538 C.3       1 <0>        -0.0937
      3 C3         -6.2892   -0.2849   -2.2908 C.3       1 <0>        -0.1500
      4 C4         -5.3576   -1.0508   -4.4789 C.3       1 <0>        -0.1115
      5 C5         -5.0533   -2.4450   -3.9348 C.3       1 <0>         0.1291
      6 H1         -5.6984   -2.6505   -3.0756 H         1 <0>         0.1034
      7 C6         -5.2929   -3.4912   -4.9968 C.2       1 <0>         0.5124
      8 O1         -5.5322   -3.1620   -6.1381 O.2       1 <0>        -0.4913
      9 N1         -5.2381   -4.8034   -4.6427 N.am      1 <0>        -0.7150
     10 C7         -5.3319   -5.7933   -5.7393 C.3       1 <0>         0.1345
     11 H2         -5.6043   -5.3024   -6.6716 H         1 <0>         0.1151
     12 C8         -3.9719   -6.4354   -5.8765 C.2       1 <0>         0.5193
     13 O2         -3.4704   -6.9977   -4.9264 O.2       1 <0>        -0.5415
     14 N2         -3.3204   -6.3791   -7.0754 N.am      1 <0>        -0.6769
     15 C9         -1.9388   -6.9353   -7.0587 C.3       1 <0>         0.1669
     16 H3         -1.8718   -7.7574   -6.3527 H         1 <0>         0.1139
     17 C10        -1.0174   -5.8129   -6.6450 C.2       1 <0>         0.5118
     18 O3         -1.3656   -4.6731   -6.9004 O.2       1 <0>        -0.5050
     19 N3          0.1576   -6.0399   -6.0422 N.am      1 <0>        -0.6094
     20 C11         0.9208   -7.2957   -6.0527 C.3       1 <0>         0.0975
     21 C12         2.4044   -6.9253   -5.9381 C.3       1 <0>        -0.1325
     22 C13         2.4269   -5.4154   -5.6746 C.3       1 <0>        -0.1229
     23 C14         0.9753   -5.0816   -5.2837 C.3       1 <0>         0.1033
     24 H4          0.8822   -5.2680   -4.2168 H         1 <0>         0.1079
     25 C15         0.6480   -3.6731   -5.6412 C.2       1 <0>         0.5468
     26 O4          1.5306   -3.0220   -6.2170 O.2       1 <0>        -0.5431
     27 N4         -0.5095   -3.0232   -5.4052 N.am      1 <0>        -0.7071
     28 C16        -1.3020   -3.1105   -4.1741 C.3       1 <0>         0.1432
     29 H5         -0.9074   -2.4160   -3.4228 H         1 <0>         0.0848
     30 C17        -2.7172   -2.6823   -4.5120 C.2       1 <0>         0.5043
     31 O5         -2.9961   -2.4645   -5.6704 O.2       1 <0>        -0.4704
     32 N5         -3.6354   -2.5500   -3.5210 N.am      1 <0>        -0.7349
     33 C18        -1.3762   -4.5090   -3.5693 C.3       1 <0>        -0.1127
     34 C19        -0.2453   -4.6862   -2.5540 C.3       1 <0>        -0.1539
     35 C20        -2.7239   -4.6907   -2.8683 C.3       1 <0>        -0.1647
     36 C21        -1.5751   -7.4153   -8.4656 C.3       1 <0>        -0.1919
     37 C22        -2.4683   -8.5665   -8.8503 C.2       1 <0>         0.4966
     38 O6         -3.3171   -8.9661   -8.0716 O.co2     1 <0>        -0.6797
     39 O7         -2.3422   -9.0982   -9.9402 O.co2     1 <0>        -0.6992
     40 C23        -6.3722   -6.8601   -5.3900 C.3       1 <0>        -0.0453
     41 C24        -7.7369   -6.2254   -5.3146 C.2       1 <0>        -0.1502
     42 C25        -8.3459   -5.7704   -4.2083 C.2       1 <0>         0.0490
     43 N6         -9.5749   -5.2608   -4.5282 N.pl3     1 <0>        -0.5972
     44 H6        -10.1999   -4.8743   -3.8950 H         1 <0>         0.4120
     45 C26        -9.7922   -5.3785   -5.8827 C.ar      1 <0>         0.0970
     46 C27        -8.6478   -5.9821   -6.4358 C.ar      1 <0>        -0.0965
     47 C28        -8.5825   -6.2238   -7.8090 C.ar      1 <0>        -0.0625
     48 C29        -9.6308   -5.8690   -8.6109 C.ar      1 <0>        -0.1477
     49 C30       -10.7601   -5.2697   -8.0709 C.ar      1 <0>        -0.0980
     50 C31       -10.8494   -5.0304   -6.7168 C.ar      1 <0>        -0.1376
     51 H7         -5.3048    2.1171   -3.1227 H         1 <0>         0.0525
     52 H8         -4.6411    1.5714   -4.6815 H         1 <0>         0.0550
     53 H9         -6.3914    1.4693   -4.3748 H         1 <0>         0.0543
     54 H10        -4.2315   -0.1075   -2.9033 H         1 <0>         0.0693
     55 H11        -7.2781   -0.2005   -2.7414 H         1 <0>         0.0549
     56 H12        -6.1595   -1.2880   -1.8845 H         1 <0>         0.0528
     57 H13        -6.1914    0.4473   -1.4893 H         1 <0>         0.0537
     58 H14        -6.3747   -1.0276   -4.8702 H         1 <0>         0.0751
     59 H15        -4.6555   -0.8112   -5.2775 H         1 <0>         0.0866
     60 H16        -5.1449   -5.0771   -3.7136 H         1 <0>         0.4062
     61 H17        -3.7227   -6.0063   -7.8776 H         1 <0>         0.4107
     62 H18         0.6302   -7.9042   -5.2005 H         1 <0>         0.0733
     63 H19         0.7516   -7.8280   -6.9821 H         1 <0>         0.0840
     64 H20         2.8587   -7.4568   -5.1050 H         1 <0>         0.0796
     65 H21         2.9189   -7.1505   -6.8690 H         1 <0>         0.0795
     66 H22         3.0941   -5.1832   -4.8516 H         1 <0>         0.0809
     67 H23         2.7021   -4.8804   -6.5773 H         1 <0>         0.0896
     68 H24        -0.8476   -2.4233   -6.1368 H         1 <0>         0.4214
     69 H25        -3.3772   -2.5213   -2.5807 H         1 <0>         0.4121
     70 H26        -1.2746   -5.2526   -4.3597 H         1 <0>         0.0989
     71 H27        -0.4856   -4.1380   -1.6431 H         1 <0>         0.0614
     72 H28        -0.1288   -5.7446   -2.3210 H         1 <0>         0.0662
     73 H29         0.6841   -4.3024   -2.9747 H         1 <0>         0.0568
     74 H30        -3.5303   -4.5235   -3.5823 H         1 <0>         0.0867
     75 H31        -2.7937   -5.7037   -2.4719 H         1 <0>         0.0651
     76 H32        -2.8079   -3.9742   -2.0511 H         1 <0>         0.0491
     77 H33        -1.7098   -6.5983   -9.1744 H         1 <0>         0.0686
     78 H34        -0.5351   -7.7416   -8.4807 H         1 <0>         0.0721
     79 H35        -6.3727   -7.6326   -6.1589 H         1 <0>         0.0936
     80 H36        -6.1254   -7.3066   -4.4267 H         1 <0>         0.0828
     81 H37        -7.9279   -5.8021   -3.2129 H         1 <0>         0.1641
     82 H38        -7.7066   -6.6891   -8.2363 H         1 <0>         0.1250
     83 H39        -9.5798   -6.0562   -9.6733 H         1 <0>         0.1217
     84 H40       -11.5801   -4.9944   -8.7176 H         1 <0>         0.1214
     85 H41       -11.7319   -4.5624   -6.3064 H         1 <0>         0.1148
@<TRIPOS>BOND
     1    1    2 1
     2    1   51 1
     3    1   52 1
     4    1   53 1
     5    2    3 1
     6    2    4 1
     7    2   54 1
     8    3   55 1
     9    3   56 1
    10    3   57 1
    11    4    5 1
    12    4   58 1
    13    4   59 1
    14    5    6 1
    15    5   32 1
    16    5    7 1
    17    7    8 2
    18    7    9 am
    19    9   10 1
    20    9   60 1
    21   10   11 1
    22   10   12 1
    23   10   40 1
    24   12   13 2
    25   12   14 am
    26   14   15 1
    27   14   61 1
    28   15   16 1
    29   15   17 1
    30   15   36 1
    31   17   18 2
    32   17   19 am
    33   19   23 1
    34   19   20 1
    35   20   21 1
    36   20   62 1
    37   20   63 1
    38   21   22 1
    39   21   64 1
    40   21   65 1
    41   22   23 1
    42   22   66 1
    43   22   67 1
    44   23   24 1
    45   23   25 1
    46   25   26 2
    47   25   27 am
    48   27   28 1
    49   27   68 1
    50   28   29 1
    51   28   30 1
    52   28   33 1
    53   30   31 2
    54   30   32 am
    55   32   69 1
    56   33   34 1
    57   33   35 1
    58   33   70 1
    59   34   71 1
    60   34   72 1
    61   34   73 1
    62   35   74 1
    63   35   75 1
    64   35   76 1
    65   36   37 1
    66   36   77 1
    67   36   78 1
    68   37   38 2
    69   37   39 1
    70   40   41 1
    71   40   79 1
    72   40   80 1
    73   41   46 1
    74   41   42 2
    75   42   43 1
    76   42   81 1
    77   43   44 1
    78   43   45 1
    79   45   50 ar
    80   45   46 ar
    81   46   47 ar
    82   47   48 ar
    83   47   82 1
    84   48   49 ar
    85   48   83 1
    86   49   50 ar
    87   49   84 1
    88   50   85 1
@<TRIPOS>MOLECULE
ZINC01538857
   67    70     0     0     0
SMALL
USER_CHARGES

@<TRIPOS>ATOM
      1 C1         -0.0187    1.5258    0.0104 C.3       1 <0>        -0.1382
      2 C2          0.0021   -0.0041    0.0020 C.3       1 <0>        -0.0336
      3 C3          0.7421   -0.5109    1.2415 C.3       1 <0>        -0.1381
      4 C4         -1.4333   -0.5336    0.0129 C.3       1 <0>        -0.1445
      5 C5          0.7074   -0.4901   -1.2379 C.ar      1 <0>        -0.0354
      6 C6          0.0361   -1.2843   -2.1485 C.ar      1 <0>        -0.1476
      7 C7          0.6831   -1.7301   -3.2859 C.ar      1 <0>        -0.0191
      8 C8          2.0014   -1.3813   -3.5127 C.ar      1 <0>        -0.6294
      9 C9          2.6724   -0.5863   -2.6025 C.ar      1 <0>        -0.0193
     10 C10         2.0241   -0.1370   -1.4673 C.ar      1 <0>        -0.1421
     11 S1          2.8264   -1.9505   -4.9618 S.o2      1 <0>         2.6326
     12 O1          4.2169   -1.9365   -4.6694 O.2       1 <0>        -1.0088
     13 O2          2.1477   -3.1268   -5.3801 O.2       1 <0>        -1.0083
     14 N1          2.5798   -0.8164   -6.1431 N.2       1 <0>        -1.0341
     15 C11         3.1213   -1.0025   -7.4082 C.ar      1 <0>         0.4864
     16 C12         2.9242   -0.0487   -8.4114 C.ar      1 <0>        -0.0858
     17 C13         3.4885   -0.2805   -9.6652 C.ar      1 <0>         0.3658
     18 N2          4.1886   -1.3910   -9.8627 N.ar      1 <0>        -0.5868
     19 C14         4.3546   -2.2729   -8.8879 C.ar      1 <0>         0.4316
     20 N3          3.8386   -2.0865   -7.6813 N.ar      1 <0>        -0.5766
     21 C15         5.1445   -3.5012   -9.1529 C.ar      1 <0>         0.3858
     22 N4          5.6700   -3.6854  -10.3558 N.ar      1 <0>        -0.4764
     23 C16         6.3788   -4.7680  -10.6251 C.ar      1 <0>         0.1378
     24 C17         6.5692   -5.7165   -9.6309 C.ar      1 <0>        -0.2285
     25 C18         6.0051   -5.4919   -8.3836 C.ar      1 <0>         0.1431
     26 N5          5.3120   -4.3852   -8.1794 N.ar      1 <0>        -0.4640
     27 O3          3.3238    0.6161  -10.6697 O.3       1 <0>        -0.2846
     28 C19         3.9337    0.3046  -11.9239 C.3       1 <0>         0.0698
     29 C20         3.6412    1.4238  -12.9252 C.3       1 <0>         0.0778
     30 O4          4.2702    2.6302  -12.4883 O.3       1 <0>        -0.5631
     31 O5          2.1999    1.0769   -8.1704 O.3       1 <0>        -0.1988
     32 C21         2.8591    2.1742   -7.7125 C.ar      1 <0>         0.1327
     33 C22         4.2295    2.1271   -7.5099 C.ar      1 <0>        -0.1513
     34 C23         4.8981    3.2439   -7.0447 C.ar      1 <0>        -0.1158
     35 C24         4.2029    4.4094   -6.7801 C.ar      1 <0>        -0.1338
     36 C25         2.8359    4.4632   -6.9795 C.ar      1 <0>        -0.1781
     37 C26         2.1602    3.3494   -7.4515 C.ar      1 <0>         0.0921
     38 O6          0.8166    3.4025   -7.6540 O.3       1 <0>        -0.3032
     39 C27         0.1654    4.6412   -7.3649 C.3       1 <0>         0.0300
     40 H1          1.0039    1.9031    0.0027 H         1 <0>         0.0583
     41 H2         -0.5459    1.8868   -0.8726 H         1 <0>         0.0582
     42 H3         -0.5289    1.8773    0.9072 H         1 <0>         0.0573
     43 H4          0.2319   -0.1594    2.1383 H         1 <0>         0.0576
     44 H5          0.7568   -1.6008    1.2356 H         1 <0>         0.0567
     45 H6          1.7647   -0.1336    1.2338 H         1 <0>         0.0582
     46 H7         -1.9605   -0.1726   -0.8702 H         1 <0>         0.0606
     47 H8         -1.4185   -1.6235    0.0069 H         1 <0>         0.0594
     48 H9         -1.9435   -0.1821    0.9097 H         1 <0>         0.0568
     49 H10        -0.9938   -1.5568   -1.9713 H         1 <0>         0.1293
     50 H11         0.1588   -2.3512   -3.9970 H         1 <0>         0.1351
     51 H12         3.7024   -0.3141   -2.7796 H         1 <0>         0.1344
     52 H13         2.5473    0.4872   -0.7580 H         1 <0>         0.1235
     53 H14         6.8041   -4.9126  -11.6072 H         1 <0>         0.1694
     54 H15         7.1437   -6.6105   -9.8238 H         1 <0>         0.1470
     55 H16         6.1342   -6.2107   -7.5879 H         1 <0>         0.1709
     56 H17         5.0112    0.2091  -11.7902 H         1 <0>         0.0737
     57 H18         3.5296   -0.6350  -12.3009 H         1 <0>         0.0814
     58 H19         4.0297    1.1456  -13.9049 H         1 <0>         0.0645
     59 H20         2.5644    1.5792  -12.9922 H         1 <0>         0.0548
     60 H21         4.1268    3.3840  -13.0768 H         1 <0>         0.3753
     61 H22         4.7748    1.2177   -7.7151 H         1 <0>         0.1227
     62 H23         5.9659    3.2059   -6.8872 H         1 <0>         0.1185
     63 H24         4.7289    5.2797   -6.4164 H         1 <0>         0.1181
     64 H25         2.2954    5.3748   -6.7716 H         1 <0>         0.1266
     65 H26         0.5872    5.4280   -7.9903 H         1 <0>         0.0486
     66 H27        -0.9012    4.5474   -7.5691 H         1 <0>         0.0938
     67 H28         0.3136    4.8932   -6.3148 H         1 <0>         0.0495
@<TRIPOS>BOND
     1    1    2 1
     2    1   40 1
     3    1   41 1
     4    1   42 1
     5    2    3 1
     6    2    4 1
     7    2    5 1
     8    3   43 1
     9    3   44 1
    10    3   45 1
    11    4   46 1
    12    4   47 1
    13    4   48 1
    14    5   10 ar
    15    5    6 ar
    16    6    7 ar
    17    6   49 1
    18    7    8 ar
    19    7   50 1
    20    8    9 ar
    21    8   11 1
    22    9   10 ar
    23    9   51 1
    24   10   52 1
    25   11   12 2
    26   11   13 2
    27   11   14 1
    28   14   15 1
    29   15   20 ar
    30   15   16 ar
    31   16   17 ar
    32   16   31 1
    33   17   18 ar
    34   17   27 1
    35   18   19 ar
    36   19   20 ar
    37   19   21 1
    38   21   26 ar
    39   21   22 ar
    40   22   23 ar
    41   23   24 ar
    42   23   53 1
    43   24   25 ar
    44   24   54 1
    45   25   26 ar
    46   25   55 1
    47   27   28 1
    48   28   29 1
    49   28   56 1
    50   28   57 1
    51   29   30 1
    52   29   58 1
    53   29   59 1
    54   30   60 1
    55   31   32 1
    56   32   37 ar
    57   32   33 ar
    58   33   34 ar
    59   33   61 1
    60   34   35 ar
    61   34   62 1
    62   35   36 ar
    63   35   63 1
    64   36   37 ar
    65   36   64 1
    66   37   38 1
    67   38   39 1
    68   39   65 1
    69   39   66 1
    70   39   67 1
@<TRIPOS>MOLECULE
ZINC01891205
   77    81     0     0     0
SMALL
USER_CHARGES
2-[2-[(3,5-dimethylbenzoyl)-methyl-amino]-3-(4-phenylphenyl)-propanoyl]amino-3-(1H-indol-3-yl)propanoic acid
@<TRIPOS>ATOM
      1 C1          2.7331   -5.9532    4.1900 C.3       1 <0>        -0.1120
      2 C2          3.1519   -4.5719    4.6231 C.ar      1 <0>        -0.0954
      3 C3          2.7435   -4.0797    5.8500 C.ar      1 <0>        -0.1006
      4 C4          3.1235   -2.8125    6.2552 C.ar      1 <0>        -0.0941
      5 C5          3.9134   -2.0314    5.4372 C.ar      1 <0>        -0.0655
      6 C6          4.3289   -2.5219    4.1982 C.ar      1 <0>        -0.1155
      7 C7          3.9372   -3.7988    3.7931 C.ar      1 <0>        -0.1365
      8 C8          5.1751   -1.6900    3.3163 C.2       1 <0>         0.5647
      9 O1          5.2639   -0.4935    3.5112 O.2       1 <0>        -0.5297
     10 N1          5.8480   -2.2584    2.2962 N.am      1 <0>        -0.5809
     11 C9          5.6023   -3.6599    1.9472 C.3       1 <0>         0.0723
     12 C10         6.8251   -1.4748    1.5363 C.3       1 <0>         0.1337
     13 H1          6.8064   -0.4402    1.8787 H         1 <0>         0.1211
     14 C11         6.4735   -1.5260    0.0482 C.3       1 <0>        -0.0863
     15 C12         5.1502   -0.8417   -0.1792 C.ar      1 <0>        -0.0623
     16 C13         5.1134    0.5136   -0.4532 C.ar      1 <0>        -0.1050
     17 C14         3.9043    1.1453   -0.6627 C.ar      1 <0>        -0.1037
     18 C15         2.7193    0.4154   -0.5972 C.ar      1 <0>        -0.0554
     19 C16         2.7618   -0.9485   -0.3152 C.ar      1 <0>        -0.1065
     20 C17         3.9769   -1.5713   -0.1135 C.ar      1 <0>        -0.1085
     21 C18         1.4163    1.0892   -0.8211 C.ar      1 <0>        -0.0359
     22 C19         0.2312    0.3592   -0.7556 C.ar      1 <0>        -0.1136
     23 C20        -0.9776    0.9900   -0.9693 C.ar      1 <0>        -0.1180
     24 C21        -1.0148    2.3465   -1.2377 C.ar      1 <0>        -0.1249
     25 C22         0.1586    3.0760   -1.3039 C.ar      1 <0>        -0.1175
     26 C23         1.3733    2.4543   -1.0970 C.ar      1 <0>        -0.1129
     27 C24         8.2025   -2.0488    1.7471 C.2       1 <0>         0.5102
     28 O2          8.3306   -3.1889    2.1406 O.2       1 <0>        -0.5385
     29 N2          9.2919   -1.2953    1.4983 N.am      1 <0>        -0.6873
     30 C25        10.6309   -1.8533    1.7032 C.3       1 <0>         0.1125
     31 H2         10.6268   -2.9121    1.4441 H         1 <0>         0.0875
     32 C26        11.6329   -1.1145    0.8138 C.3       1 <0>        -0.0404
     33 C27        11.3086   -1.3775   -0.6342 C.2       1 <0>        -0.1506
     34 C28        11.8537   -2.3232   -1.4154 C.2       1 <0>         0.0465
     35 N3         11.3121   -2.2609   -2.6705 N.pl3     1 <0>        -0.5977
     36 H3         11.5485   -2.8437   -3.4090 H         1 <0>         0.4123
     37 C29        10.3815   -1.2478   -2.7289 C.ar      1 <0>         0.0953
     38 C30        10.3342   -0.6537   -1.4543 C.ar      1 <0>        -0.0932
     39 C31         9.4721    0.4182   -1.2171 C.ar      1 <0>        -0.0720
     40 C32         8.6696    0.8789   -2.2229 C.ar      1 <0>        -0.1482
     41 C33         8.7083    0.2925   -3.4803 C.ar      1 <0>        -0.1012
     42 C34         9.5557   -0.7631   -3.7377 C.ar      1 <0>        -0.1321
     43 C35        11.0269   -1.6913    3.1482 C.2       1 <0>         0.4572
     44 O3         10.2685   -1.1639    3.9269 O.co2     1 <0>        -0.6247
     45 C36         2.6740   -2.2846    7.5932 C.3       1 <0>        -0.1127
     46 H4          1.7896   -5.8935    3.6475 H         1 <0>         0.0690
     47 H5          3.4989   -6.3783    3.5412 H         1 <0>         0.0678
     48 H6          2.6080   -6.5869    5.0680 H         1 <0>         0.0656
     49 H7          2.1256   -4.6874    6.4944 H         1 <0>         0.1217
     50 H8          4.2100   -1.0427    5.7549 H         1 <0>         0.1323
     51 H9          4.2516   -4.1824    2.8337 H         1 <0>         0.1698
     52 H10         6.3250   -3.9794    1.1964 H         1 <0>         0.0846
     53 H11         5.7057   -4.2796    2.8379 H         1 <0>         0.0824
     54 H12         4.5934   -3.7634    1.5477 H         1 <0>         0.0621
     55 H13         6.4051   -2.5652   -0.2735 H         1 <0>         0.0815
     56 H14         7.2485   -1.0182   -0.5259 H         1 <0>         0.0954
     57 H15         6.0326    1.0785   -0.5037 H         1 <0>         0.1257
     58 H16         3.8767    2.2036   -0.8766 H         1 <0>         0.1232
     59 H17         1.8460   -1.5181   -0.2589 H         1 <0>         0.1209
     60 H18         4.0114   -2.6293    0.1005 H         1 <0>         0.1200
     61 H19         0.2589   -0.6992   -0.5425 H         1 <0>         0.1239
     62 H20        -1.8964    0.4244   -0.9229 H         1 <0>         0.1219
     63 H21        -1.9631    2.8369   -1.4006 H         1 <0>         0.1202
     64 H22         0.1241    4.1340   -1.5182 H         1 <0>         0.1225
     65 H23         2.2889    3.0247   -1.1492 H         1 <0>         0.1254
     66 H24         9.1894   -0.3835    1.1836 H         1 <0>         0.3888
     67 H25        11.5733   -0.0441    1.0109 H         1 <0>         0.0689
     68 H26        12.6408   -1.4682    1.0305 H         1 <0>         0.0954
     69 H27        12.6083   -3.0286   -1.1002 H         1 <0>         0.1704
     70 H28         9.4363    0.8792   -0.2411 H         1 <0>         0.1174
     71 H29         7.9997    1.7055   -2.0377 H         1 <0>         0.1194
     72 H30         8.0676    0.6673   -4.2648 H         1 <0>         0.1198
     73 H31         9.5783   -1.2128   -4.7193 H         1 <0>         0.1140
     74 H32         1.7232   -1.7643    7.4777 H         1 <0>         0.0697
     75 H33         2.5517   -3.1148    8.2889 H         1 <0>         0.0660
     76 H34         3.4220   -1.5930    7.9808 H         1 <0>         0.0687
     77 O4         12.2221   -2.1330    3.5700 O.co2     1 <0>        -0.7677
@<TRIPOS>BOND
     1    1    2 1
     2    1   46 1
     3    1   47 1
     4    1   48 1
     5    2    7 ar
     6    2    3 ar
     7    3    4 ar
     8    3   49 1
     9    4    5 ar
    10    4   45 1
    11    5    6 ar
    12    5   50 1
    13    6    7 ar
    14    6    8 1
    15    7   51 1
    16    8    9 2
    17    8   10 am
    18   10   11 1
    19   10   12 1
    20   11   52 1
    21   11   53 1
    22   11   54 1
    23   12   13 1
    24   12   14 1
    25   12   27 1
    26   14   15 1
    27   14   55 1
    28   14   56 1
    29   15   20 ar
    30   15   16 ar
    31   16   17 ar
    32   16   57 1
    33   17   18 ar
    34   17   58 1
    35   18   19 ar
    36   18   21 1
    37   19   20 ar
    38   19   59 1
    39   20   60 1
    40   21   26 ar
    41   21   22 ar
    42   22   23 ar
    43   22   61 1
    44   23   24 ar
    45   23   62 1
    46   24   25 ar
    47   24   63 1
    48   25   26 ar
    49   25   64 1
    50   26   65 1
    51   27   28 2
    52   27   29 am
    53   29   30 1
    54   29   66 1
    55   30   31 1
    56   30   32 1
    57   30   43 1
    58   32   33 1
    59   32   67 1
    60   32   68 1
    61   33   38 1
    62   33   34 2
    63   34   35 1
    64   34   69 1
    65   35   36 1
    66   35   37 1
    67   37   42 ar
    68   37   38 ar
    69   38   39 ar
    70   39   40 ar
    71   39   70 1
    72   40   41 ar
    73   40   71 1
    74   41   42 ar
    75   41   72 1
    76   42   73 1
    77   43   44 2
    78   43   77 1
    79   45   74 1
    80   45   75 1
    81   45   76 1
