@<TRIPOS>MOLECULE
ZINC13740974
   63    67     0     0     0
SMALL
USER_CHARGES
(5R)-3-(1,3-benzodioxol-5-yl)-5-hydroxy-5-(4-methoxyphenyl)-4-[(3,4,5-trimethoxyphenyl)methyl]furan-2-one
@<TRIPOS>ATOM
      1 C1         -4.6039   -9.7187    2.1873 C.3       1 <0>         0.0237
      2 O1         -3.4596   -9.4932    3.0129 O.3       1 <0>        -0.3129
      3 C2         -2.4693   -8.7186    2.4968 C.ar      1 <0>         0.1490
      4 C3         -1.3297   -8.4586    3.2440 C.ar      1 <0>        -0.1513
      5 C4         -0.3247   -7.6706    2.7173 C.ar      1 <0>        -0.0476
      6 C5         -0.4542   -7.1407    1.4468 C.ar      1 <0>        -0.1724
      7 C6         -1.5915   -7.3937    0.7023 C.ar      1 <0>        -0.0438
      8 C7         -2.5966   -8.1861    1.2221 C.ar      1 <0>        -0.2069
      9 C8          0.6434   -6.2810    0.8749 C.3       1 <0>         0.3570
     10 C9          0.3750   -4.8239    1.1705 C.2       1 <0>        -0.0277
     11 C10         0.2569   -4.2027   -0.0141 C.2       1 <0>        -0.1477
     12 C11         0.4436   -5.1837   -1.0956 C.2       1 <0>         0.5128
     13 O2          0.3990   -4.9299   -2.2829 O.2       1 <0>        -0.4291
     14 O3          0.6703   -6.4028   -0.5744 O.3       1 <0>        -0.3308
     15 C12        -0.0126   -2.7561   -0.2029 C.ar      1 <0>        -0.0212
     16 C13        -1.2399   -2.2187    0.1810 C.ar      1 <0>        -0.0894
     17 C14        -1.4896   -0.8730    0.0055 C.ar      1 <0>        -0.0967
     18 C15        -0.5219   -0.0512   -0.5527 C.ar      1 <0>         0.0432
     19 C16         0.7073   -0.5836   -0.9384 C.ar      1 <0>         0.0360
     20 C17         0.9612   -1.9321   -0.7640 C.ar      1 <0>        -0.0747
     21 O4          1.4751    0.4209   -1.4536 O.3       1 <0>        -0.3035
     22 C18         0.8611    1.6431   -1.0041 C.3       1 <0>         0.2115
     23 O5         -0.5224    1.2862   -0.8269 O.3       1 <0>        -0.3047
     24 C19         0.2600   -4.1900    2.5328 C.3       1 <0>        -0.0270
     25 C20         1.6338   -3.8306    3.0373 C.ar      1 <0>        -0.0072
     26 C21         2.3298   -4.7200    3.8344 C.ar      1 <0>        -0.2042
     27 C22         3.5965   -4.3954    4.2960 C.ar      1 <0>         0.1512
     28 C23         4.1613   -3.1693    3.9658 C.ar      1 <0>         0.0317
     29 C24         3.4558   -2.2755    3.1689 C.ar      1 <0>         0.1498
     30 C25         2.1922   -2.6102    2.7063 C.ar      1 <0>        -0.2212
     31 O6          4.0040   -1.0742    2.8434 O.3       1 <0>        -0.2997
     32 C26         3.1785   -0.1590    2.1203 C.3       1 <0>         0.0245
     33 O7          5.4019   -2.8447    4.4214 O.3       1 <0>        -0.3126
     34 C27         5.4754   -2.1708    5.6794 C.3       1 <0>         0.0358
     35 O8          4.2829   -5.2736    5.0752 O.3       1 <0>        -0.3013
     36 C28         3.6409   -6.5147    5.3743 C.3       1 <0>         0.0240
     37 O9          1.9057   -6.6651    1.4236 O.3       1 <0>        -0.5130
     38 H1         -5.0731   -8.7644    1.9481 H         1 <0>         0.0589
     39 H2         -4.2954  -10.2129    1.2660 H         1 <0>         0.0590
     40 H3         -5.3159  -10.3508    2.7179 H         1 <0>         0.1047
     41 H4         -1.2284   -8.8717    4.2368 H         1 <0>         0.1397
     42 H5          0.5627   -7.4679    3.2986 H         1 <0>         0.1399
     43 H6         -1.6924   -6.9748   -0.2880 H         1 <0>         0.1271
     44 H7         -3.4827   -8.3874    0.6383 H         1 <0>         0.1356
     45 H8         -1.9958   -2.8557    0.6160 H         1 <0>         0.1426
     46 H9         -2.4411   -0.4585    0.3040 H         1 <0>         0.1432
     47 H10         1.9133   -2.3458   -1.0620 H         1 <0>         0.1375
     48 H11         0.9618    2.4226   -1.7593 H         1 <0>         0.1354
     49 H12         1.2975    1.9657   -0.0588 H         1 <0>         0.0864
     50 H13        -0.3491   -3.2886    2.4639 H         1 <0>         0.1029
     51 H14        -0.2079   -4.8927    3.2222 H         1 <0>         0.1028
     52 H15         1.8881   -5.6705    4.0947 H         1 <0>         0.1363
     53 H16         1.6433   -1.9163    2.0869 H         1 <0>         0.1327
     54 H17         3.7154    0.7785    1.9759 H         1 <0>         0.1028
     55 H18         2.9259   -0.5863    1.1499 H         1 <0>         0.0564
     56 H19         2.2644    0.0289    2.6836 H         1 <0>         0.0556
     57 H20         5.0337   -2.7978    6.4539 H         1 <0>         0.0444
     58 H21         6.5186   -1.9713    5.9244 H         1 <0>         0.0927
     59 H22         4.9298   -1.2290    5.6194 H         1 <0>         0.0435
     60 H23         4.2951   -7.1202    6.0016 H         1 <0>         0.1023
     61 H24         2.7069   -6.3226    5.9024 H         1 <0>         0.0563
     62 H25         3.4311   -7.0480    4.4471 H         1 <0>         0.0605
     63 H26         2.1501   -7.5832    1.2432 H         1 <0>         0.3971
@<TRIPOS>BOND
     1    1    2 1
     2    1   38 1
     3    1   39 1
     4    1   40 1
     5    2    3 1
     6    3    8 ar
     7    3    4 ar
     8    4    5 ar
     9    4   41 1
    10    5    6 ar
    11    5   42 1
    12    6    7 ar
    13    6    9 1
    14    7    8 ar
    15    7   43 1
    16    8   44 1
    17    9   14 1
    18    9   10 1
    19    9   37 1
    20   10   11 2
    21   10   24 1
    22   11   12 1
    23   11   15 1
    24   12   13 2
    25   12   14 1
    26   15   20 ar
    27   15   16 ar
    28   16   17 ar
    29   16   45 1
    30   17   18 ar
    31   17   46 1
    32   18   23 1
    33   18   19 ar
    34   19   20 ar
    35   19   21 1
    36   20   47 1
    37   21   22 1
    38   22   23 1
    39   22   48 1
    40   22   49 1
    41   24   25 1
    42   24   50 1
    43   24   51 1
    44   25   30 ar
    45   25   26 ar
    46   26   27 ar
    47   26   52 1
    48   27   28 ar
    49   27   35 1
    50   28   29 ar
    51   28   33 1
    52   29   30 ar
    53   29   31 1
    54   30   53 1
    55   31   32 1
    56   32   54 1
    57   32   55 1
    58   32   56 1
    59   33   34 1
    60   34   57 1
    61   34   58 1
    62   34   59 1
    63   35   36 1
    64   36   60 1
    65   36   61 1
    66   36   62 1
    67   37   63 1
@<TRIPOS>MOLECULE
ZINC13740975
   63    67     0     0     0
SMALL
USER_CHARGES
(5S)-3-(1,3-benzodioxol-5-yl)-5-hydroxy-5-(4-methoxyphenyl)-4-[(3,4,5-trimethoxyphenyl)methyl]furan-2-one
@<TRIPOS>ATOM
      1 C1          4.7724    0.1638   -0.0441 C.3       1 <0>         0.0241
      2 O1          3.5855   -0.6319   -0.0371 O.3       1 <0>        -0.3128
      3 C2          2.3989    0.0304   -0.0212 C.ar      1 <0>         0.1491
      4 C3          1.2070   -0.6796   -0.0136 C.ar      1 <0>        -0.1494
      5 C4          0.0021   -0.0041    0.0020 C.ar      1 <0>        -0.0455
      6 C5         -0.0167    1.3784    0.0096 C.ar      1 <0>        -0.1730
      7 C6          1.1698    2.0883    0.0021 C.ar      1 <0>        -0.0460
      8 C7          2.3774    1.4175   -0.0131 C.ar      1 <0>        -0.2088
      9 C8         -1.3326    2.1128    0.0199 C.3       1 <0>         0.3572
     10 C9         -1.8034    2.3546   -1.3952 C.2       1 <0>        -0.0284
     11 C10        -2.9834    1.7238   -1.5236 C.2       1 <0>        -0.1469
     12 C11        -3.3238    1.0691   -0.2499 C.2       1 <0>         0.5134
     13 O2         -4.3298    0.4189   -0.0467 O.2       1 <0>        -0.4294
     14 O3         -2.3555    1.2972    0.6556 O.3       1 <0>        -0.3302
     15 C12        -3.8122    1.6939   -2.7538 C.ar      1 <0>        -0.0214
     16 C13        -3.3368    1.0602   -3.9005 C.ar      1 <0>        -0.0898
     17 C14        -4.1082    1.0328   -5.0442 C.ar      1 <0>        -0.0969
     18 C15        -5.3578    1.6342   -5.0571 C.ar      1 <0>         0.0431
     19 C16        -5.8382    2.2689   -3.9128 C.ar      1 <0>         0.0358
     20 C17        -5.0698    2.2942   -2.7630 C.ar      1 <0>        -0.0735
     21 O4         -7.0772    2.7749   -4.1826 O.3       1 <0>        -0.3048
     22 C18        -7.5211    2.0920   -5.3699 C.3       1 <0>         0.2121
     23 O5         -6.2966    1.7436   -6.0423 O.3       1 <0>        -0.3055
     24 C19        -1.0875    3.1492   -2.4568 C.3       1 <0>        -0.0267
     25 C20        -1.4289    4.6094   -2.3073 C.ar      1 <0>        -0.0082
     26 C21        -2.5157    5.1355   -2.9802 C.ar      1 <0>        -0.2208
     27 C22        -2.8366    6.4774   -2.8408 C.ar      1 <0>         0.1508
     28 C23        -2.0574    7.2958   -2.0318 C.ar      1 <0>         0.0313
     29 C24        -0.9621    6.7641   -1.3615 C.ar      1 <0>         0.1504
     30 C25        -0.6511    5.4202   -1.5021 C.ar      1 <0>        -0.2044
     31 O6         -0.1963    7.5610   -0.5691 O.3       1 <0>        -0.3013
     32 C26         0.9138    6.9471    0.0889 C.3       1 <0>         0.0245
     33 O7         -2.3662    8.6143   -1.8961 O.3       1 <0>        -0.3126
     34 C27        -1.7697    9.5195   -2.8271 C.3       1 <0>         0.0357
     35 O8         -3.9096    6.9928   -3.4985 O.3       1 <0>        -0.3006
     36 C28        -4.6651    6.0933   -4.3122 C.3       1 <0>         0.0265
     37 O9         -1.1955    3.3559    0.7112 O.3       1 <0>        -0.5133
     38 H1          4.7793    0.7983   -0.9304 H         1 <0>         0.0588
     39 H2          4.7971    0.7875    0.8494 H         1 <0>         0.0587
     40 H3          5.6464   -0.4875   -0.0568 H         1 <0>         0.1043
     41 H4          1.2211   -1.7595   -0.0203 H         1 <0>         0.1389
     42 H5         -0.9260   -0.5563    0.0079 H         1 <0>         0.1320
     43 H6          1.1525    3.1682    0.0077 H         1 <0>         0.1351
     44 H7          3.3039    1.9724   -0.0187 H         1 <0>         0.1365
     45 H8         -2.3641    0.5909   -3.8940 H         1 <0>         0.1429
     46 H9         -3.7377    0.5418   -5.9319 H         1 <0>         0.1431
     47 H10        -5.4424    2.7821   -1.8744 H         1 <0>         0.1374
     48 H11        -8.0830    1.1954   -5.1085 H         1 <0>         0.0880
     49 H12        -8.1234    2.7554   -5.9906 H         1 <0>         0.1354
     50 H13        -0.0114    3.0146   -2.3476 H         1 <0>         0.1019
     51 H14        -1.3989    2.8023   -3.4422 H         1 <0>         0.1030
     52 H15        -3.1182    4.4998   -3.6121 H         1 <0>         0.1336
     53 H16         0.1998    5.0062   -0.9816 H         1 <0>         0.1356
     54 H17         1.5941    6.5337   -0.6556 H         1 <0>         0.0553
     55 H18         1.4388    7.6918    0.6871 H         1 <0>         0.1018
     56 H19         0.5551    6.1475    0.7370 H         1 <0>         0.0604
     57 H20        -0.6843    9.4629   -2.7443 H         1 <0>         0.0440
     58 H21        -2.0714    9.2508   -3.8394 H         1 <0>         0.0439
     59 H22        -2.0984   10.5353   -2.6076 H         1 <0>         0.0926
     60 H23        -4.0211    5.6747   -5.0855 H         1 <0>         0.0557
     61 H24        -5.0603    5.2879   -3.6931 H         1 <0>         0.0574
     62 H25        -5.4904    6.6313   -4.7787 H         1 <0>         0.1032
     63 H26        -0.9085    3.2654    1.6302 H         1 <0>         0.3966
@<TRIPOS>BOND
     1    1    2 1
     2    1   38 1
     3    1   39 1
     4    1   40 1
     5    2    3 1
     6    3    8 ar
     7    3    4 ar
     8    4    5 ar
     9    4   41 1
    10    5    6 ar
    11    5   42 1
    12    6    7 ar
    13    6    9 1
    14    7    8 ar
    15    7   43 1
    16    8   44 1
    17    9   14 1
    18    9   10 1
    19    9   37 1
    20   10   11 2
    21   10   24 1
    22   11   12 1
    23   11   15 1
    24   12   13 2
    25   12   14 1
    26   15   20 ar
    27   15   16 ar
    28   16   17 ar
    29   16   45 1
    30   17   18 ar
    31   17   46 1
    32   18   23 1
    33   18   19 ar
    34   19   20 ar
    35   19   21 1
    36   20   47 1
    37   21   22 1
    38   22   23 1
    39   22   48 1
    40   22   49 1
    41   24   25 1
    42   24   50 1
    43   24   51 1
    44   25   30 ar
    45   25   26 ar
    46   26   27 ar
    47   26   52 1
    48   27   28 ar
    49   27   35 1
    50   28   29 ar
    51   28   33 1
    52   29   30 ar
    53   29   31 1
    54   30   53 1
    55   31   32 1
    56   32   54 1
    57   32   55 1
    58   32   56 1
    59   33   34 1
    60   34   57 1
    61   34   58 1
    62   34   59 1
    63   35   36 1
    64   36   60 1
    65   36   61 1
    66   36   62 1
    67   37   63 1
