@<TRIPOS>MOLECULE
ZINC45259223
   45    48     0     0     0
SMALL
USER_CHARGES

@<TRIPOS>ATOM
      1 C1         -5.3452    0.2675    2.5398 C.ar      1 <0>        -0.0252
      2 C2         -6.2611    0.5269    3.5366 C.ar      1 <0>        -0.1598
      3 C3         -6.7350   -0.5054    4.3319 C.ar      1 <0>         0.1317
      4 C4         -6.2906   -1.8031    4.1297 C.ar      1 <0>        -0.1600
      5 C5         -5.3748   -2.0736    3.1357 C.ar      1 <0>        -0.0545
      6 C6         -4.8945   -1.0378    2.3316 C.ar      1 <0>        -0.1508
      7 C7         -3.9133   -1.3219    1.2644 C.2       1 <0>         0.5684
      8 O1         -3.4967   -0.4185    0.5656 O.2       1 <0>        -0.5221
      9 N1         -3.4800   -2.5825    1.0655 N.am      1 <0>        -0.7204
     10 C8         -2.5069   -2.8642    0.0072 C.3       1 <0>         0.1315
     11 C9         -2.0969   -4.3368    0.0702 C.3       1 <0>         0.1290
     12 C10        -3.3180   -5.2077   -0.0883 C.ar      1 <0>        -0.1932
     13 C11        -4.3750   -4.8004   -0.8697 C.ar      1 <0>        -0.0373
     14 C12        -5.4905   -5.6279   -1.0128 C.ar      1 <0>        -0.0462
     15 C13        -5.5283   -6.8635   -0.3647 C.ar      1 <0>        -0.0289
     16 C14        -4.4679   -7.2629    0.4209 C.ar      1 <0>        -0.1393
     17 C15        -3.3632   -6.4350    0.5659 C.ar      1 <0>         0.1957
     18 N2         -2.2915   -6.8079    1.3843 N.am      1 <0>        -0.6582
     19 C16        -1.3426   -5.9004    1.6893 C.2       1 <0>         0.6553
     20 O2         -0.3455   -6.2503    2.2893 O.2       1 <0>        -0.4683
     21 O3         -1.4893   -4.6104    1.3354 O.3       1 <0>        -0.3063
     22 C17        -6.6310   -5.1954   -1.8499 C.2       1 <0>         0.1205
     23 C18        -7.7828   -5.8960   -2.0738 C.2       1 <0>        -0.2448
     24 C19        -8.5909   -5.1321   -2.9162 C.2       1 <0>         0.0508
     25 N3         -7.9657   -4.0167   -3.1959 N.2       1 <0>        -0.2759
     26 N4         -6.7302   -4.0218   -2.5359 N.pl3     1 <0>        -0.4724
     27 H1         -6.0639   -3.3174   -2.5637 H         1 <0>         0.4376
     28 C20        -1.1014   -4.6393   -1.0516 C.3       1 <0>         0.4416
     29 F1          0.0801   -3.9230   -0.8323 F         1 <0>        -0.1580
     30 F2         -0.8197   -6.0096   -1.0682 F         1 <0>        -0.1679
     31 F3         -1.6544   -4.2619   -2.2800 F         1 <0>        -0.1609
     32 F4         -7.6327   -0.2457    5.3075 F         1 <0>        -0.1304
     33 H2         -4.9800    1.0715    1.9180 H         1 <0>         0.1497
     34 H3         -6.6100    1.5360    3.6988 H         1 <0>         0.1468
     35 H4         -6.6624   -2.6034    4.7524 H         1 <0>         0.1446
     36 H5         -5.0290   -3.0848    2.9793 H         1 <0>         0.1326
     37 H6         -3.8125   -3.3033    1.6231 H         1 <0>         0.4051
     38 H7         -2.9548   -2.6530   -0.9638 H         1 <0>         0.1108
     39 H8         -1.6272   -2.2358    0.1459 H         1 <0>         0.1108
     40 H9         -4.3419   -3.8439   -1.3702 H         1 <0>         0.1359
     41 H10        -6.3885   -7.5066   -0.4783 H         1 <0>         0.1500
     42 H11        -4.4967   -8.2188    0.9229 H         1 <0>         0.1509
     43 H12        -2.2319   -7.7123    1.7299 H         1 <0>         0.4390
     44 H13        -8.0244   -6.8682   -1.6704 H         1 <0>         0.1536
     45 H14        -9.5689   -5.4140   -3.2772 H         1 <0>         0.1887
@<TRIPOS>BOND
     1    1    6 ar
     2    1    2 ar
     3    1   33 1
     4    2    3 ar
     5    2   34 1
     6    3    4 ar
     7    3   32 1
     8    4    5 ar
     9    4   35 1
    10    5    6 ar
    11    5   36 1
    12    6    7 1
    13    7    8 2
    14    7    9 am
    15    9   10 1
    16    9   37 1
    17   10   11 1
    18   10   38 1
    19   10   39 1
    20   11   21 1
    21   11   12 1
    22   11   28 1
    23   12   17 ar
    24   12   13 ar
    25   13   14 ar
    26   13   40 1
    27   14   15 ar
    28   14   22 1
    29   15   16 ar
    30   15   41 1
    31   16   17 ar
    32   16   42 1
    33   17   18 1
    34   18   19 am
    35   18   43 1
    36   19   20 2
    37   19   21 1
    38   22   26 1
    39   22   23 2
    40   23   24 1
    41   23   44 1
    42   24   25 2
    43   24   45 1
    44   25   26 1
    45   26   27 1
    46   28   29 1
    47   28   30 1
    48   28   31 1
