@<TRIPOS>MOLECULE
ZINC49793405
   68    74     0     0     0
SMALL
USER_CHARGES

@<TRIPOS>ATOM
      1 C1         -0.6762   -1.6697   -2.9767 C.ar      1 <0>        -0.1177
      2 C2          0.5537   -1.3091   -2.4528 C.ar      1 <0>        -0.0880
      3 C3          1.5389   -2.2574   -2.2812 C.ar      1 <0>        -0.0655
      4 C4          1.2930   -3.5893   -2.6380 C.ar      1 <0>         0.0560
      5 C5          0.0458   -3.9454   -3.1668 C.ar      1 <0>        -0.0340
      6 C6         -0.9279   -2.9840   -3.3320 C.ar      1 <0>        -0.1463
      7 N1          2.2596   -4.5312   -2.4724 N.2       1 <0>        -0.5240
      8 C7          2.8653   -4.6664   -1.2881 C.2       1 <0>         0.2993
      9 C8          4.2526   -4.8940   -1.2388 C.2       1 <0>        -0.2031
     10 C9          4.8724   -5.0322   -0.0197 C.2       1 <0>         0.1562
     11 C10         4.0774   -4.9402    1.2095 C.2       1 <0>         0.1394
     12 C11         2.6837   -4.7096    1.1147 C.2       1 <0>         0.0310
     13 C12         2.1043   -4.5731   -0.0984 C.2       1 <0>        -0.6693
     14 S1          0.3698   -4.2805   -0.2011 S.o2      1 <0>         2.6741
     15 O1         -0.1470   -5.1632   -1.2354 O.2       1 <0>        -1.0408
     16 O2         -0.1889   -4.5895    1.1059 O.2       1 <0>        -1.0710
     17 O3          0.1978   -2.8782   -0.5478 O.3       1 <0>        -1.0254
     18 N2          4.6707   -5.0738    2.3867 N.2       1 <0>        -0.3846
     19 C13         5.9790   -5.2909    2.4812 C.ar      1 <0>         0.0360
     20 C14         6.5965   -5.4335    3.8085 C.ar      1 <0>        -0.0017
     21 C15         5.8347   -5.3452    4.9748 C.ar      1 <0>        -0.0705
     22 C16         6.4496   -5.4847    6.1989 C.ar      1 <0>        -0.1232
     23 C17         7.8177   -5.7113    6.2829 C.ar      1 <0>        -0.0365
     24 C18         8.5832   -5.8014    5.1556 C.ar      1 <0>        -0.6271
     25 C19         7.9860   -5.6642    3.8979 C.ar      1 <0>        -0.0149
     26 C20         8.7752   -5.7554    2.6695 C.ar      1 <0>         0.2522
     27 C21         8.1625   -5.6163    1.4428 C.ar      1 <0>        -0.1799
     28 C22         6.7930   -5.3888    1.3309 C.ar      1 <0>         0.1980
     29 N3          6.2312   -5.2571    0.0760 N.pl3     1 <0>        -0.4402
     30 C23         7.0211   -5.3504   -1.0724 C.ar      1 <0>         0.1119
     31 C24         7.4675   -4.1971   -1.7063 C.ar      1 <0>        -0.0974
     32 C25         8.2486   -4.2932   -2.8409 C.ar      1 <0>        -0.1094
     33 C26         8.5864   -5.5353   -3.3468 C.ar      1 <0>        -0.1048
     34 C27         8.1435   -6.6852   -2.7188 C.ar      1 <0>        -0.1081
     35 C28         7.3673   -6.5968   -1.5802 C.ar      1 <0>        -0.0960
     36 N4         10.1385   -5.9811    2.7393 N.pl3     1 <0>        -0.6945
     37 C29        10.6284   -7.2882    2.7864 C.ar      1 <0>         0.2603
     38 C30         9.7480   -8.3629    2.7688 C.ar      1 <0>        -0.1632
     39 C31        10.2359   -9.6539    2.8150 C.ar      1 <0>        -0.0733
     40 C32        11.5992   -9.8778    2.8788 C.ar      1 <0>        -0.1863
     41 C33        12.4784   -8.8104    2.8965 C.ar      1 <0>        -0.0794
     42 C34        11.9977   -7.5169    2.8452 C.ar      1 <0>        -0.1647
     43 S2         10.3169   -6.0886    5.2846 S.o2      1 <0>         2.6995
     44 O4         10.5336   -7.4988    5.0010 O.2       1 <0>        -1.0179
     45 O5         10.9614   -5.2315    4.3018 O.2       1 <0>        -1.0584
     46 O6         10.7024   -5.7422    6.6438 O.3       1 <0>        -1.0704
     47 H1         -1.4452   -0.9223   -3.1047 H         1 <0>         0.0973
     48 H2          0.7416   -0.2816   -2.1783 H         1 <0>         0.0994
     49 H3          2.4979   -1.9742   -1.8731 H         1 <0>         0.0977
     50 H4         -0.1520   -4.9700   -3.4448 H         1 <0>         0.1187
     51 H5         -1.8901   -3.2568   -3.7396 H         1 <0>         0.1019
     52 H6          4.8261   -4.9600   -2.1516 H         1 <0>         0.1346
     53 H7          2.0850   -4.6397    2.0108 H         1 <0>         0.1582
     54 H8          4.7708   -5.1685    4.9175 H         1 <0>         0.1420
     55 H9          5.8625   -5.4168    7.1029 H         1 <0>         0.1298
     56 H10         8.2819   -5.8173    7.2523 H         1 <0>         0.1371
     57 H11         8.7595   -5.6856    0.5455 H         1 <0>         0.1414
     58 H12         7.2036   -3.2269   -1.3122 H         1 <0>         0.1295
     59 H13         8.5959   -3.3974   -3.3341 H         1 <0>         0.1313
     60 H14         9.1971   -5.6075   -4.2346 H         1 <0>         0.1284
     61 H15         8.4086   -7.6535   -3.1170 H         1 <0>         0.1321
     62 H16         7.0258   -7.4952   -1.0875 H         1 <0>         0.1303
     63 H17        10.7540   -5.2315    2.7555 H         1 <0>         0.4484
     64 H18         8.6833   -8.1888    2.7193 H         1 <0>         0.0985
     65 H19         9.5521  -10.4898    2.8017 H         1 <0>         0.1014
     66 H20        11.9780  -10.8885    2.9152 H         1 <0>         0.0992
     67 H21        13.5424   -8.9889    2.9464 H         1 <0>         0.1037
     68 H22        12.6850   -6.6839    2.8545 H         1 <0>         0.1126
@<TRIPOS>BOND
     1    1    6 ar
     2    1    2 ar
     3    1   47 1
     4    2    3 ar
     5    2   48 1
     6    3    4 ar
     7    3   49 1
     8    4    5 ar
     9    4    7 1
    10    5    6 ar
    11    5   50 1
    12    6   51 1
    13    7    8 2
    14    8   13 1
    15    8    9 1
    16    9   10 2
    17    9   52 1
    18   10   29 1
    19   10   11 1
    20   11   12 1
    21   11   18 2
    22   12   13 2
    23   12   53 1
    24   13   14 1
    25   14   15 2
    26   14   16 2
    27   14   17 1
    28   18   19 1
    29   19   28 ar
    30   19   20 ar
    31   20   25 ar
    32   20   21 ar
    33   21   22 ar
    34   21   54 1
    35   22   23 ar
    36   22   55 1
    37   23   24 ar
    38   23   56 1
    39   24   25 ar
    40   24   43 1
    41   25   26 ar
    42   26   27 ar
    43   26   36 1
    44   27   28 ar
    45   27   57 1
    46   28   29 1
    47   29   30 1
    48   30   35 ar
    49   30   31 ar
    50   31   32 ar
    51   31   58 1
    52   32   33 ar
    53   32   59 1
    54   33   34 ar
    55   33   60 1
    56   34   35 ar
    57   34   61 1
    58   35   62 1
    59   36   37 1
    60   36   63 1
    61   37   42 ar
    62   37   38 ar
    63   38   39 ar
    64   38   64 1
    65   39   40 ar
    66   39   65 1
    67   40   41 ar
    68   40   66 1
    69   41   42 ar
    70   41   67 1
    71   42   68 1
    72   43   44 2
    73   43   45 2
    74   43   46 1
@<TRIPOS>MOLECULE
ZINC49775513
   71    75     0     0     0
SMALL
USER_CHARGES

@<TRIPOS>ATOM
      1 C1         -0.0982    0.5315   -1.8118 C.3       1 <0>        -0.0979
      2 C2         -0.1308   -0.9461   -1.5171 C.ar      1 <0>        -0.1967
      3 C3         -0.1972   -1.8446   -2.5433 C.ar      1 <0>        -0.0171
      4 C4         -0.2276   -3.2186   -2.2681 C.ar      1 <0>        -0.1668
      5 C5         -0.1895   -3.6640   -0.9393 C.ar      1 <0>         0.0491
      6 C6         -0.1232   -2.7584    0.0803 C.ar      1 <0>        -0.7373
      7 C7         -0.0875   -1.3934   -0.1984 C.ar      1 <0>         0.3175
      8 N1         -0.0138   -0.4755    0.8425 N.pl3     1 <0>        -0.8585
      9 S1         -0.0753   -3.3166    1.7509 S.o2      1 <0>         2.6985
     10 O1          1.3245   -3.3502    2.1451 O.2       1 <0>        -1.0660
     11 O2         -0.8386   -2.3605    2.5378 O.2       1 <0>        -1.0667
     12 O3         -0.6774   -4.6407    1.7712 O.3       1 <0>        -1.0605
     13 C8         -0.2995   -4.1892   -3.3687 C.2       1 <0>         0.1116
     14 C9          0.7692   -4.3008   -4.2808 C.2       1 <0>        -0.1177
     15 C10         1.9112   -3.4837   -4.1331 C.2       1 <0>        -0.0438
     16 C11         2.9391   -3.5908   -5.0092 C.2       1 <0>        -0.1428
     17 C12         2.8679   -4.5205   -6.0712 C.2       1 <0>         0.2511
     18 N2          3.8809   -4.6269   -6.9350 N.2       1 <0>        -0.5155
     19 C13         3.7587   -5.4215   -8.0319 C.ar      1 <0>         0.1329
     20 C14         2.7067   -5.2196   -8.9340 C.ar      1 <0>        -0.1781
     21 C15         2.5906   -6.0293  -10.0434 C.ar      1 <0>        -0.0160
     22 C16         3.5099   -7.0401  -10.2669 C.ar      1 <0>        -0.6778
     23 C17         4.5527   -7.2469   -9.3799 C.ar      1 <0>        -0.0185
     24 C18         4.6875   -6.4426   -8.2688 C.ar      1 <0>        -0.1530
     25 S2          3.3516   -8.0696  -11.6880 S.o2      1 <0>         2.7008
     26 O4          3.9016   -9.3684  -11.3321 O.2       1 <0>        -1.0689
     27 O5          1.9323   -8.1469  -11.9976 O.2       1 <0>        -1.0643
     28 O6          4.1069   -7.4340  -12.7564 O.3       1 <0>        -1.0695
     29 C19         1.7245   -5.3380   -6.2185 C.2       1 <0>        -0.2015
     30 C20         0.6997   -5.2336   -5.3384 C.2       1 <0>        -0.0371
     31 C21        -1.4853   -5.0433   -3.5185 C.ar      1 <0>        -0.1110
     32 C22        -2.7289   -4.4725   -3.8234 C.ar      1 <0>        -0.0514
     33 C23        -3.8282   -5.2702   -3.9622 C.ar      1 <0>        -0.1621
     34 C24        -3.7153   -6.6499   -3.8012 C.ar      1 <0>         0.1968
     35 C25        -2.4811   -7.2217   -3.4981 C.ar      1 <0>        -0.1670
     36 C26        -1.3755   -6.4322   -3.3627 C.ar      1 <0>        -0.0593
     37 N3         -4.8373   -7.4581   -3.9430 N.pl3     1 <0>        -0.6839
     38 C27        -5.8613   -7.0845   -4.8165 C.ar      1 <0>         0.2006
     39 C28        -5.5681   -6.3531   -5.9608 C.ar      1 <0>        -0.1838
     40 C29        -6.5830   -5.9854   -6.8222 C.ar      1 <0>        -0.0005
     41 C30        -7.8898   -6.3444   -6.5469 C.ar      1 <0>        -0.6883
     42 C31        -8.1853   -7.0720   -5.4086 C.ar      1 <0>        -0.0031
     43 C32        -7.1746   -7.4484   -4.5461 C.ar      1 <0>        -0.1907
     44 S3         -9.1815   -5.8731   -7.6488 S.o2      1 <0>         2.7011
     45 O7        -10.3845   -5.7150   -6.8464 O.2       1 <0>        -1.0703
     46 O8         -8.7730   -4.6217   -8.2679 O.2       1 <0>        -1.0662
     47 O9         -9.3159   -6.9436   -8.6245 O.3       1 <0>        -1.0671
     48 H1          0.9359    0.8562   -1.9273 H         1 <0>         0.0625
     49 H2         -0.6465    0.7305   -2.7326 H         1 <0>         0.0644
     50 H3         -0.5604    1.0764   -0.9887 H         1 <0>         0.0562
     51 H4         -0.2267   -1.4970   -3.5655 H         1 <0>         0.1239
     52 H5         -0.2130   -4.7217   -0.7225 H         1 <0>         0.1334
     53 H6         -0.1357    0.4703    0.6647 H         1 <0>         0.3939
     54 H7          0.1596   -0.7805    1.7468 H         1 <0>         0.4123
     55 H8          1.9653   -2.7730   -3.3217 H         1 <0>         0.1347
     56 H9          3.8124   -2.9655   -4.8963 H         1 <0>         0.1310
     57 H10         1.9882   -4.4321   -8.7608 H         1 <0>         0.1201
     58 H11         1.7799   -5.8751  -10.7401 H         1 <0>         0.1318
     59 H12         5.2651   -8.0381   -9.5615 H         1 <0>         0.1313
     60 H13         5.5043   -6.6022   -7.5805 H         1 <0>         0.1213
     61 H14         1.6695   -6.0486   -7.0298 H         1 <0>         0.1329
     62 H15        -0.1722   -5.8614   -5.4482 H         1 <0>         0.1307
     63 H16        -2.8173   -3.4034   -3.9480 H         1 <0>         0.1268
     64 H17        -4.7867   -4.8314   -4.1967 H         1 <0>         0.1305
     65 H18        -2.3984   -8.2913   -3.3738 H         1 <0>         0.1265
     66 H19        -0.4186   -6.8766   -3.1318 H         1 <0>         0.1293
     67 H20        -4.9092   -8.2815   -3.4353 H         1 <0>         0.4085
     68 H21        -4.5478   -6.0721   -6.1762 H         1 <0>         0.1269
     69 H22        -6.3558   -5.4165   -7.7117 H         1 <0>         0.1345
     70 H23        -9.2070   -7.3504   -5.1965 H         1 <0>         0.1321
     71 H24        -7.4055   -8.0208   -3.6598 H         1 <0>         0.1214
@<TRIPOS>BOND
     1    1    2 1
     2    1   48 1
     3    1   49 1
     4    1   50 1
     5    2    7 ar
     6    2    3 ar
     7    3    4 ar
     8    3   51 1
     9    4    5 ar
    10    4   13 1
    11    5    6 ar
    12    5   52 1
    13    6    7 ar
    14    6    9 1
    15    7    8 1
    16    8   53 1
    17    8   54 1
    18    9   10 2
    19    9   11 2
    20    9   12 1
    21   13   14 2
    22   13   31 1
    23   14   30 1
    24   14   15 1
    25   15   16 2
    26   15   55 1
    27   16   17 1
    28   16   56 1
    29   17   18 2
    30   17   29 1
    31   18   19 1
    32   19   24 ar
    33   19   20 ar
    34   20   21 ar
    35   20   57 1
    36   21   22 ar
    37   21   58 1
    38   22   23 ar
    39   22   25 1
    40   23   24 ar
    41   23   59 1
    42   24   60 1
    43   25   26 2
    44   25   27 2
    45   25   28 1
    46   29   30 2
    47   29   61 1
    48   30   62 1
    49   31   36 ar
    50   31   32 ar
    51   32   33 ar
    52   32   63 1
    53   33   34 ar
    54   33   64 1
    55   34   35 ar
    56   34   37 1
    57   35   36 ar
    58   35   65 1
    59   36   66 1
    60   37   38 1
    61   37   67 1
    62   38   43 ar
    63   38   39 ar
    64   39   40 ar
    65   39   68 1
    66   40   41 ar
    67   40   69 1
    68   41   42 ar
    69   41   44 1
    70   42   43 ar
    71   42   70 1
    72   43   71 1
    73   44   45 2
    74   44   46 2
    75   44   47 1
@<TRIPOS>MOLECULE
ZINC08860530
   68    67     0     0     0
SMALL
USER_CHARGES

@<TRIPOS>ATOM
      1 C1          0.1245    1.2913    1.2265 C.3       1 <0>        -0.1536
      2 C2          0.1194   -0.2123    0.9436 C.3       1 <0>        -0.1266
      3 C3         -1.3223   -0.7245    0.9342 C.3       1 <0>        -0.1207
      4 C4         -1.3274   -2.2282    0.6513 C.3       1 <0>        -0.1217
      5 C5         -2.7691   -2.7404    0.6419 C.3       1 <0>        -0.1198
      6 C6         -2.7742   -4.2440    0.3590 C.3       1 <0>        -0.1214
      7 C7         -4.2159   -4.7563    0.3496 C.3       1 <0>        -0.1128
      8 C8         -4.2210   -6.2599    0.0667 C.3       1 <0>        -0.1021
      9 C9         -5.6410   -6.7645    0.0574 C.2       1 <0>        -0.1641
     10 C10        -6.0832   -7.4576   -0.9625 C.2       1 <0>        -0.1555
     11 C11        -5.1311   -7.8959   -2.0452 C.3       1 <0>        -0.1024
     12 C12        -5.2475   -9.4083   -2.2451 C.3       1 <0>        -0.1141
     13 C13        -4.2809   -9.8534   -3.3444 C.3       1 <0>        -0.1198
     14 C14        -4.3973  -11.3658   -3.5443 C.3       1 <0>        -0.1203
     15 C15        -3.4307  -11.8109   -4.6435 C.3       1 <0>        -0.1192
     16 C16        -3.5471  -13.3233   -4.8434 C.3       1 <0>        -0.1095
     17 C17        -2.5805  -13.7684   -5.9427 C.3       1 <0>        -0.1132
     18 C18        -2.6952  -15.2580   -6.1396 C.2       1 <0>         0.4527
     19 O1         -3.4705  -15.8981   -5.4695 O.2       1 <0>        -0.5141
     20 O2         -1.9360  -15.8739   -7.0594 O.3       1 <0>        -0.3395
     21 C19        -2.0967  -17.2876   -7.1923 C.3       1 <0>         0.0353
     22 C20        -1.1557  -17.8078   -8.2809 C.3       1 <0>         0.1064
     23 C21        -1.4156  -19.2980   -8.5102 C.3       1 <0>         0.1067
     24 O3         -0.6204  -19.7572   -9.6051 O.3       1 <0>        -0.7463
     25 P1         -0.6413  -21.2805  -10.1259 P.3       1 <0>         2.1259
     26 O4         -0.3216  -22.2446   -8.9331 O.2       1 <0>        -1.1875
     27 O5         -2.0588  -21.6157  -10.7028 O.3       1 <0>        -1.1866
     28 O6          0.4360  -21.4635  -11.2485 O.3       1 <0>        -1.1648
     29 O7          0.1995  -17.6184   -7.8693 O.3       1 <0>        -0.5454
     30 H1          1.1516    1.6563    1.2332 H         1 <0>         0.0528
     31 H2         -0.4399    1.8089    0.4508 H         1 <0>         0.0530
     32 H3         -0.3345    1.4800    2.1969 H         1 <0>         0.0526
     33 H4          0.5784   -0.4010   -0.0269 H         1 <0>         0.0609
     34 H5          0.6838   -0.7299    1.7192 H         1 <0>         0.0604
     35 H6         -1.7813   -0.5358    1.9046 H         1 <0>         0.0598
     36 H7         -1.8867   -0.2070    0.1585 H         1 <0>         0.0603
     37 H8         -0.8684   -2.4169   -0.3192 H         1 <0>         0.0614
     38 H9         -0.7630   -2.7457    1.4270 H         1 <0>         0.0608
     39 H10        -3.2281   -2.5517    1.6123 H         1 <0>         0.0597
     40 H11        -3.3335   -2.2229   -0.1338 H         1 <0>         0.0603
     41 H12        -2.3152   -4.4327   -0.6115 H         1 <0>         0.0619
     42 H13        -2.2098   -4.7616    1.1347 H         1 <0>         0.0612
     43 H14        -4.6749   -4.5676    1.3201 H         1 <0>         0.0598
     44 H15        -4.7803   -4.2387   -0.4261 H         1 <0>         0.0610
     45 H16        -3.7620   -6.4486   -0.9038 H         1 <0>         0.0770
     46 H17        -3.6566   -6.7775    0.8424 H         1 <0>         0.0676
     47 H18        -6.2941   -6.5546    0.8916 H         1 <0>         0.1058
     48 H19        -7.1301   -7.7148   -1.0273 H         1 <0>         0.1070
     49 H20        -5.3798   -7.3862   -2.9760 H         1 <0>         0.0680
     50 H21        -4.1107   -7.6453   -1.7551 H         1 <0>         0.0757
     51 H22        -4.9988   -9.9181   -1.3143 H         1 <0>         0.0617
     52 H23        -6.2679   -9.6590   -2.5352 H         1 <0>         0.0615
     53 H24        -4.5296   -9.3437   -4.2752 H         1 <0>         0.0614
     54 H25        -3.2605   -9.6028   -3.0543 H         1 <0>         0.0610
     55 H26        -4.1486  -11.8756   -2.6135 H         1 <0>         0.0624
     56 H27        -5.4177  -11.6165   -3.8344 H         1 <0>         0.0625
     57 H28        -3.6794  -11.3012   -5.5743 H         1 <0>         0.0641
     58 H29        -2.4103  -11.5602   -4.3534 H         1 <0>         0.0639
     59 H30        -3.2984  -13.8330   -3.9126 H         1 <0>         0.0711
     60 H31        -4.5675  -13.5740   -5.1335 H         1 <0>         0.0714
     61 H32        -2.8292  -13.2586   -6.8735 H         1 <0>         0.1041
     62 H33        -1.5601  -13.5177   -5.6526 H         1 <0>         0.1042
     63 H34        -1.8587  -17.7710   -6.2448 H         1 <0>         0.0729
     64 H35        -3.1278  -17.5119   -7.4657 H         1 <0>         0.0803
     65 H36        -1.3340  -17.2611   -9.2069 H         1 <0>         0.1111
     66 H37        -1.1526  -19.8553   -7.6112 H         1 <0>         0.0421
     67 H38        -2.4705  -19.4520   -8.7376 H         1 <0>         0.0436
     68 H39         0.4296  -18.0776   -7.0499 H         1 <0>         0.3677
@<TRIPOS>BOND
     1    1    2 1
     2    1   30 1
     3    1   31 1
     4    1   32 1
     5    2    3 1
     6    2   33 1
     7    2   34 1
     8    3    4 1
     9    3   35 1
    10    3   36 1
    11    4    5 1
    12    4   37 1
    13    4   38 1
    14    5    6 1
    15    5   39 1
    16    5   40 1
    17    6    7 1
    18    6   41 1
    19    6   42 1
    20    7    8 1
    21    7   43 1
    22    7   44 1
    23    8    9 1
    24    8   45 1
    25    8   46 1
    26    9   10 2
    27    9   47 1
    28   10   11 1
    29   10   48 1
    30   11   12 1
    31   11   49 1
    32   11   50 1
    33   12   13 1
    34   12   51 1
    35   12   52 1
    36   13   14 1
    37   13   53 1
    38   13   54 1
    39   14   15 1
    40   14   55 1
    41   14   56 1
    42   15   16 1
    43   15   57 1
    44   15   58 1
    45   16   17 1
    46   16   59 1
    47   16   60 1
    48   17   18 1
    49   17   61 1
    50   17   62 1
    51   18   19 2
    52   18   20 1
    53   20   21 1
    54   21   22 1
    55   21   63 1
    56   21   64 1
    57   22   23 1
    58   22   29 1
    59   22   65 1
    60   23   24 1
    61   23   66 1
    62   23   67 1
    63   24   25 1
    64   25   26 2
    65   25   27 1
    66   25   28 1
    67   29   68 1
@<TRIPOS>MOLECULE
ZINC08860530
   69    68     0     0     0
SMALL
USER_CHARGES

@<TRIPOS>ATOM
      1 C1          0.1245    1.2913    1.2265 C.3       1 <0>        -0.1540
      2 C2          0.1194   -0.2123    0.9436 C.3       1 <0>        -0.1263
      3 C3         -1.3223   -0.7245    0.9342 C.3       1 <0>        -0.1210
      4 C4         -1.3274   -2.2282    0.6513 C.3       1 <0>        -0.1214
      5 C5         -2.7691   -2.7404    0.6419 C.3       1 <0>        -0.1202
      6 C6         -2.7742   -4.2440    0.3590 C.3       1 <0>        -0.1210
      7 C7         -4.2159   -4.7563    0.3496 C.3       1 <0>        -0.1134
      8 C8         -4.2210   -6.2599    0.0667 C.3       1 <0>        -0.1019
      9 C9         -5.6410   -6.7645    0.0574 C.2       1 <0>        -0.1620
     10 C10        -6.0832   -7.4576   -0.9625 C.2       1 <0>        -0.1578
     11 C11        -5.1311   -7.8959   -2.0452 C.3       1 <0>        -0.1021
     12 C12        -5.2475   -9.4083   -2.2451 C.3       1 <0>        -0.1142
     13 C13        -4.2809   -9.8534   -3.3444 C.3       1 <0>        -0.1200
     14 C14        -4.3973  -11.3658   -3.5443 C.3       1 <0>        -0.1204
     15 C15        -3.4307  -11.8109   -4.6435 C.3       1 <0>        -0.1194
     16 C16        -3.5471  -13.3233   -4.8434 C.3       1 <0>        -0.1101
     17 C17        -2.5805  -13.7684   -5.9427 C.3       1 <0>        -0.1130
     18 C18        -2.6952  -15.2580   -6.1396 C.2       1 <0>         0.4563
     19 O1         -3.4705  -15.8981   -5.4695 O.2       1 <0>        -0.5091
     20 O2         -1.9360  -15.8739   -7.0594 O.3       1 <0>        -0.3408
     21 C19        -2.0967  -17.2876   -7.1923 C.3       1 <0>         0.0338
     22 C20        -1.1557  -17.8078   -8.2809 C.3       1 <0>         0.1068
     23 C21        -1.4156  -19.2980   -8.5102 C.3       1 <0>         0.1101
     24 O3         -0.6204  -19.7572   -9.6051 O.3       1 <0>        -0.7496
     25 P1         -0.6413  -21.2805  -10.1259 P.3       1 <0>         2.2118
     26 O4         -2.0930  -21.6907  -10.4598 O.2       1 <0>        -1.1083
     27 O5          0.2699  -21.4086  -11.4470 O.3       1 <0>        -0.8960
     28 O6         -0.0843  -22.2092   -9.0239 O.3       1 <0>        -1.1058
     29 O7          0.1995  -17.6184   -7.8693 O.3       1 <0>        -0.5445
     30 H1          1.1516    1.6563    1.2332 H         1 <0>         0.0531
     31 H2         -0.4399    1.8089    0.4508 H         1 <0>         0.0531
     32 H3         -0.3345    1.4800    2.1969 H         1 <0>         0.0530
     33 H4          0.5784   -0.4010   -0.0269 H         1 <0>         0.0606
     34 H5          0.6838   -0.7299    1.7192 H         1 <0>         0.0603
     35 H6         -1.7813   -0.5358    1.9046 H         1 <0>         0.0602
     36 H7         -1.8867   -0.2070    0.1585 H         1 <0>         0.0604
     37 H8         -0.8684   -2.4169   -0.3192 H         1 <0>         0.0610
     38 H9         -0.7630   -2.7457    1.4270 H         1 <0>         0.0607
     39 H10        -3.2281   -2.5517    1.6123 H         1 <0>         0.0602
     40 H11        -3.3335   -2.2229   -0.1338 H         1 <0>         0.0605
     41 H12        -2.3152   -4.4327   -0.6115 H         1 <0>         0.0613
     42 H13        -2.2098   -4.7616    1.1347 H         1 <0>         0.0612
     43 H14        -4.6749   -4.5676    1.3201 H         1 <0>         0.0605
     44 H15        -4.7803   -4.2387   -0.4261 H         1 <0>         0.0613
     45 H16        -3.7620   -6.4486   -0.9038 H         1 <0>         0.0764
     46 H17        -3.6566   -6.7775    0.8424 H         1 <0>         0.0677
     47 H18        -6.2941   -6.5546    0.8916 H         1 <0>         0.1065
     48 H19        -7.1301   -7.7148   -1.0273 H         1 <0>         0.1071
     49 H20        -5.3798   -7.3862   -2.9760 H         1 <0>         0.0678
     50 H21        -4.1107   -7.6453   -1.7551 H         1 <0>         0.0757
     51 H22        -4.9988   -9.9181   -1.3143 H         1 <0>         0.0618
     52 H23        -6.2679   -9.6590   -2.5352 H         1 <0>         0.0616
     53 H24        -4.5296   -9.3437   -4.2752 H         1 <0>         0.0616
     54 H25        -3.2605   -9.6028   -3.0543 H         1 <0>         0.0612
     55 H26        -4.1486  -11.8756   -2.6135 H         1 <0>         0.0627
     56 H27        -5.4177  -11.6165   -3.8344 H         1 <0>         0.0627
     57 H28        -3.6794  -11.3012   -5.5743 H         1 <0>         0.0645
     58 H29        -2.4103  -11.5602   -4.3534 H         1 <0>         0.0645
     59 H30        -3.2984  -13.8330   -3.9126 H         1 <0>         0.0718
     60 H31        -4.5675  -13.5740   -5.1335 H         1 <0>         0.0719
     61 H32        -2.8292  -13.2586   -6.8735 H         1 <0>         0.1056
     62 H33        -1.5601  -13.5177   -5.6526 H         1 <0>         0.1059
     63 H34        -1.8587  -17.7710   -6.2448 H         1 <0>         0.0759
     64 H35        -3.1278  -17.5119   -7.4657 H         1 <0>         0.0825
     65 H36        -1.3340  -17.2611   -9.2069 H         1 <0>         0.1164
     66 H37        -1.1526  -19.8553   -7.6112 H         1 <0>         0.0599
     67 H38        -2.4705  -19.4520   -8.7376 H         1 <0>         0.0666
     68 H39         0.4296  -18.0776   -7.0499 H         1 <0>         0.3726
     69 H40         0.3036  -22.3016  -11.8165 H         1 <0>         0.4150
@<TRIPOS>BOND
     1    1    2 1
     2    1   30 1
     3    1   31 1
     4    1   32 1
     5    2    3 1
     6    2   33 1
     7    2   34 1
     8    3    4 1
     9    3   35 1
    10    3   36 1
    11    4    5 1
    12    4   37 1
    13    4   38 1
    14    5    6 1
    15    5   39 1
    16    5   40 1
    17    6    7 1
    18    6   41 1
    19    6   42 1
    20    7    8 1
    21    7   43 1
    22    7   44 1
    23    8    9 1
    24    8   45 1
    25    8   46 1
    26    9   10 2
    27    9   47 1
    28   10   11 1
    29   10   48 1
    30   11   12 1
    31   11   49 1
    32   11   50 1
    33   12   13 1
    34   12   51 1
    35   12   52 1
    36   13   14 1
    37   13   53 1
    38   13   54 1
    39   14   15 1
    40   14   55 1
    41   14   56 1
    42   15   16 1
    43   15   57 1
    44   15   58 1
    45   16   17 1
    46   16   59 1
    47   16   60 1
    48   17   18 1
    49   17   61 1
    50   17   62 1
    51   18   19 2
    52   18   20 1
    53   20   21 1
    54   21   22 1
    55   21   63 1
    56   21   64 1
    57   22   23 1
    58   22   29 1
    59   22   65 1
    60   23   24 1
    61   23   66 1
    62   23   67 1
    63   24   25 1
    64   25   26 2
    65   25   27 1
    66   25   28 1
    67   27   69 1
    68   29   68 1
@<TRIPOS>MOLECULE
ZINC15008639
   51    54     0     0     0
SMALL
USER_CHARGES
(5Z)-3-[(4-chlorophenyl)methyl]-5-[[3-methoxy-4-(4-pyridylmethoxy)phenyl]methylene]thiazolidine-2,4-dione
@<TRIPOS>ATOM
      1 C1          4.0610    7.9261    0.0769 C.3       1 <0>         0.0202
      2 O1          2.6438    8.0650    0.1967 O.3       1 <0>        -0.3001
      3 C2          1.9097    6.9203    0.2042 C.ar      1 <0>         0.1049
      4 C3          2.5398    5.6956    0.1043 C.ar      1 <0>        -0.1435
      5 C4          1.7801    4.5194    0.1071 C.ar      1 <0>        -0.0988
      6 C5          0.3864    4.5916    0.2219 C.ar      1 <0>        -0.0653
      7 C6         -0.2327    5.8176    0.3264 C.ar      1 <0>        -0.1809
      8 C7          0.5214    6.9835    0.3183 C.ar      1 <0>         0.1327
      9 O2         -0.0953    8.1896    0.4212 O.3       1 <0>        -0.2901
     10 C8         -1.5197    8.1823    0.5345 C.3       1 <0>         0.0967
     11 C9         -2.0227    9.5991    0.6378 C.ar      1 <0>        -0.0531
     12 C10        -2.1704   10.2115    1.8729 C.ar      1 <0>        -0.1483
     13 C11        -2.6305   11.5136    1.9283 C.ar      1 <0>         0.0992
     14 N1         -2.9363   12.1684    0.8252 N.ar      1 <0>        -0.4768
     15 C12        -2.8126   11.6162   -0.3659 C.ar      1 <0>         0.0992
     16 C13        -2.3542   10.3193   -0.4997 C.ar      1 <0>        -0.1482
     17 C14         2.4432    3.2139   -0.0040 C.2       1 <0>         0.0848
     18 C15         3.7688    3.1482   -0.2878 C.2       1 <0>        -0.2188
     19 C16         4.6722    1.9804   -0.2986 C.2       1 <0>         0.5613
     20 O3          4.2747    0.8622   -0.0287 O.2       1 <0>        -0.4669
     21 N2          5.9350    2.2109   -0.6163 N.am      1 <0>        -0.5730
     22 C17         6.3710    3.4515   -0.9156 C.2       1 <0>         0.5343
     23 O4          7.4940    3.8039   -1.2226 O.2       1 <0>        -0.4151
     24 S1          4.9008    4.4515   -0.7520 S.3       1 <0>        -0.0527
     25 C18         6.8816    1.0932   -0.6444 C.3       1 <0>         0.1342
     26 C19         7.5101    0.9330    0.7159 C.ar      1 <0>        -0.1189
     27 C20         8.6785    1.6060    1.0208 C.ar      1 <0>        -0.0840
     28 C21         9.2524    1.4638    2.2701 C.ar      1 <0>        -0.1131
     29 C22         8.6634    0.6390    3.2118 C.ar      1 <0>        -0.0231
     30 C23         7.4971   -0.0387    2.9041 C.ar      1 <0>        -0.1136
     31 C24         6.9211    0.1086    1.6564 C.ar      1 <0>        -0.0799
     32 Cl1         9.3877    0.4539    4.7786 Cl        1 <0>        -0.0639
     33 H1          4.5247    8.9125    0.0840 H         1 <0>         0.1071
     34 H2          4.4407    7.3401    0.9140 H         1 <0>         0.0586
     35 H3          4.2987    7.4195   -0.8585 H         1 <0>         0.0584
     36 H4          3.6153    5.6453    0.0200 H         1 <0>         0.1483
     37 H5         -0.2028    3.6865    0.2282 H         1 <0>         0.1422
     38 H6         -1.3077    5.8723    0.4146 H         1 <0>         0.1454
     39 H7         -1.9518    7.7066   -0.3459 H         1 <0>         0.0804
     40 H8         -1.8104    7.6276    1.4267 H         1 <0>         0.0803
     41 H9         -1.9260    9.6789    2.7801 H         1 <0>         0.1382
     42 H10        -2.7451   11.9989    2.8863 H         1 <0>         0.1604
     43 H11        -3.0730   12.1838   -1.2470 H         1 <0>         0.1605
     44 H12        -2.2558    9.8722   -1.4779 H         1 <0>         0.1383
     45 H13         1.8762    2.3062    0.1402 H         1 <0>         0.1669
     46 H14         6.3545    0.1772   -0.9112 H         1 <0>         0.1139
     47 H15         7.6585    1.2935   -1.3823 H         1 <0>         0.1099
     48 H16         9.1407    2.2464    0.2841 H         1 <0>         0.1371
     49 H17        10.1628    1.9931    2.5097 H         1 <0>         0.1376
     50 H18         7.0370   -0.6830    3.6387 H         1 <0>         0.1375
     51 H19         6.0105   -0.4201    1.4163 H         1 <0>         0.1398
@<TRIPOS>BOND
     1    1    2 1
     2    1   33 1
     3    1   34 1
     4    1   35 1
     5    2    3 1
     6    3    8 ar
     7    3    4 ar
     8    4    5 ar
     9    4   36 1
    10    5    6 ar
    11    5   17 1
    12    6    7 ar
    13    6   37 1
    14    7    8 ar
    15    7   38 1
    16    8    9 1
    17    9   10 1
    18   10   11 1
    19   10   39 1
    20   10   40 1
    21   11   16 ar
    22   11   12 ar
    23   12   13 ar
    24   12   41 1
    25   13   14 ar
    26   13   42 1
    27   14   15 ar
    28   15   16 ar
    29   15   43 1
    30   16   44 1
    31   17   18 2
    32   17   45 1
    33   18   24 1
    34   18   19 1
    35   19   20 2
    36   19   21 am
    37   21   22 am
    38   21   25 1
    39   22   23 2
    40   22   24 1
    41   25   26 1
    42   25   46 1
    43   25   47 1
    44   26   31 ar
    45   26   27 ar
    46   27   28 ar
    47   27   48 1
    48   28   29 ar
    49   28   49 1
    50   29   30 ar
    51   29   32 1
    52   30   31 ar
    53   30   50 1
    54   31   51 1
@<TRIPOS>MOLECULE
ZINC02162241
   52    55     0     0     0
SMALL
USER_CHARGES
5-[(4-benzyloxy-3-methoxy-phenyl)methylene]-3-[(4-fluorophenyl)methyl]thiazolidine-2,4-dione
@<TRIPOS>ATOM
      1 C1          4.0610    7.9261    0.0769 C.3       1 <0>         0.0204
      2 O1          2.6438    8.0650    0.1967 O.3       1 <0>        -0.2997
      3 C2          1.9097    6.9203    0.2042 C.ar      1 <0>         0.1027
      4 C3          2.5398    5.6956    0.1043 C.ar      1 <0>        -0.1432
      5 C4          1.7801    4.5194    0.1071 C.ar      1 <0>        -0.1018
      6 C5          0.3864    4.5916    0.2219 C.ar      1 <0>        -0.0646
      7 C6         -0.2327    5.8176    0.3264 C.ar      1 <0>        -0.1826
      8 C7          0.5214    6.9835    0.3183 C.ar      1 <0>         0.1354
      9 O2         -0.0953    8.1896    0.4212 O.3       1 <0>        -0.2902
     10 C8         -1.5197    8.1823    0.5345 C.3       1 <0>         0.0983
     11 C9         -2.0227    9.5991    0.6378 C.ar      1 <0>        -0.0997
     12 C10        -2.1636   10.1939    1.8777 C.ar      1 <0>        -0.0939
     13 C11        -2.6200   11.4953    1.9721 C.ar      1 <0>        -0.1230
     14 C12        -2.9458   12.1983    0.8273 C.ar      1 <0>        -0.1074
     15 C13        -2.8103   11.6016   -0.4122 C.ar      1 <0>        -0.1230
     16 C14        -2.3485   10.3021   -0.5070 C.ar      1 <0>        -0.0938
     17 C15         2.4432    3.2139   -0.0040 C.2       1 <0>         0.0864
     18 C16         3.7688    3.1482   -0.2878 C.2       1 <0>        -0.2207
     19 C17         4.6722    1.9804   -0.2986 C.2       1 <0>         0.5615
     20 O3          4.2747    0.8622   -0.0287 O.2       1 <0>        -0.4679
     21 N1          5.9350    2.2109   -0.6163 N.am      1 <0>        -0.5732
     22 C18         6.3710    3.4515   -0.9156 C.2       1 <0>         0.5340
     23 O4          7.4940    3.8039   -1.2226 O.2       1 <0>        -0.4162
     24 S1          4.9008    4.4515   -0.7520 S.3       1 <0>        -0.0527
     25 C19         6.8816    1.0932   -0.6444 C.3       1 <0>         0.1358
     26 C20         7.5101    0.9330    0.7159 C.ar      1 <0>        -0.1345
     27 C21         8.6786    1.6061    1.0205 C.ar      1 <0>        -0.0671
     28 C22         9.2528    1.4644    2.2695 C.ar      1 <0>        -0.1566
     29 C23         8.6633    0.6393    3.2123 C.ar      1 <0>         0.1118
     30 C24         7.4961   -0.0388    2.9041 C.ar      1 <0>        -0.1571
     31 C25         6.9209    0.1085    1.6562 C.ar      1 <0>        -0.0630
     32 F1          9.2267    0.4956    4.4318 F         1 <0>        -0.1359
     33 H1          4.4407    7.3401    0.9140 H         1 <0>         0.0581
     34 H2          4.2987    7.4195   -0.8585 H         1 <0>         0.0580
     35 H3          4.5247    8.9125    0.0840 H         1 <0>         0.1067
     36 H4          3.6153    5.6453    0.0200 H         1 <0>         0.1477
     37 H5         -0.2028    3.6865    0.2282 H         1 <0>         0.1415
     38 H6         -1.3077    5.8723    0.4146 H         1 <0>         0.1453
     39 H7         -1.9518    7.7066   -0.3459 H         1 <0>         0.0753
     40 H8         -1.8104    7.6276    1.4267 H         1 <0>         0.0752
     41 H9         -1.9133    9.6431    2.7724 H         1 <0>         0.1244
     42 H10        -2.7256   11.9616    2.9406 H         1 <0>         0.1262
     43 H11        -3.3059   13.2138    0.9013 H         1 <0>         0.1252
     44 H12        -3.0648   12.1508   -1.3066 H         1 <0>         0.1262
     45 H13        -2.2426    9.8359   -1.4754 H         1 <0>         0.1245
     46 H14         1.8762    2.3062    0.1402 H         1 <0>         0.1665
     47 H15         6.3545    0.1772   -0.9112 H         1 <0>         0.1135
     48 H16         7.6585    1.2935   -1.3823 H         1 <0>         0.1095
     49 H17         9.1406    2.2462    0.2835 H         1 <0>         0.1379
     50 H18        10.1634    1.9935    2.5087 H         1 <0>         0.1397
     51 H19         7.0356   -0.6829    3.6386 H         1 <0>         0.1396
     52 H20         6.0104   -0.4203    1.4157 H         1 <0>         0.1406
@<TRIPOS>BOND
     1    1    2 1
     2    1   33 1
     3    1   34 1
     4    1   35 1
     5    2    3 1
     6    3    8 ar
     7    3    4 ar
     8    4    5 ar
     9    4   36 1
    10    5    6 ar
    11    5   17 1
    12    6    7 ar
    13    6   37 1
    14    7    8 ar
    15    7   38 1
    16    8    9 1
    17    9   10 1
    18   10   11 1
    19   10   39 1
    20   10   40 1
    21   11   16 ar
    22   11   12 ar
    23   12   13 ar
    24   12   41 1
    25   13   14 ar
    26   13   42 1
    27   14   15 ar
    28   14   43 1
    29   15   16 ar
    30   15   44 1
    31   16   45 1
    32   17   18 2
    33   17   46 1
    34   18   24 1
    35   18   19 1
    36   19   20 2
    37   19   21 am
    38   21   22 am
    39   21   25 1
    40   22   23 2
    41   22   24 1
    42   25   26 1
    43   25   47 1
    44   25   48 1
    45   26   31 ar
    46   26   27 ar
    47   27   28 ar
    48   27   49 1
    49   28   29 ar
    50   28   50 1
    51   29   30 ar
    52   29   32 1
    53   30   31 ar
    54   30   51 1
    55   31   52 1
@<TRIPOS>MOLECULE
ZINC09295934
   50    53     0     0     0
SMALL
USER_CHARGES
4-[[4-[[3-[(4-fluorophenyl)methyl]-2,4-dioxo-thiazolidin-5-ylidene]methyl]phenoxy]methyl]benzoic acid
@<TRIPOS>ATOM
      1 C1          1.5156    8.3032    3.1459 C.ar      1 <0>        -0.0630
      2 C2          0.8861    8.6369    4.3301 C.ar      1 <0>        -0.1573
      3 C3          1.5787    8.5622    5.5266 C.ar      1 <0>         0.1099
      4 C4          2.8997    8.1473    5.5360 C.ar      1 <0>        -0.1567
      5 C5          3.5252    7.8082    4.3512 C.ar      1 <0>        -0.0671
      6 C6          2.8328    7.8836    3.1571 C.ar      1 <0>        -0.1318
      7 C7          3.5163    7.5141    1.8658 C.3       1 <0>         0.1356
      8 N1          3.3255    6.0854    1.6038 N.am      1 <0>        -0.5742
      9 C8          2.2724    5.6910    0.9079 C.2       1 <0>         0.5628
     10 O1          1.4558    6.4850    0.4788 O.2       1 <0>        -0.4745
     11 C9          2.1372    4.2389    0.6781 C.2       1 <0>        -0.2372
     12 C10         1.1745    3.5548    0.0094 C.2       1 <0>         0.0978
     13 C11         1.3425    2.1201   -0.2549 C.ar      1 <0>        -0.1525
     14 C12         0.2802    1.3729   -0.7785 C.ar      1 <0>        -0.0320
     15 C13         0.4434    0.0283   -1.0248 C.ar      1 <0>        -0.1599
     16 C14         1.6601   -0.5876   -0.7552 C.ar      1 <0>         0.1733
     17 C15         2.7181    0.1493   -0.2354 C.ar      1 <0>        -0.2142
     18 C16         2.5657    1.4942    0.0156 C.ar      1 <0>        -0.0383
     19 O2          1.8156   -1.9139   -1.0000 O.3       1 <0>        -0.2976
     20 C17         3.0914   -2.4838   -0.7003 C.3       1 <0>         0.1063
     21 C18         3.0762   -3.9532   -1.0344 C.ar      1 <0>        -0.1154
     22 C19         2.7019   -4.8744   -0.0721 C.ar      1 <0>        -0.1115
     23 C20         2.6811   -6.2205   -0.3726 C.ar      1 <0>        -0.0819
     24 C21         3.0491   -6.6536   -1.6480 C.ar      1 <0>        -0.0975
     25 C22         3.4308   -5.7191   -2.6126 C.ar      1 <0>        -0.0910
     26 C23         3.4420   -4.3755   -2.3002 C.ar      1 <0>        -0.1106
     27 C24         3.0342   -8.0941   -1.9754 C.2       1 <0>         0.4864
     28 O3          3.3545   -8.4678   -3.0859 O.co2     1 <0>        -0.6285
     29 S1          3.5859    3.6288    1.5294 S.3       1 <0>        -0.0387
     30 C25         4.2280    5.2023    2.0773 C.2       1 <0>         0.5291
     31 O4          5.2329    5.4235    2.7260 O.2       1 <0>        -0.4224
     32 F1          0.9663    8.8943    6.6841 F         1 <0>        -0.1372
     33 H1          0.9771    8.3662    2.2119 H         1 <0>         0.1406
     34 H2         -0.1442    8.9607    4.3216 H         1 <0>         0.1389
     35 H3          3.4408    8.0883    6.4687 H         1 <0>         0.1390
     36 H4          4.5556    7.4846    4.3583 H         1 <0>         0.1379
     37 H5          4.5818    7.7300    1.9440 H         1 <0>         0.1079
     38 H6          3.0870    8.0939    1.0487 H         1 <0>         0.1119
     39 H7          0.2848    4.0655   -0.3282 H         1 <0>         0.1619
     40 H8         -0.6640    1.8514   -0.9928 H         1 <0>         0.1407
     41 H9         -0.3752   -0.5489   -1.4286 H         1 <0>         0.1416
     42 H10         3.6612   -0.3343   -0.0278 H         1 <0>         0.1390
     43 H11         3.3881    2.0658    0.4198 H         1 <0>         0.1356
     44 H12         3.8599   -1.9849   -1.2907 H         1 <0>         0.0728
     45 H13         3.3069   -2.3545    0.3603 H         1 <0>         0.0732
     46 H14         2.4214   -4.5383    0.9152 H         1 <0>         0.1181
     47 H15         2.3851   -6.9382    0.3783 H         1 <0>         0.1341
     48 H16         3.7163   -6.0473   -3.6011 H         1 <0>         0.1302
     49 H17         3.7368   -3.6515   -3.0455 H         1 <0>         0.1178
     50 O5          2.6654   -8.9931   -1.0425 O.co2     1 <0>        -0.7512
@<TRIPOS>BOND
     1    1    6 ar
     2    1    2 ar
     3    1   33 1
     4    2    3 ar
     5    2   34 1
     6    3    4 ar
     7    3   32 1
     8    4    5 ar
     9    4   35 1
    10    5    6 ar
    11    5   36 1
    12    6    7 1
    13    7    8 1
    14    7   37 1
    15    7   38 1
    16    8   30 am
    17    8    9 am
    18    9   10 2
    19    9   11 1
    20   11   12 2
    21   11   29 1
    22   12   13 1
    23   12   39 1
    24   13   18 ar
    25   13   14 ar
    26   14   15 ar
    27   14   40 1
    28   15   16 ar
    29   15   41 1
    30   16   17 ar
    31   16   19 1
    32   17   18 ar
    33   17   42 1
    34   18   43 1
    35   19   20 1
    36   20   21 1
    37   20   44 1
    38   20   45 1
    39   21   26 ar
    40   21   22 ar
    41   22   23 ar
    42   22   46 1
    43   23   24 ar
    44   23   47 1
    45   24   25 ar
    46   24   27 1
    47   25   26 ar
    48   25   48 1
    49   26   49 1
    50   27   28 2
    51   27   50 1
    52   29   30 1
    53   30   31 2
@<TRIPOS>MOLECULE
ZINC01104085
   48    51     0     0     0
SMALL
USER_CHARGES
3-benzyl-5-[(4-benzyloxyphenyl)methylene]thiazolidine-2,4-dione
@<TRIPOS>ATOM
      1 C1          9.1278   14.3315   -2.3553 C.ar      1 <0>        -0.1076
      2 C2          8.9120   14.2174   -0.9946 C.ar      1 <0>        -0.1232
      3 C3          9.2927   13.0675   -0.3285 C.ar      1 <0>        -0.0973
      4 C4          9.8885   12.0315   -1.0231 C.ar      1 <0>        -0.1223
      5 C5         10.1086   12.1475   -2.3829 C.ar      1 <0>        -0.0931
      6 C6          9.7240   13.2956   -3.0498 C.ar      1 <0>        -0.1238
      7 C7         10.3035   10.7779   -0.2969 C.3       1 <0>         0.1346
      8 N1          9.1953    9.8197   -0.3041 N.am      1 <0>        -0.5728
      9 C8          9.0971    8.9527   -1.2978 C.2       1 <0>         0.5608
     10 O1          9.9044    8.9298   -2.2083 O.2       1 <0>        -0.4697
     11 C9          7.9585    8.0141   -1.2470 C.2       1 <0>        -0.2251
     12 C10         7.6088    7.0305   -2.1141 C.2       1 <0>         0.0865
     13 C11         6.5358    6.0909   -1.7647 C.ar      1 <0>        -0.1403
     14 C12         6.0476    5.1938   -2.7228 C.ar      1 <0>        -0.0338
     15 C13         5.0419    4.3148   -2.3896 C.ar      1 <0>        -0.1561
     16 C14         4.5110    4.3167   -1.1048 C.ar      1 <0>         0.1627
     17 C15         4.9879    5.2089   -0.1514 C.ar      1 <0>        -0.2111
     18 C16         5.9973    6.0884   -0.4720 C.ar      1 <0>        -0.0417
     19 O2          3.5192    3.4477   -0.7816 O.3       1 <0>        -0.3018
     20 C17         3.0188    3.5026    0.5558 C.3       1 <0>         0.0990
     21 C18         1.9316    2.4734    0.7280 C.ar      1 <0>        -0.1015
     22 C19         2.2501    1.1948    1.1458 C.ar      1 <0>        -0.0944
     23 C20         1.2527    0.2508    1.3038 C.ar      1 <0>        -0.1228
     24 C21        -0.0625    0.5838    1.0388 C.ar      1 <0>        -0.1070
     25 C22        -0.3816    1.8639    0.6261 C.ar      1 <0>        -0.1228
     26 C23         0.6157    2.8081    0.4685 C.ar      1 <0>        -0.0943
     27 S1          7.1628    8.5348    0.2668 S.3       1 <0>        -0.0463
     28 C24         8.2986    9.8417    0.7029 C.2       1 <0>         0.5327
     29 O3          8.2676   10.5777    1.6708 O.2       1 <0>        -0.4184
     30 H1          8.8303   15.2299   -2.8757 H         1 <0>         0.1247
     31 H2          8.4462   15.0267   -0.4520 H         1 <0>         0.1255
     32 H3          9.1244   12.9785    0.7346 H         1 <0>         0.1263
     33 H4         10.5781   11.3398   -2.9248 H         1 <0>         0.1291
     34 H5          9.8923   13.3847   -4.1129 H         1 <0>         0.1254
     35 H6         10.5645   11.0238    0.7324 H         1 <0>         0.1062
     36 H7         11.1672   10.3382   -0.7956 H         1 <0>         0.1103
     37 H8          8.1198    6.9387   -3.0612 H         1 <0>         0.1634
     38 H9          6.4596    5.1912   -3.7211 H         1 <0>         0.1428
     39 H10         4.6649    3.6223   -3.1276 H         1 <0>         0.1409
     40 H11         4.5688    5.2091    0.8440 H         1 <0>         0.1374
     41 H12         6.3703    6.7779    0.2709 H         1 <0>         0.1380
     42 H13         2.6137    4.4954    0.7517 H         1 <0>         0.0763
     43 H14         3.8287    3.2961    1.2555 H         1 <0>         0.0761
     44 H15         3.2781    0.9333    1.3485 H         1 <0>         0.1247
     45 H16         1.5016   -0.7483    1.6300 H         1 <0>         0.1266
     46 H17        -0.8412   -0.1550    1.1580 H         1 <0>         0.1256
     47 H18        -1.4097    2.1253    0.4230 H         1 <0>         0.1266
     48 H19         0.3668    3.8072    0.1424 H         1 <0>         0.1248
@<TRIPOS>BOND
     1    1    6 ar
     2    1    2 ar
     3    1   30 1
     4    2    3 ar
     5    2   31 1
     6    3    4 ar
     7    3   32 1
     8    4    5 ar
     9    4    7 1
    10    5    6 ar
    11    5   33 1
    12    6   34 1
    13    7    8 1
    14    7   35 1
    15    7   36 1
    16    8   28 am
    17    8    9 am
    18    9   10 2
    19    9   11 1
    20   11   12 2
    21   11   27 1
    22   12   13 1
    23   12   37 1
    24   13   18 ar
    25   13   14 ar
    26   14   15 ar
    27   14   38 1
    28   15   16 ar
    29   15   39 1
    30   16   17 ar
    31   16   19 1
    32   17   18 ar
    33   17   40 1
    34   18   41 1
    35   19   20 1
    36   20   21 1
    37   20   42 1
    38   20   43 1
    39   21   26 ar
    40   21   22 ar
    41   22   23 ar
    42   22   44 1
    43   23   24 ar
    44   23   45 1
    45   24   25 ar
    46   24   46 1
    47   25   26 ar
    48   25   47 1
    49   26   48 1
    50   27   28 1
    51   28   29 2
@<TRIPOS>MOLECULE
ZINC03002717
   48    51     0     0     0
SMALL
USER_CHARGES
5-[(4-benzyloxyphenyl)methylene]-3-[(4-fluorophenyl)methyl]thiazolidine-2,4-dione
@<TRIPOS>ATOM
      1 C1         -0.0624    0.5839    1.0386 C.ar      1 <0>        -0.1069
      2 C2          1.2528    0.2508    1.3036 C.ar      1 <0>        -0.1228
      3 C3          2.2501    1.1949    1.1457 C.ar      1 <0>        -0.0943
      4 C4          1.9317    2.4735    0.7279 C.ar      1 <0>        -0.1016
      5 C5          0.6158    2.8082    0.4684 C.ar      1 <0>        -0.0943
      6 C6         -0.3815    1.8640    0.6258 C.ar      1 <0>        -0.1227
      7 C7          3.0189    3.5027    0.5558 C.3       1 <0>         0.0991
      8 O1          3.5194    3.4479   -0.7816 O.3       1 <0>        -0.3017
      9 C8          4.5112    4.3169   -1.1047 C.ar      1 <0>         0.1634
     10 C9          4.9880    5.2091   -0.1512 C.ar      1 <0>        -0.2112
     11 C10         5.9968    6.0892   -0.4720 C.ar      1 <0>        -0.0412
     12 C11         6.5354    6.0918   -1.7646 C.ar      1 <0>        -0.1412
     13 C12         6.0476    5.1944   -2.7227 C.ar      1 <0>        -0.0333
     14 C13         5.0422    4.3151   -2.3894 C.ar      1 <0>        -0.1562
     15 C14         7.6081    7.0317   -2.1141 C.2       1 <0>         0.0884
     16 C15         7.9574    8.0156   -1.2470 C.2       1 <0>        -0.2270
     17 C16         9.0957    8.9545   -1.2979 C.2       1 <0>         0.5612
     18 O2          9.9030    8.9318   -2.2084 O.2       1 <0>        -0.4699
     19 N1          9.1934    9.8217   -0.3043 N.am      1 <0>        -0.5738
     20 C17         8.2967    9.8435    0.7027 C.2       1 <0>         0.5320
     21 O3          8.2656   10.5793    1.6708 O.2       1 <0>        -0.4183
     22 S1          7.1614    8.5361    0.2666 S.3       1 <0>        -0.0444
     23 C18        10.3013   10.7803   -0.2972 C.3       1 <0>         0.1358
     24 C19         9.8859   12.0336   -1.0236 C.ar      1 <0>        -0.1338
     25 C20        10.1064   12.1490   -2.3834 C.ar      1 <0>        -0.0629
     26 C21         9.7207   13.2956   -3.0516 C.ar      1 <0>        -0.1571
     27 C22         9.1240   14.3338   -2.3565 C.ar      1 <0>         0.1115
     28 C23         8.9088   14.2193   -0.9935 C.ar      1 <0>        -0.1566
     29 C24         9.2897   13.0693   -0.3285 C.ar      1 <0>        -0.0671
     30 F1          8.7524   15.4577   -3.0075 F         1 <0>        -0.1361
     31 H1         -0.8410   -0.1550    1.1576 H         1 <0>         0.1257
     32 H2          1.5017   -0.7482    1.6297 H         1 <0>         0.1266
     33 H3          3.2782    0.9334    1.3485 H         1 <0>         0.1247
     34 H4          0.3669    3.8073    0.1423 H         1 <0>         0.1248
     35 H5         -1.4095    2.1254    0.4227 H         1 <0>         0.1267
     36 H6          2.6138    4.4955    0.7517 H         1 <0>         0.0763
     37 H7          3.8288    3.2963    1.2555 H         1 <0>         0.0762
     38 H8          4.5690    5.2090    0.8442 H         1 <0>         0.1375
     39 H9          6.3693    6.7791    0.2707 H         1 <0>         0.1378
     40 H10         6.4597    5.1918   -3.7209 H         1 <0>         0.1430
     41 H11         4.6655    3.6223   -3.1274 H         1 <0>         0.1411
     42 H12         8.1191    6.9400   -3.0611 H         1 <0>         0.1636
     43 H13        10.5621   11.0264    0.7321 H         1 <0>         0.1089
     44 H14        11.1652   10.3408   -0.7957 H         1 <0>         0.1129
     45 H15        10.5765   11.3412   -2.9245 H         1 <0>         0.1404
     46 H16         9.8894   13.3839   -4.1147 H         1 <0>         0.1395
     47 H17         8.4431   15.0283   -0.4503 H         1 <0>         0.1395
     48 H18         9.1220   12.9798    0.7346 H         1 <0>         0.1378
@<TRIPOS>BOND
     1    1    6 ar
     2    1    2 ar
     3    1   31 1
     4    2    3 ar
     5    2   32 1
     6    3    4 ar
     7    3   33 1
     8    4    5 ar
     9    4    7 1
    10    5    6 ar
    11    5   34 1
    12    6   35 1
    13    7    8 1
    14    7   36 1
    15    7   37 1
    16    8    9 1
    17    9   14 ar
    18    9   10 ar
    19   10   11 ar
    20   10   38 1
    21   11   12 ar
    22   11   39 1
    23   12   13 ar
    24   12   15 1
    25   13   14 ar
    26   13   40 1
    27   14   41 1
    28   15   16 2
    29   15   42 1
    30   16   22 1
    31   16   17 1
    32   17   18 2
    33   17   19 am
    34   19   20 am
    35   19   23 1
    36   20   21 2
    37   20   22 1
    38   23   24 1
    39   23   43 1
    40   23   44 1
    41   24   29 ar
    42   24   25 ar
    43   25   26 ar
    44   25   45 1
    45   26   27 ar
    46   26   46 1
    47   27   28 ar
    48   27   30 1
    49   28   29 ar
    50   28   47 1
    51   29   48 1
@<TRIPOS>MOLECULE
ZINC33293951
   44    47     0     0     0
SMALL
USER_CHARGES
(5Z)-3-benzyl-5-[(1,3-dimethyl-2-oxo-benzimidazol-5-yl)methylene]thiazolidine-2,4-dione
@<TRIPOS>ATOM
      1 C1          1.2884   -6.5366  -10.0176 C.3       1 <0>         0.0944
      2 N1          2.3488   -5.7402   -9.3951 N.am      1 <0>        -0.5387
      3 C2          2.3777   -5.3194   -8.0707 C.ar      1 <0>         0.1192
      4 C3          1.5073   -5.4899   -7.0007 C.ar      1 <0>        -0.1023
      5 C4          1.8051   -4.9532   -5.7802 C.ar      1 <0>        -0.0780
      6 C5          2.9846   -4.2176   -5.6012 C.ar      1 <0>        -0.0897
      7 C6          3.8662   -4.0418   -6.6735 C.ar      1 <0>        -0.0586
      8 C7          3.5614   -4.5922   -7.9043 C.ar      1 <0>         0.0841
      9 N2          4.2124   -4.5965   -9.1363 N.am      1 <0>        -0.5402
     10 C8          3.4600   -5.2928  -10.0091 C.2       1 <0>         0.6785
     11 O1          3.7416   -5.4877  -11.1767 O.2       1 <0>        -0.5453
     12 C9          5.4951   -3.9532   -9.4315 C.3       1 <0>         0.0915
     13 C10         3.2976   -3.6376   -4.2889 C.2       1 <0>         0.0782
     14 C11         2.3226   -3.5094   -3.3536 C.2       1 <0>        -0.2139
     15 C12         2.4244   -3.1052   -1.9371 C.2       1 <0>         0.5598
     16 O2          3.4931   -2.8224   -1.4282 O.2       1 <0>        -0.4674
     17 N3          1.2956   -3.0662   -1.2494 N.am      1 <0>        -0.5727
     18 C13         0.1141   -3.3856   -1.8158 C.2       1 <0>         0.5372
     19 O3         -0.9898   -3.3974   -1.3051 O.2       1 <0>        -0.4156
     20 S1          0.5621   -3.7843   -3.4977 S.3       1 <0>        -0.0435
     21 C14         1.3300   -2.6730    0.1614 C.3       1 <0>         0.1319
     22 C15         1.1606   -1.1796    0.2709 C.ar      1 <0>        -0.1222
     23 C16        -0.1041   -0.6342    0.3891 C.ar      1 <0>        -0.0973
     24 C17        -0.2594    0.7356    0.4904 C.ar      1 <0>        -0.1230
     25 C18         0.8501    1.5601    0.4737 C.ar      1 <0>        -0.1075
     26 C19         2.1147    1.0148    0.3542 C.ar      1 <0>        -0.1238
     27 C20         2.2701   -0.3551    0.2537 C.ar      1 <0>        -0.0933
     28 H1          0.5086   -6.7547   -9.2731 H         1 <0>         0.0925
     29 H2          1.7110   -7.4802  -10.3931 H         1 <0>         0.0803
     30 H3          0.8495   -5.9729  -10.8540 H         1 <0>         0.0804
     31 H4          0.5947   -6.0519   -7.1334 H         1 <0>         0.1400
     32 H5          1.1271   -5.0928   -4.9512 H         1 <0>         0.1461
     33 H6          4.7786   -3.4795   -6.5405 H         1 <0>         0.1430
     34 H7          5.7576   -4.1254  -10.4858 H         1 <0>         0.0983
     35 H8          6.2763   -4.3792   -8.7848 H         1 <0>         0.0784
     36 H9          5.4144   -2.8720   -9.2455 H         1 <0>         0.0782
     37 H10         4.3224   -3.3070   -4.0640 H         1 <0>         0.1694
     38 H11         0.5142   -3.1752    0.7020 H         1 <0>         0.1082
     39 H12         2.2953   -2.9657    0.6002 H         1 <0>         0.1123
     40 H13        -0.9708   -1.2784    0.4025 H         1 <0>         0.1264
     41 H14        -1.2477    1.1620    0.5782 H         1 <0>         0.1255
     42 H15         0.7287    2.6304    0.5526 H         1 <0>         0.1246
     43 H16         2.9815    1.6590    0.3411 H         1 <0>         0.1253
     44 H17         3.2582   -0.7812    0.1622 H         1 <0>         0.1292
@<TRIPOS>BOND
     1    1    2 1
     2    1   28 1
     3    1   29 1
     4    1   30 1
     5    2   10 am
     6    2    3 1
     7    3    8 ar
     8    3    4 ar
     9    4    5 ar
    10    4   31 1
    11    5    6 ar
    12    5   32 1
    13    6    7 ar
    14    6   13 1
    15    7    8 ar
    16    7   33 1
    17    8    9 1
    18    9   10 am
    19    9   12 1
    20   10   11 2
    21   12   34 1
    22   12   35 1
    23   12   36 1
    24   13   14 2
    25   13   37 1
    26   14   20 1
    27   14   15 1
    28   15   16 2
    29   15   17 am
    30   17   18 am
    31   17   21 1
    32   18   19 2
    33   18   20 1
    34   21   22 1
    35   21   38 1
    36   21   39 1
    37   22   27 ar
    38   22   23 ar
    39   23   24 ar
    40   23   40 1
    41   24   25 ar
    42   24   41 1
    43   25   26 ar
    44   25   42 1
    45   26   27 ar
    46   26   43 1
    47   27   44 1
@<TRIPOS>MOLECULE
ZINC08438335
   46    50     0     0     0
SMALL
USER_CHARGES
N-(3-chlorophenyl)-2-[6-(1,3-dioxoisoindolin-2-yl)benzothiazol-2-yl]sulfanyl-acetamide
@<TRIPOS>ATOM
      1 C1          6.0911   -3.2299  -10.8262 C.ar      1 <0>        -0.0910
      2 C2          5.1237   -2.5575  -11.5491 C.ar      1 <0>        -0.0907
      3 C3          4.1219   -1.8543  -10.8983 C.ar      1 <0>        -0.0387
      4 C4          4.0909   -1.8263   -9.5133 C.ar      1 <0>        -0.1386
      5 C5          5.0772   -2.5124   -8.7760 C.ar      1 <0>        -0.1392
      6 C6          6.0722   -3.2115   -9.4402 C.ar      1 <0>        -0.0385
      7 C7          4.7532   -2.2794   -7.3528 C.2       1 <0>         0.5780
      8 O1          5.3766   -2.7109   -6.4040 O.2       1 <0>        -0.4438
      9 N1          3.6522   -1.5095   -7.2842 N.am      1 <0>        -0.5178
     10 C8          3.1980   -1.2041   -8.5131 C.2       1 <0>         0.5751
     11 O2          2.2194   -0.5283   -8.7594 O.2       1 <0>        -0.4441
     12 C9          3.0529   -1.0857   -6.0882 C.ar      1 <0>         0.1504
     13 C10         3.5920   -1.4575   -4.8592 C.ar      1 <0>        -0.1257
     14 C11         3.0238   -1.0560   -3.6792 C.ar      1 <0>        -0.0379
     15 C12         1.8646   -0.2462   -3.6718 C.ar      1 <0>         0.0792
     16 C13         1.3434    0.1130   -4.9354 C.ar      1 <0>        -0.1310
     17 C14         1.9148   -0.2907   -6.1155 C.ar      1 <0>        -0.0817
     18 S1         -0.0719    1.0938   -4.4970 S.3       1 <0>         0.0697
     19 C15         0.1150    0.9787   -2.7234 C.2       1 <0>         0.0957
     20 N2          1.1880    0.2301   -2.6025 N.2       1 <0>        -0.5027
     21 S2         -0.8889    1.6835   -1.4584 S.3       1 <0>         0.1362
     22 C16        -0.0164    1.0801    0.0081 C.3       1 <0>        -0.1615
     23 C17        -0.7169    1.5732    1.2478 C.2       1 <0>         0.5344
     24 O3         -1.7086    2.2646    1.1496 O.2       1 <0>        -0.4991
     25 N3         -0.2416    1.2460    2.4658 N.am      1 <0>        -0.6642
     26 C18        -0.8333    1.7819    3.6149 C.ar      1 <0>         0.1529
     27 C19        -0.0523    2.0859    4.7226 C.ar      1 <0>        -0.1372
     28 C20        -0.6378    2.6197    5.8537 C.ar      1 <0>        -0.0871
     29 C21        -2.0022    2.8417    5.8888 C.ar      1 <0>        -0.1221
     30 C22        -2.7844    2.5353    4.7892 C.ar      1 <0>        -0.0167
     31 C23        -2.2029    2.0056    3.6522 C.ar      1 <0>        -0.1136
     32 Cl1        -4.4969    2.8156    4.8375 Cl        1 <0>        -0.0606
     33 H1          6.8666   -3.7739  -11.3447 H         1 <0>         0.1469
     34 H2          5.1487   -2.5799  -12.6286 H         1 <0>         0.1469
     35 H3          3.3687   -1.3307  -11.4683 H         1 <0>         0.1465
     36 H4          6.8306   -3.7386   -8.8804 H         1 <0>         0.1466
     37 H5          4.4770   -2.0761   -4.8359 H         1 <0>         0.1668
     38 H6          3.4665   -1.3621   -2.7429 H         1 <0>         0.1444
     39 H7          1.4827    0.0080   -7.0591 H         1 <0>         0.1659
     40 H8         -0.0095   -0.0099    0.0039 H         1 <0>         0.1341
     41 H9          1.0089    1.4499   -0.0013 H         1 <0>         0.1343
     42 H10         0.5107    0.6389    2.5457 H         1 <0>         0.4182
     43 H11         1.0128    1.9084    4.6979 H         1 <0>         0.1342
     44 H12        -0.0300    2.8595    6.7136 H         1 <0>         0.1392
     45 H13        -2.4584    3.2548    6.7763 H         1 <0>         0.1367
     46 H14        -2.8134    1.7664    2.7940 H         1 <0>         0.1513
@<TRIPOS>BOND
     1    1    6 ar
     2    1    2 ar
     3    1   33 1
     4    2    3 ar
     5    2   34 1
     6    3    4 ar
     7    3   35 1
     8    4   10 1
     9    4    5 ar
    10    5    6 ar
    11    5    7 1
    12    6   36 1
    13    7    8 2
    14    7    9 am
    15    9   10 am
    16    9   12 1
    17   10   11 2
    18   12   17 ar
    19   12   13 ar
    20   13   14 ar
    21   13   37 1
    22   14   15 ar
    23   14   38 1
    24   15   20 1
    25   15   16 ar
    26   16   17 ar
    27   16   18 1
    28   17   39 1
    29   18   19 1
    30   19   20 2
    31   19   21 1
    32   21   22 1
    33   22   23 1
    34   22   40 1
    35   22   41 1
    36   23   24 2
    37   23   25 am
    38   25   26 1
    39   25   42 1
    40   26   31 ar
    41   26   27 ar
    42   27   28 ar
    43   27   43 1
    44   28   29 ar
    45   28   44 1
    46   29   30 ar
    47   29   45 1
    48   30   31 ar
    49   30   32 1
    50   31   46 1
@<TRIPOS>MOLECULE
ZINC00985827
   58    61     0     0     0
SMALL
USER_CHARGES

@<TRIPOS>ATOM
      1 C1         -0.0187    1.5258    0.0104 C.3       1 <0>        -0.1490
      2 C2          0.0021   -0.0041    0.0020 C.3       1 <0>        -0.0897
      3 C3          0.7421   -0.5109    1.2415 C.3       1 <0>        -0.1518
      4 C4         -1.4333   -0.5336    0.0129 C.3       1 <0>        -0.0804
      5 C5         -1.4159   -2.0348   -0.1192 C.ar      1 <0>        -0.0639
      6 C6         -1.4498   -2.6166   -1.3736 C.ar      1 <0>        -0.1189
      7 C7         -1.4336   -3.9908   -1.5004 C.ar      1 <0>        -0.0825
      8 C8         -1.3831   -4.7923   -0.3618 C.ar      1 <0>        -0.0215
      9 C9         -1.3491   -4.2010    0.8992 C.ar      1 <0>        -0.0876
     10 C10        -1.3604   -2.8256    1.0143 C.ar      1 <0>        -0.1160
     11 C11        -1.3660   -6.2707   -0.4919 C.2       1 <0>         0.1630
     12 C12        -0.6803   -7.1616    0.3392 C.2       1 <0>        -0.2442
     13 C13        -0.9192   -8.4279   -0.1105 C.2       1 <0>         0.2717
     14 N1         -1.7259   -8.3355   -1.1881 N.pl3     1 <0>        -0.4469
     15 H1         -2.0610   -9.0777   -1.7150 H         1 <0>         0.4475
     16 N2         -1.9997   -6.9767   -1.4090 N.2       1 <0>        -0.2521
     17 O1         -0.3959   -9.5279    0.4864 O.3       1 <0>        -0.2306
     18 C14         0.1525   -9.3740    1.7087 C.2       1 <0>         0.4336
     19 C15         0.4462   -8.1734    2.2554 C.2       1 <0>        -0.2524
     20 C16         0.1889   -6.8729    1.5357 C.3       1 <0>         0.1258
     21 H2         -0.3223   -6.1786    2.2026 H         1 <0>         0.0933
     22 C17         1.4957   -6.2748    1.0823 C.ar      1 <0>        -0.1286
     23 C18         2.3214   -6.9861    0.2310 C.ar      1 <0>        -0.0505
     24 C19         3.5197   -6.4410   -0.1863 C.ar      1 <0>        -0.1976
     25 C20         3.8952   -5.1768    0.2500 C.ar      1 <0>         0.2151
     26 C21         3.0634   -4.4651    1.1051 C.ar      1 <0>        -0.1935
     27 C22         1.8639   -5.0138    1.5141 C.ar      1 <0>        -0.0552
     28 N3          5.1067   -4.6226   -0.1698 N.pl3     1 <0>        -0.6394
     29 C23         5.9829   -5.3749   -1.0713 C.3       1 <0>         0.0937
     30 C24         5.5011   -3.2892    0.2913 C.3       1 <0>         0.0937
     31 C25         1.0227   -8.1344    3.5656 C.1       1 <0>         0.2725
     32 N4          1.4801   -8.1035    4.6050 N.1       1 <0>        -0.4393
     33 N5          0.4280  -10.5023    2.4404 N.pl3     1 <0>        -0.8326
     34 H3          1.0039    1.9031    0.0027 H         1 <0>         0.0550
     35 H4         -0.5459    1.8868   -0.8726 H         1 <0>         0.0542
     36 H5         -0.5289    1.8773    0.9072 H         1 <0>         0.0550
     37 H6          0.5123   -0.3556   -0.8948 H         1 <0>         0.0704
     38 H7          0.7568   -1.6008    1.2356 H         1 <0>         0.0621
     39 H8          1.7647   -0.1336    1.2338 H         1 <0>         0.0518
     40 H9          0.2319   -0.1594    2.1383 H         1 <0>         0.0535
     41 H10        -1.9156   -0.2570    0.9504 H         1 <0>         0.0735
     42 H11        -1.9862   -0.1019   -0.8214 H         1 <0>         0.0727
     43 H12        -1.4893   -1.9943   -2.2555 H         1 <0>         0.1235
     44 H13        -1.4604   -4.4441   -2.4803 H         1 <0>         0.1253
     45 H14        -1.3103   -4.8177    1.7850 H         1 <0>         0.1274
     46 H15        -1.3296   -2.3661    1.9911 H         1 <0>         0.1257
     47 H16         2.0290   -7.9691   -0.1075 H         1 <0>         0.1091
     48 H17         4.1642   -6.9971   -0.8509 H         1 <0>         0.1181
     49 H18         3.3526   -3.4821    1.4465 H         1 <0>         0.1201
     50 H19         1.2147   -4.4592    2.1754 H         1 <0>         0.1182
     51 H20         5.7274   -5.1414   -2.1049 H         1 <0>         0.0471
     52 H21         7.0206   -5.0999   -0.8826 H         1 <0>         0.0651
     53 H22         5.8526   -6.4429   -0.8972 H         1 <0>         0.0676
     54 H23         6.0718   -3.3786    1.2157 H         1 <0>         0.0469
     55 H24         6.1155   -2.8085   -0.4699 H         1 <0>         0.0649
     56 H25         4.6096   -2.6885    0.4713 H         1 <0>         0.0691
     57 H26         0.2281  -11.3783    2.0748 H         1 <0>         0.4106
     58 H27         0.8226  -10.4237    3.3230 H         1 <0>         0.4275
@<TRIPOS>BOND
     1    1    2 1
     2    1   34 1
     3    1   35 1
     4    1   36 1
     5    2    3 1
     6    2    4 1
     7    2   37 1
     8    3   38 1
     9    3   39 1
    10    3   40 1
    11    4    5 1
    12    4   41 1
    13    4   42 1
    14    5   10 ar
    15    5    6 ar
    16    6    7 ar
    17    6   43 1
    18    7    8 ar
    19    7   44 1
    20    8    9 ar
    21    8   11 1
    22    9   10 ar
    23    9   45 1
    24   10   46 1
    25   11   16 2
    26   11   12 1
    27   12   20 1
    28   12   13 2
    29   13   14 1
    30   13   17 1
    31   14   15 1
    32   14   16 1
    33   17   18 1
    34   18   19 2
    35   18   33 1
    36   19   20 1
    37   19   31 1
    38   20   21 1
    39   20   22 1
    40   22   27 ar
    41   22   23 ar
    42   23   24 ar
    43   23   47 1
    44   24   25 ar
    45   24   48 1
    46   25   26 ar
    47   25   28 1
    48   26   27 ar
    49   26   49 1
    50   27   50 1
    51   28   29 1
    52   28   30 1
    53   29   51 1
    54   29   52 1
    55   29   53 1
    56   30   54 1
    57   30   55 1
    58   30   56 1
    59   31   32 3
    60   33   57 1
    61   33   58 1
@<TRIPOS>MOLECULE
ZINC00985828
   58    61     0     0     0
SMALL
USER_CHARGES

@<TRIPOS>ATOM
      1 C1         -2.5417    1.0511    1.0852 C.3       1 <0>        -0.1491
      2 C2         -2.4526   -0.4761    1.0614 C.3       1 <0>        -0.0894
      3 C3         -3.7230   -1.0707    1.6723 C.3       1 <0>        -0.1510
      4 C4         -2.3089   -0.9561   -0.3843 C.3       1 <0>        -0.0803
      5 C5         -2.0981   -2.4482   -0.3996 C.ar      1 <0>        -0.0645
      6 C6         -0.8159   -2.9635   -0.3384 C.ar      1 <0>        -0.1171
      7 C7         -0.6171   -4.3293   -0.3516 C.ar      1 <0>        -0.0863
      8 C8         -1.7107   -5.1892   -0.4268 C.ar      1 <0>        -0.0205
      9 C9         -3.0000   -4.6647   -0.4882 C.ar      1 <0>        -0.0834
     10 C10        -3.1877   -3.2974   -0.4690 C.ar      1 <0>        -0.1160
     11 C11        -1.5030   -6.6587   -0.4418 C.2       1 <0>         0.1628
     12 C12        -0.6003   -7.3700    0.3542 C.2       1 <0>        -0.2436
     13 C13        -0.7125   -8.6937    0.0406 C.2       1 <0>         0.2711
     14 N1         -1.6545   -8.8099   -0.9183 N.pl3     1 <0>        -0.4471
     15 H1         -1.9463   -9.6364   -1.3338 H         1 <0>         0.4475
     16 N2         -2.1419   -7.5253   -1.2048 N.2       1 <0>        -0.2512
     17 O1          0.0355   -9.6539    0.6394 O.3       1 <0>        -0.2306
     18 C14         1.0987   -9.2548    1.3666 C.2       1 <0>         0.4335
     19 C15         1.3112   -7.9758    1.7484 C.2       1 <0>        -0.2522
     20 C16         0.3611   -6.8586    1.3957 C.3       1 <0>         0.1268
     21 H2          0.9205   -6.0128    0.9961 H         1 <0>         0.0928
     22 C17        -0.4002   -6.4310    2.6240 C.ar      1 <0>        -0.1276
     23 C18        -1.2384   -7.3265    3.2626 C.ar      1 <0>        -0.0507
     24 C19        -1.9375   -6.9380    4.3884 C.ar      1 <0>        -0.1976
     25 C20        -1.7979   -5.6460    4.8793 C.ar      1 <0>         0.2150
     26 C21        -0.9550   -4.7490    4.2354 C.ar      1 <0>        -0.1936
     27 C22        -0.2545   -5.1459    3.1133 C.ar      1 <0>        -0.0554
     28 N3         -2.5038   -5.2496    6.0175 N.pl3     1 <0>        -0.6394
     29 C23        -3.3927   -6.1968    6.6950 C.3       1 <0>         0.0937
     30 C24        -2.3553   -3.8867    6.5338 C.3       1 <0>         0.0939
     31 C25         2.4804   -7.6704    2.5166 C.1       1 <0>         0.2726
     32 N4          3.4080   -7.4281    3.1260 N.1       1 <0>        -0.4397
     33 N5          2.0188  -10.2025    1.7404 N.pl3     1 <0>        -0.8327
     34 H3         -2.6440    1.3931    2.1151 H         1 <0>         0.0550
     35 H4         -1.6366    1.4747    0.6500 H         1 <0>         0.0546
     36 H5         -3.4080    1.3736    0.5076 H         1 <0>         0.0546
     37 H6         -1.5863   -0.7986    1.6390 H         1 <0>         0.0715
     38 H7         -3.6595   -2.1587    1.6553 H         1 <0>         0.0608
     39 H8         -3.8254   -0.7288    2.7022 H         1 <0>         0.0517
     40 H9         -4.5893   -0.7483    1.0946 H         1 <0>         0.0527
     41 H10        -3.2141   -0.7113   -0.9400 H         1 <0>         0.0727
     42 H11        -1.4539   -0.4635   -0.8474 H         1 <0>         0.0733
     43 H12         0.0311   -2.2961   -0.2805 H         1 <0>         0.1252
     44 H13         0.3844   -4.7307   -0.3042 H         1 <0>         0.1261
     45 H14        -3.8512   -5.3268   -0.5469 H         1 <0>         0.1242
     46 H15        -4.1869   -2.8898   -0.5120 H         1 <0>         0.1237
     47 H16        -1.3468   -8.3307    2.8802 H         1 <0>         0.1089
     48 H17        -2.5923   -7.6377    4.8865 H         1 <0>         0.1180
     49 H18        -0.8445   -3.7437    4.6143 H         1 <0>         0.1199
     50 H19         0.4043   -4.4504    2.6148 H         1 <0>         0.1181
     51 H20        -2.8322   -6.7411    7.4551 H         1 <0>         0.0467
     52 H21        -4.2112   -5.6531    7.1668 H         1 <0>         0.0652
     53 H22        -3.7960   -6.9009    5.9672 H         1 <0>         0.0678
     54 H23        -3.0994   -3.2393    6.0698 H         1 <0>         0.0475
     55 H24        -2.4995   -3.8897    7.6142 H         1 <0>         0.0646
     56 H25        -1.3566   -3.5170    6.3016 H         1 <0>         0.0684
     57 H26         1.8937  -11.1287    1.4810 H         1 <0>         0.4106
     58 H27         2.7941   -9.9458    2.2638 H         1 <0>         0.4275
@<TRIPOS>BOND
     1    1    2 1
     2    1   34 1
     3    1   35 1
     4    1   36 1
     5    2    3 1
     6    2    4 1
     7    2   37 1
     8    3   38 1
     9    3   39 1
    10    3   40 1
    11    4    5 1
    12    4   41 1
    13    4   42 1
    14    5   10 ar
    15    5    6 ar
    16    6    7 ar
    17    6   43 1
    18    7    8 ar
    19    7   44 1
    20    8    9 ar
    21    8   11 1
    22    9   10 ar
    23    9   45 1
    24   10   46 1
    25   11   16 2
    26   11   12 1
    27   12   20 1
    28   12   13 2
    29   13   14 1
    30   13   17 1
    31   14   15 1
    32   14   16 1
    33   17   18 1
    34   18   19 2
    35   18   33 1
    36   19   20 1
    37   19   31 1
    38   20   21 1
    39   20   22 1
    40   22   27 ar
    41   22   23 ar
    42   23   24 ar
    43   23   47 1
    44   24   25 ar
    45   24   48 1
    46   25   26 ar
    47   25   28 1
    48   26   27 ar
    49   26   49 1
    50   27   50 1
    51   28   29 1
    52   28   30 1
    53   29   51 1
    54   29   52 1
    55   29   53 1
    56   30   54 1
    57   30   55 1
    58   30   56 1
    59   31   32 3
    60   33   57 1
    61   33   58 1
@<TRIPOS>MOLECULE
ZINC08438953
   57    60     0     0     0
SMALL
USER_CHARGES
4-[[4-[(3-benzyl-2,4-dioxo-thiazolidin-5-ylidene)methyl]-2-ethoxy-phenoxy]methyl]benzoic acid
@<TRIPOS>ATOM
      1 C1          4.7118    9.3108    0.0834 C.3       1 <0>        -0.1525
      2 C2          4.0610    7.9261    0.0745 C.3       1 <0>         0.0502
      3 O1          2.6438    8.0651    0.1941 O.3       1 <0>        -0.2957
      4 C3          1.9097    6.9204    0.2025 C.ar      1 <0>         0.1028
      5 C4          2.5398    5.6956    0.1030 C.ar      1 <0>        -0.1435
      6 C5          1.7801    4.5194    0.1062 C.ar      1 <0>        -0.1124
      7 C6          0.3864    4.5917    0.2210 C.ar      1 <0>        -0.0623
      8 C7         -0.2328    5.8178    0.3250 C.ar      1 <0>        -0.1866
      9 C8          0.5214    6.9836    0.3164 C.ar      1 <0>         0.1450
     10 O2         -0.0952    8.1897    0.4198 O.3       1 <0>        -0.2861
     11 C9         -1.5196    8.1824    0.5340 C.3       1 <0>         0.1055
     12 C10        -2.0225    9.5992    0.6377 C.ar      1 <0>        -0.1130
     13 C11        -2.1617   10.1914    1.8805 C.ar      1 <0>        -0.1110
     14 C12        -2.6169   11.4896    1.9823 C.ar      1 <0>        -0.0820
     15 C13        -2.9476   12.2025    0.8282 C.ar      1 <0>        -0.0981
     16 C14        -2.8098   11.5971   -0.4224 C.ar      1 <0>        -0.0910
     17 C15        -2.3484   10.3000   -0.5100 C.ar      1 <0>        -0.1101
     18 C16        -3.4406   13.5914    0.9298 C.2       1 <0>         0.4868
     19 O3         -3.7271   14.2093   -0.0759 O.co2     1 <0>        -0.6289
     20 C17         2.4432    3.2139   -0.0044 C.2       1 <0>         0.0942
     21 C18         3.7688    3.1481   -0.2881 C.2       1 <0>        -0.2293
     22 C19         4.6725    1.9806   -0.2970 C.2       1 <0>         0.5627
     23 O4          4.2753    0.8626   -0.0259 O.2       1 <0>        -0.4722
     24 N1          5.9352    2.2109   -0.6154 N.am      1 <0>        -0.5729
     25 C20         6.3712    3.4513   -0.9152 C.2       1 <0>         0.5319
     26 O5          7.4943    3.8037   -1.2217 O.2       1 <0>        -0.4207
     27 S1          4.9009    4.4513   -0.7526 S.3       1 <0>        -0.0493
     28 C21         6.8819    1.0932   -0.6425 C.3       1 <0>         0.1346
     29 C22         7.5109    0.9346    0.7178 C.ar      1 <0>        -0.1215
     30 C23         8.6793    1.6079    1.0218 C.ar      1 <0>        -0.0973
     31 C24         9.2537    1.4662    2.2711 C.ar      1 <0>        -0.1234
     32 C25         8.6651    0.6433    3.2131 C.ar      1 <0>        -0.1084
     33 C26         7.4997   -0.0345    2.9072 C.ar      1 <0>        -0.1240
     34 C27         6.9226    0.1114    1.6596 C.ar      1 <0>        -0.0932
     35 H1          5.7928    9.2047   -0.0078 H         1 <0>         0.0787
     36 H2          4.3322    9.8960   -0.7541 H         1 <0>         0.0693
     37 H3          4.4741    9.8180    1.0185 H         1 <0>         0.0692
     38 H4          4.4406    7.3408    0.9121 H         1 <0>         0.0619
     39 H5          4.2987    7.4189   -0.8605 H         1 <0>         0.0620
     40 H6          3.6153    5.6453    0.0189 H         1 <0>         0.1452
     41 H7         -0.2028    3.6866    0.2276 H         1 <0>         0.1393
     42 H8         -1.3078    5.8724    0.4131 H         1 <0>         0.1464
     43 H9         -1.9522    7.7068   -0.3462 H         1 <0>         0.0717
     44 H10        -1.8098    7.6276    1.4263 H         1 <0>         0.0719
     45 H11        -1.9095    9.6373    2.7725 H         1 <0>         0.1176
     46 H12        -2.7208   11.9521    2.9527 H         1 <0>         0.1335
     47 H13        -3.0634   12.1431   -1.3190 H         1 <0>         0.1297
     48 H14        -2.2410    9.8306   -1.4767 H         1 <0>         0.1174
     49 H15         1.8762    2.3062    0.1401 H         1 <0>         0.1645
     50 H16         6.3548    0.1769   -0.9081 H         1 <0>         0.1098
     51 H17         7.6585    1.2927   -1.3808 H         1 <0>         0.1056
     52 H18         9.1414    2.2476    0.2844 H         1 <0>         0.1265
     53 H19        10.1643    1.9954    2.5100 H         1 <0>         0.1250
     54 H20         9.1158    0.5297    4.1879 H         1 <0>         0.1240
     55 H21         7.0401   -0.6776    3.6430 H         1 <0>         0.1250
     56 H22         6.0121   -0.4182    1.4206 H         1 <0>         0.1293
     57 O6         -3.5724   14.1727    2.1379 O.co2     1 <0>        -0.7519
@<TRIPOS>BOND
     1    1    2 1
     2    1   35 1
     3    1   36 1
     4    1   37 1
     5    2    3 1
     6    2   38 1
     7    2   39 1
     8    3    4 1
     9    4    9 ar
    10    4    5 ar
    11    5    6 ar
    12    5   40 1
    13    6    7 ar
    14    6   20 1
    15    7    8 ar
    16    7   41 1
    17    8    9 ar
    18    8   42 1
    19    9   10 1
    20   10   11 1
    21   11   12 1
    22   11   43 1
    23   11   44 1
    24   12   17 ar
    25   12   13 ar
    26   13   14 ar
    27   13   45 1
    28   14   15 ar
    29   14   46 1
    30   15   16 ar
    31   15   18 1
    32   16   17 ar
    33   16   47 1
    34   17   48 1
    35   18   19 2
    36   18   57 1
    37   20   21 2
    38   20   49 1
    39   21   27 1
    40   21   22 1
    41   22   23 2
    42   22   24 am
    43   24   25 am
    44   24   28 1
    45   25   26 2
    46   25   27 1
    47   28   29 1
    48   28   50 1
    49   28   51 1
    50   29   34 ar
    51   29   30 ar
    52   30   31 ar
    53   30   52 1
    54   31   32 ar
    55   31   53 1
    56   32   33 ar
    57   32   54 1
    58   33   34 ar
    59   33   55 1
    60   34   56 1
@<TRIPOS>MOLECULE
ZINC15010106
   54    57     0     0     0
SMALL
USER_CHARGES
4-[[4-[(Z)-[3-[(4-fluorophenyl)methyl]-2,4-dioxo-thiazolidin-5-ylidene]methyl]-2-methoxy-phenoxy]methyl]benzoic acid
@<TRIPOS>ATOM
      1 C1          2.3198    3.9779    1.0657 C.3       1 <0>         0.0236
      2 O1          1.0768    3.3295    0.7888 O.3       1 <0>        -0.2981
      3 C2          1.1291    2.0138    0.4488 C.ar      1 <0>         0.0952
      4 C3          2.3467    1.3655    0.3841 C.ar      1 <0>        -0.1331
      5 C4          2.3964    0.0107    0.0337 C.ar      1 <0>        -0.1103
      6 C5          1.2110   -0.6788   -0.2490 C.ar      1 <0>        -0.0699
      7 C6          0.0011   -0.0236   -0.1818 C.ar      1 <0>        -0.1812
      8 C7         -0.0468    1.3199    0.1657 C.ar      1 <0>         0.1470
      9 O2         -1.2426    1.9618    0.2247 O.3       1 <0>        -0.2861
     10 C8         -2.4074    1.1932   -0.0829 C.3       1 <0>         0.1047
     11 C9         -3.6304    2.0658    0.0340 C.ar      1 <0>        -0.1130
     12 C10        -4.2982    2.1572    1.2424 C.ar      1 <0>        -0.1110
     13 C11        -5.4156    2.9579    1.3577 C.ar      1 <0>        -0.0821
     14 C12        -5.8785    3.6688    0.2487 C.ar      1 <0>        -0.0981
     15 C13        -5.2029    3.5678   -0.9691 C.ar      1 <0>        -0.0910
     16 C14        -4.0838    2.7675   -1.0690 C.ar      1 <0>        -0.1100
     17 C15        -7.0774    4.5242    0.3633 C.2       1 <0>         0.4868
     18 O3         -7.4776    5.1417   -0.6032 O.co2     1 <0>        -0.6290
     19 C16         3.6878   -0.6847   -0.0375 C.2       1 <0>         0.0921
     20 C17         3.7541   -1.9429   -0.5420 C.2       1 <0>        -0.2298
     21 C18         4.8916   -2.8833   -0.5790 C.2       1 <0>         0.5627
     22 O4          5.9787   -2.5902   -0.1168 O.2       1 <0>        -0.4735
     23 N1          4.6683   -4.0620   -1.1355 N.am      1 <0>        -0.5743
     24 C19         3.4643   -4.3800   -1.6530 C.2       1 <0>         0.5270
     25 O5          3.1241   -5.4148   -2.1942 O.2       1 <0>        -0.4216
     26 S1          2.4904   -2.9140   -1.3516 S.3       1 <0>        -0.0332
     27 C20         5.7556   -5.0419   -1.1976 C.3       1 <0>         0.1356
     28 C21         6.5305   -4.8520   -2.4761 C.ar      1 <0>        -0.1322
     29 C22         6.1616   -5.5413   -3.6162 C.ar      1 <0>        -0.0669
     30 C23         6.8680   -5.3637   -4.7907 C.ar      1 <0>        -0.1566
     31 C24         7.9523   -4.5032   -4.8224 C.ar      1 <0>         0.1100
     32 C25         8.3243   -3.8176   -3.6784 C.ar      1 <0>        -0.1574
     33 C26         7.6132   -3.9929   -2.5064 C.ar      1 <0>        -0.0632
     34 F1          8.6470   -4.3330   -5.9685 F         1 <0>        -0.1371
     35 H1          2.1361    5.0210    1.3229 H         1 <0>         0.1037
     36 H2          2.8117    3.4789    1.9007 H         1 <0>         0.0560
     37 H3          2.9597    3.9282    0.1847 H         1 <0>         0.0558
     38 H4          3.2581    1.9021    0.6027 H         1 <0>         0.1450
     39 H5          1.2451   -1.7239   -0.5192 H         1 <0>         0.1368
     40 H6         -0.9127   -0.5564   -0.3997 H         1 <0>         0.1468
     41 H7         -2.3310    0.8091   -1.1002 H         1 <0>         0.0724
     42 H8         -2.4875    0.3598    0.6150 H         1 <0>         0.0725
     43 H9         -3.9414    1.6036    2.0984 H         1 <0>         0.1178
     44 H10        -5.9333    3.0319    2.3026 H         1 <0>         0.1336
     45 H11        -5.5555    4.1152   -1.8307 H         1 <0>         0.1298
     46 H12        -3.5600    2.6888   -2.0102 H         1 <0>         0.1176
     47 H13         4.5848   -0.1950    0.3117 H         1 <0>         0.1615
     48 H14         6.4206   -4.9013   -0.3454 H         1 <0>         0.1119
     49 H15         5.3392   -6.0488   -1.1713 H         1 <0>         0.1082
     50 H16         5.3185   -6.2158   -3.5901 H         1 <0>         0.1381
     51 H17         6.5771   -5.8992   -5.6823 H         1 <0>         0.1391
     52 H18         9.1701   -3.1464   -3.7018 H         1 <0>         0.1388
     53 H19         7.9032   -3.4582   -1.6140 H         1 <0>         0.1406
     54 O6         -7.7270    4.6194    1.5396 O.co2     1 <0>        -0.7519
@<TRIPOS>BOND
     1    1    2 1
     2    1   35 1
     3    1   36 1
     4    1   37 1
     5    2    3 1
     6    3    8 ar
     7    3    4 ar
     8    4    5 ar
     9    4   38 1
    10    5    6 ar
    11    5   19 1
    12    6    7 ar
    13    6   39 1
    14    7    8 ar
    15    7   40 1
    16    8    9 1
    17    9   10 1
    18   10   11 1
    19   10   41 1
    20   10   42 1
    21   11   16 ar
    22   11   12 ar
    23   12   13 ar
    24   12   43 1
    25   13   14 ar
    26   13   44 1
    27   14   15 ar
    28   14   17 1
    29   15   16 ar
    30   15   45 1
    31   16   46 1
    32   17   18 2
    33   17   54 1
    34   19   20 2
    35   19   47 1
    36   20   26 1
    37   20   21 1
    38   21   22 2
    39   21   23 am
    40   23   24 am
    41   23   27 1
    42   24   25 2
    43   24   26 1
    44   27   28 1
    45   27   48 1
    46   27   49 1
    47   28   33 ar
    48   28   29 ar
    49   29   30 ar
    50   29   50 1
    51   30   31 ar
    52   30   51 1
    53   31   32 ar
    54   31   34 1
    55   32   33 ar
    56   32   52 1
    57   33   53 1
@<TRIPOS>MOLECULE
ZINC33422762
   36    38     0     0     0
SMALL
USER_CHARGES
3-[(Z)-[3-[(4-fluorophenyl)methyl]-2,4-dioxo-thiazolidin-5-ylidene]methyl]benzoic acid
@<TRIPOS>ATOM
      1 C1          0.0649    3.7569    1.0537 C.ar      1 <0>        -0.1396
      2 C2          1.2442    3.0944    0.7792 C.ar      1 <0>        -0.0879
      3 C3          1.2155    1.7877    0.2775 C.ar      1 <0>        -0.1301
      4 C4         -0.0106    1.1562    0.0559 C.ar      1 <0>        -0.0374
      5 C5         -1.1952    1.8348    0.3314 C.ar      1 <0>        -0.1201
      6 C6         -1.1501    3.1375    0.8365 C.ar      1 <0>        -0.0425
      7 C7         -2.4971    1.1773    0.0950 C.2       1 <0>         0.4890
      8 O1         -2.5349    0.0438   -0.3401 O.co2     1 <0>        -0.6269
      9 O2         -3.6421    1.8348    0.3619 O.co2     1 <0>        -0.7488
     10 C8          2.4721    1.0825   -0.0157 C.2       1 <0>         0.1076
     11 C9          3.6303    1.7785   -0.1254 C.2       1 <0>        -0.2451
     12 C10         5.0177    1.2849   -0.2558 C.2       1 <0>         0.5636
     13 O3          5.2739    0.0957   -0.2797 O.2       1 <0>        -0.4765
     14 N1          5.9656    2.2023   -0.3492 N.am      1 <0>        -0.5744
     15 C11         5.6777    3.5192   -0.3159 C.2       1 <0>         0.5295
     16 O4          6.4436    4.4615   -0.3854 O.2       1 <0>        -0.4303
     17 S1          3.9007    3.5455   -0.1441 S.3       1 <0>        -0.0347
     18 C12         7.3612    1.7780   -0.4863 C.3       1 <0>         0.1328
     19 C13         7.9766    1.6262    0.8809 C.ar      1 <0>        -0.1294
     20 C14         8.6093    2.7013    1.4767 C.ar      1 <0>        -0.0676
     21 C15         9.1692    2.5648    2.7329 C.ar      1 <0>        -0.1575
     22 C16         9.1057    1.3477    3.3900 C.ar      1 <0>         0.1079
     23 C17         8.4767    0.2701    2.7898 C.ar      1 <0>        -0.1570
     24 C18         7.9131    0.4104    1.5358 C.ar      1 <0>        -0.0629
     25 F1          9.6575    1.2116    4.6156 F         1 <0>        -0.1383
     26 H1          0.0925    4.7651    1.4400 H         1 <0>         0.1270
     27 H2          2.1907    3.5850    0.9515 H         1 <0>         0.1294
     28 H3         -0.0398    0.1484   -0.3314 H         1 <0>         0.1386
     29 H4         -2.0684    3.6627    1.0538 H         1 <0>         0.1385
     30 H5          2.4723   -0.0098   -0.1460 H         1 <0>         0.1664
     31 H6          7.4012    0.8145   -1.0155 H         1 <0>         0.1126
     32 H7          7.9198    2.5338   -1.0580 H         1 <0>         0.1083
     33 H8          8.6626    3.6493    0.9621 H         1 <0>         0.1378
     34 H9          9.6599    3.4059    3.1999 H         1 <0>         0.1380
     35 H10         8.4269   -0.6798    3.3012 H         1 <0>         0.1386
     36 H11         7.4224   -0.4300    1.0675 H         1 <0>         0.1413
@<TRIPOS>BOND
     1    1    6 ar
     2    1    2 ar
     3    1   26 1
     4    2    3 ar
     5    2   27 1
     6    3    4 ar
     7    3   10 1
     8    4    5 ar
     9    4   28 1
    10    5    6 ar
    11    5    7 1
    12    6   29 1
    13    7    8 2
    14    7    9 1
    15   10   11 2
    16   10   30 1
    17   11   17 1
    18   11   12 1
    19   12   13 2
    20   12   14 am
    21   14   15 am
    22   14   18 1
    23   15   16 2
    24   15   17 1
    25   18   19 1
    26   18   31 1
    27   18   32 1
    28   19   24 ar
    29   19   20 ar
    30   20   21 ar
    31   20   33 1
    32   21   22 ar
    33   21   34 1
    34   22   23 ar
    35   22   25 1
    36   23   24 ar
    37   23   35 1
    38   24   36 1
@<TRIPOS>MOLECULE
ZINC64857890
   62    62     0     0     0
SMALL
USER_CHARGES

@<TRIPOS>ATOM
      1 C1         -0.0485    1.5264   -0.0081 C.3       1 <0>        -0.1538
      2 C2         -0.0202   -0.0033   -0.0121 C.3       1 <0>        -0.1263
      3 C3          0.6924   -0.4969   -1.2728 C.3       1 <0>        -0.1210
      4 C4          0.7207   -2.0267   -1.2768 C.3       1 <0>        -0.1214
      5 C5          1.4333   -2.5203   -2.5375 C.3       1 <0>        -0.1202
      6 C6          1.4615   -4.0500   -2.5415 C.3       1 <0>        -0.1211
      7 C7          2.1742   -4.5436   -3.8023 C.3       1 <0>        -0.1198
      8 C8          2.2024   -6.0734   -3.8063 C.3       1 <0>        -0.1215
      9 C9          2.9151   -6.5670   -5.0670 C.3       1 <0>        -0.1191
     10 C10         2.9433   -8.0967   -5.0710 C.3       1 <0>        -0.1213
     11 C11         3.6559   -8.5904   -6.3317 C.3       1 <0>        -0.1185
     12 C12         3.6842  -10.1201   -6.3357 C.3       1 <0>        -0.1068
     13 C13         4.3968  -10.6137   -7.5964 C.3       1 <0>        -0.1367
     14 C14         4.4246  -12.1205   -7.6004 C.2       1 <0>         0.5043
     15 O1          3.9238  -12.7386   -6.6849 O.2       1 <0>        -0.5149
     16 N1          5.0061  -12.7810   -8.6212 N.am      1 <0>        -0.6721
     17 C15         5.1181  -14.1752   -8.5789 C.ar      1 <0>         0.1164
     18 C16         6.2347  -14.8002   -9.1185 C.ar      1 <0>        -0.1411
     19 C17         6.3422  -16.1764   -9.0752 C.ar      1 <0>        -0.0914
     20 C18         5.3396  -16.9319   -8.4954 C.ar      1 <0>        -0.0453
     21 C19         4.2262  -16.3126   -7.9577 C.ar      1 <0>        -0.0961
     22 C20         4.1156  -14.9363   -7.9922 C.ar      1 <0>        -0.1155
     23 C21         5.4602  -18.4334   -8.4500 C.3       1 <0>        -0.6880
     24 P1          6.3046  -18.9289   -6.9122 P.3       1 <0>         2.2483
     25 O2          7.6623  -18.1985   -6.8119 O.2       1 <0>        -1.0867
     26 O3          5.4264  -18.5524   -5.6981 O.3       1 <0>        -1.0873
     27 O4          6.5507  -20.5199   -6.9238 O.3       1 <0>        -0.9055
     28 H1          0.9722    1.9087   -0.0218 H         1 <0>         0.0531
     29 H2         -0.5816    1.8823   -0.8897 H         1 <0>         0.0529
     30 H3         -0.5562    1.8781    0.8901 H         1 <0>         0.0528
     31 H4          0.5129   -0.3591    0.8695 H         1 <0>         0.0604
     32 H5         -1.0409   -0.3856    0.0016 H         1 <0>         0.0602
     33 H6          0.1593   -0.1411   -2.1544 H         1 <0>         0.0601
     34 H7          1.7131   -0.1146   -1.2865 H         1 <0>         0.0603
     35 H8          1.2538   -2.3825   -0.3952 H         1 <0>         0.0608
     36 H9         -0.3000   -2.4089   -1.2631 H         1 <0>         0.0605
     37 H10         0.9002   -2.1644   -3.4192 H         1 <0>         0.0598
     38 H11         2.4540   -2.1380   -2.5512 H         1 <0>         0.0601
     39 H12         1.9947   -4.4059   -1.6599 H         1 <0>         0.0608
     40 H13         0.4409   -4.4323   -2.5279 H         1 <0>         0.0604
     41 H14         1.6411   -4.1878   -4.6839 H         1 <0>         0.0595
     42 H15         3.1948   -4.1613   -3.8159 H         1 <0>         0.0600
     43 H16         2.7355   -6.4292   -2.9246 H         1 <0>         0.0613
     44 H17         1.1818   -6.4557   -3.7926 H         1 <0>         0.0607
     45 H18         2.3819   -6.2111   -5.9486 H         1 <0>         0.0593
     46 H19         3.9357   -6.1847   -5.0807 H         1 <0>         0.0601
     47 H20         3.4764   -8.4526   -4.1894 H         1 <0>         0.0633
     48 H21         1.9226   -8.4790   -5.0573 H         1 <0>         0.0621
     49 H22         3.1228   -8.2345   -7.2133 H         1 <0>         0.0604
     50 H23         4.6766   -8.2081   -6.3454 H         1 <0>         0.0616
     51 H24         4.2173  -10.4759   -5.4541 H         1 <0>         0.0725
     52 H25         2.6635  -10.5024   -6.3220 H         1 <0>         0.0703
     53 H26         3.8637  -10.2579   -8.4780 H         1 <0>         0.0921
     54 H27         5.4175  -10.2314   -7.6101 H         1 <0>         0.0943
     55 H28         5.3469  -12.2900   -9.3851 H         1 <0>         0.4055
     56 H29         7.0179  -14.2108   -9.5717 H         1 <0>         0.1208
     57 H30         7.2101  -16.6632   -9.4950 H         1 <0>         0.1237
     58 H31         3.4447  -16.9054   -7.5059 H         1 <0>         0.1243
     59 H32         3.2483  -14.4529   -7.5675 H         1 <0>         0.1346
     60 H33         4.4657  -18.8788   -8.4781 H         1 <0>         0.0817
     61 H34         6.0370  -18.7777   -9.3084 H         1 <0>         0.0797
     62 H35         6.9971  -20.8546   -6.1340 H         1 <0>         0.4125
@<TRIPOS>BOND
     1    1    2 1
     2    1   28 1
     3    1   29 1
     4    1   30 1
     5    2    3 1
     6    2   31 1
     7    2   32 1
     8    3    4 1
     9    3   33 1
    10    3   34 1
    11    4    5 1
    12    4   35 1
    13    4   36 1
    14    5    6 1
    15    5   37 1
    16    5   38 1
    17    6    7 1
    18    6   39 1
    19    6   40 1
    20    7    8 1
    21    7   41 1
    22    7   42 1
    23    8    9 1
    24    8   43 1
    25    8   44 1
    26    9   10 1
    27    9   45 1
    28    9   46 1
    29   10   11 1
    30   10   47 1
    31   10   48 1
    32   11   12 1
    33   11   49 1
    34   11   50 1
    35   12   13 1
    36   12   51 1
    37   12   52 1
    38   13   14 1
    39   13   53 1
    40   13   54 1
    41   14   15 2
    42   14   16 am
    43   16   17 1
    44   16   55 1
    45   17   22 ar
    46   17   18 ar
    47   18   19 ar
    48   18   56 1
    49   19   20 ar
    50   19   57 1
    51   20   21 ar
    52   20   23 1
    53   21   22 ar
    54   21   58 1
    55   22   59 1
    56   23   24 1
    57   23   60 1
    58   23   61 1
    59   24   25 2
    60   24   26 1
    61   24   27 1
    62   27   62 1
@<TRIPOS>MOLECULE
ZINC64857890
   61    61     0     0     0
SMALL
USER_CHARGES

@<TRIPOS>ATOM
      1 C1         -0.0198    1.5265    0.0455 C.3       1 <0>        -0.1534
      2 C2          0.0010   -0.0032    0.0284 C.3       1 <0>        -0.1265
      3 C3         -1.4343   -0.5330    0.0432 C.3       1 <0>        -0.1208
      4 C4         -1.4135   -2.0628    0.0261 C.3       1 <0>        -0.1216
      5 C5         -2.8488   -2.5925    0.0410 C.3       1 <0>        -0.1200
      6 C6         -2.8280   -4.1223    0.0239 C.3       1 <0>        -0.1213
      7 C7         -4.2632   -4.6521    0.0387 C.3       1 <0>        -0.1194
      8 C8         -4.2424   -6.1818    0.0216 C.3       1 <0>        -0.1218
      9 C9         -5.6777   -6.7116    0.0365 C.3       1 <0>        -0.1185
     10 C10        -5.6569   -8.2414    0.0193 C.3       1 <0>        -0.1218
     11 C11        -7.0922   -8.7711    0.0342 C.3       1 <0>        -0.1174
     12 C12        -7.0714  -10.3009    0.0171 C.3       1 <0>        -0.1072
     13 C13        -8.5066  -10.8307    0.0319 C.3       1 <0>        -0.1351
     14 C14        -8.4861  -12.3374    0.0151 C.2       1 <0>         0.4982
     15 O1         -7.4277  -12.9293   -0.0067 O.2       1 <0>        -0.5165
     16 N1         -9.6439  -13.0273    0.0242 N.am      1 <0>        -0.6657
     17 C15        -9.6283  -14.4219   -0.0891 C.ar      1 <0>         0.0833
     18 C16       -10.6378  -15.0749   -0.7841 C.ar      1 <0>        -0.1381
     19 C17       -10.6195  -16.4515   -0.8941 C.ar      1 <0>        -0.1048
     20 C18        -9.5975  -17.1795   -0.3130 C.ar      1 <0>        -0.0063
     21 C19        -8.5911  -16.5323    0.3802 C.ar      1 <0>        -0.1113
     22 C20        -8.6003  -15.1554    0.4885 C.ar      1 <0>        -0.1113
     23 C21        -9.5808  -18.6815   -0.4349 C.3       1 <0>        -0.6888
     24 P1         -8.6589  -19.1592   -1.9333 P.3       1 <0>         2.1975
     25 O2         -9.2774  -18.4382   -3.1791 O.2       1 <0>        -1.1697
     26 O3         -7.1575  -18.7391   -1.7789 O.3       1 <0>        -1.1704
     27 O4         -8.7495  -20.7109   -2.1296 O.3       1 <0>        -1.1796
     28 H1          1.0027    1.9040    0.0349 H         1 <0>         0.0522
     29 H2         -0.5513    1.8925   -0.8329 H         1 <0>         0.0529
     30 H3         -0.5257    1.8730    0.9467 H         1 <0>         0.0527
     31 H4          0.5068   -0.3496   -0.8729 H         1 <0>         0.0605
     32 H5          0.5325   -0.3692    0.9068 H         1 <0>         0.0602
     33 H6         -1.9402   -0.1866    0.9445 H         1 <0>         0.0599
     34 H7         -1.9658   -0.1670   -0.8352 H         1 <0>         0.0602
     35 H8         -0.9077   -2.4092   -0.8751 H         1 <0>         0.0609
     36 H9         -0.8820   -2.4288    0.9046 H         1 <0>         0.0605
     37 H10        -3.3546   -2.2461    0.9422 H         1 <0>         0.0595
     38 H11        -3.3803   -2.2265   -0.8375 H         1 <0>         0.0600
     39 H12        -2.3221   -4.4687   -0.8774 H         1 <0>         0.0610
     40 H13        -2.2965   -4.4883    0.9023 H         1 <0>         0.0604
     41 H14        -4.7691   -4.3056    0.9399 H         1 <0>         0.0590
     42 H15        -4.7947   -4.2861   -0.8397 H         1 <0>         0.0597
     43 H16        -3.7366   -6.5282   -0.8796 H         1 <0>         0.0616
     44 H17        -3.7109   -6.5478    0.9000 H         1 <0>         0.0606
     45 H18        -6.1836   -6.3652    0.9377 H         1 <0>         0.0586
     46 H19        -6.2092   -6.3456   -0.8420 H         1 <0>         0.0596
     47 H20        -5.1511   -8.5878   -0.8819 H         1 <0>         0.0637
     48 H21        -5.1254   -8.6074    0.8978 H         1 <0>         0.0620
     49 H22        -7.5980   -8.4247    0.9354 H         1 <0>         0.0590
     50 H23        -7.6237   -8.4051   -0.8442 H         1 <0>         0.0607
     51 H24        -6.5655  -10.6473   -0.8841 H         1 <0>         0.0728
     52 H25        -6.5399  -10.6669    0.8955 H         1 <0>         0.0699
     53 H26        -9.0125  -10.4842    0.9332 H         1 <0>         0.0884
     54 H27        -9.0381  -10.4647   -0.8465 H         1 <0>         0.0911
     55 H28       -10.4880  -12.5570    0.1092 H         1 <0>         0.3999
     56 H29       -11.4365  -14.5069   -1.2379 H         1 <0>         0.1121
     57 H30       -11.4045  -16.9599   -1.4342 H         1 <0>         0.1201
     58 H31        -7.7945  -17.1037    0.8332 H         1 <0>         0.1201
     59 H32        -7.8113  -14.6501    1.0256 H         1 <0>         0.1267
     60 H33        -9.0970  -19.1118    0.4420 H         1 <0>         0.0608
     61 H34       -10.6036  -19.0518   -0.5041 H         1 <0>         0.0605
@<TRIPOS>BOND
     1    1    2 1
     2    1   28 1
     3    1   29 1
     4    1   30 1
     5    2    3 1
     6    2   31 1
     7    2   32 1
     8    3    4 1
     9    3   33 1
    10    3   34 1
    11    4    5 1
    12    4   35 1
    13    4   36 1
    14    5    6 1
    15    5   37 1
    16    5   38 1
    17    6    7 1
    18    6   39 1
    19    6   40 1
    20    7    8 1
    21    7   41 1
    22    7   42 1
    23    8    9 1
    24    8   43 1
    25    8   44 1
    26    9   10 1
    27    9   45 1
    28    9   46 1
    29   10   11 1
    30   10   47 1
    31   10   48 1
    32   11   12 1
    33   11   49 1
    34   11   50 1
    35   12   13 1
    36   12   51 1
    37   12   52 1
    38   13   14 1
    39   13   53 1
    40   13   54 1
    41   14   15 2
    42   14   16 am
    43   16   17 1
    44   16   55 1
    45   17   22 ar
    46   17   18 ar
    47   18   19 ar
    48   18   56 1
    49   19   20 ar
    50   19   57 1
    51   20   21 ar
    52   20   23 1
    53   21   22 ar
    54   21   58 1
    55   22   59 1
    56   23   24 1
    57   23   60 1
    58   23   61 1
    59   24   25 2
    60   24   26 1
    61   24   27 1
@<TRIPOS>MOLECULE
ZINC01127081
   52    55     0     0     0
SMALL
USER_CHARGES
2-[4-[(3,5-dichlorophenyl)carbamothioyl]piperazin-1-yl]-8-ethyl-5-oxo-pyrido[6,5-d]pyrimidine-6-carboxylic acid
@<TRIPOS>ATOM
      1 C1          1.9806   12.5739   -3.0425 C.3       1 <0>        -0.1663
      2 C2          0.9850   13.5100   -2.3544 C.3       1 <0>         0.0957
      3 N1         -0.2434   13.5856   -3.1490 N.pl3     1 <0>        -0.4764
      4 C3         -0.3818   14.5931   -4.0250 C.2       1 <0>         0.1641
      5 C4         -1.5057   14.7374   -4.8104 C.2       1 <0>        -0.2659
      6 C5         -2.5939   13.7510   -4.6835 C.2       1 <0>         0.4285
      7 O1         -3.6085   13.8325   -5.3535 O.2       1 <0>        -0.4450
      8 C6         -2.4001   12.6649   -3.7118 C.ar      1 <0>        -0.3159
      9 C7         -1.2043   12.6252   -2.9659 C.ar      1 <0>         0.4499
     10 N2         -1.0380   11.6402   -2.0902 N.ar      1 <0>        -0.5700
     11 C8         -1.9774   10.7210   -1.9273 C.ar      1 <0>         0.5335
     12 N3         -3.1116   10.7285   -2.6186 N.ar      1 <0>        -0.5807
     13 C9         -3.3618   11.6748   -3.5069 C.ar      1 <0>         0.2592
     14 N4         -1.7675    9.7135   -1.0079 N.pl3     1 <0>        -0.4608
     15 C10        -2.9112    8.7926   -0.9657 C.3       1 <0>         0.0600
     16 C11        -2.7215    7.8002    0.1864 C.3       1 <0>         0.0873
     17 N5         -1.4086    7.1547    0.0357 N.pl3     1 <0>        -0.5276
     18 C12        -0.2277    8.0129   -0.1437 C.3       1 <0>         0.0904
     19 C13        -0.5163    8.9967   -1.2888 C.3       1 <0>         0.0563
     20 C14        -1.2900    5.8125    0.0667 C.2       1 <0>         0.5585
     21 S1         -2.6902    4.8312    0.1524 S.2       1 <0>        -0.5464
     22 N6         -0.0690    5.2429    0.0301 N.pl3     1 <0>        -0.6924
     23 C15         0.7105    5.1845    1.1902 C.ar      1 <0>         0.2236
     24 C16         1.9230    4.5076    1.1801 C.ar      1 <0>        -0.1557
     25 C17         2.6912    4.4510    2.3279 C.ar      1 <0>         0.0196
     26 C18         2.2527    5.0677    3.4865 C.ar      1 <0>        -0.1402
     27 C19         1.0423    5.7383    3.5008 C.ar      1 <0>         0.0223
     28 C20         0.2730    5.8028    2.3541 C.ar      1 <0>        -0.1653
     29 Cl1         0.4925    6.5044    4.9583 Cl        1 <0>        -0.0458
     30 Cl2         4.2072    3.6051    2.3161 Cl        1 <0>        -0.0473
     31 C21        -1.6171   15.8557   -5.7577 C.2       1 <0>         0.5065
     32 O2         -2.6129   15.9733   -6.4449 O.co2     1 <0>        -0.6047
     33 H1          1.5431   11.5795   -3.1306 H         1 <0>         0.0591
     34 H2          2.2134   12.9577   -4.0357 H         1 <0>         0.0630
     35 H3          2.8947   12.5176   -2.4513 H         1 <0>         0.0740
     36 H4          1.4226   14.5044   -2.2663 H         1 <0>         0.0954
     37 H5          0.7522   13.1261   -1.3611 H         1 <0>         0.0977
     38 H6          0.4155   15.3155   -4.1183 H         1 <0>         0.1819
     39 H7         -4.2870   11.6794   -4.0640 H         1 <0>         0.1856
     40 H8         -2.9748    8.2482   -1.9079 H         1 <0>         0.0668
     41 H9         -3.8291    9.3594   -0.8101 H         1 <0>         0.1172
     42 H10        -3.5069    7.0451    0.1523 H         1 <0>         0.1409
     43 H11        -2.7614    8.3313    1.1374 H         1 <0>         0.0987
     44 H12        -0.0325    8.5641    0.7762 H         1 <0>         0.1022
     45 H13         0.6365    7.3986   -0.3962 H         1 <0>         0.1025
     46 H14        -0.6133    8.4495   -2.2264 H         1 <0>         0.0556
     47 H15         0.3026    9.7117   -1.3674 H         1 <0>         0.1166
     48 H16         0.2691    4.8734   -0.8006 H         1 <0>         0.4299
     49 H17         2.2654    4.0256    0.2763 H         1 <0>         0.1459
     50 H18         2.8540    5.0217    4.3824 H         1 <0>         0.1469
     51 H19        -0.6696    6.3298    2.3646 H         1 <0>         0.1366
     52 O3         -0.6150   16.7511   -5.8643 O.co2     1 <0>        -0.7656
@<TRIPOS>BOND
     1    1    2 1
     2    1   33 1
     3    1   34 1
     4    1   35 1
     5    2    3 1
     6    2   36 1
     7    2   37 1
     8    3    9 1
     9    3    4 1
    10    4    5 2
    11    4   38 1
    12    5    6 1
    13    5   31 1
    14    6    7 2
    15    6    8 1
    16    8   13 ar
    17    8    9 ar
    18    9   10 ar
    19   10   11 ar
    20   11   12 ar
    21   11   14 1
    22   12   13 ar
    23   13   39 1
    24   14   19 1
    25   14   15 1
    26   15   16 1
    27   15   40 1
    28   15   41 1
    29   16   17 1
    30   16   42 1
    31   16   43 1
    32   17   18 1
    33   17   20 1
    34   18   19 1
    35   18   44 1
    36   18   45 1
    37   19   46 1
    38   19   47 1
    39   20   21 2
    40   20   22 1
    41   22   23 1
    42   22   48 1
    43   23   28 ar
    44   23   24 ar
    45   24   25 ar
    46   24   49 1
    47   25   26 ar
    48   25   30 1
    49   26   27 ar
    50   26   50 1
    51   27   28 ar
    52   27   29 1
    53   28   51 1
    54   31   32 2
    55   31   52 1
@<TRIPOS>MOLECULE
ZINC29064337
   66    71     0     0     0
SMALL
USER_CHARGES
8-ethyl-5-oxo-2-[4-(9H-xanthene-9-carbonylcarbamothioyl)piperazin-1-yl]pyrido[2,3-d]pyrimidine-6-carboxylic acid
@<TRIPOS>ATOM
      1 C1         -0.5653    7.9829   -2.5269 C.3       1 <0>        -0.1686
      2 C2         -2.0487    7.6141   -2.4597 C.3       1 <0>         0.0942
      3 N1         -2.3908    6.7568   -3.5974 N.pl3     1 <0>        -0.4757
      4 C3         -2.9042    7.3253   -4.6995 C.2       1 <0>         0.1657
      5 C4         -3.2532    6.5910   -5.8130 C.2       1 <0>        -0.2676
      6 C5         -3.0559    5.1302   -5.7925 C.2       1 <0>         0.4292
      7 O1         -3.3479    4.4346   -6.7495 O.2       1 <0>        -0.4471
      8 C6         -2.4914    4.5503   -4.5651 C.ar      1 <0>        -0.3174
      9 C7         -2.1743    5.4073   -3.4915 C.ar      1 <0>         0.4507
     10 N2         -1.6647    4.8744   -2.3865 N.ar      1 <0>        -0.5681
     11 C8         -1.4622    3.5683   -2.3027 C.ar      1 <0>         0.5345
     12 N3         -1.7457    2.7363   -3.2985 N.ar      1 <0>        -0.5843
     13 C9         -2.2606    3.1806   -4.4320 C.ar      1 <0>         0.2584
     14 N4         -0.9311    3.0526   -1.1380 N.pl3     1 <0>        -0.4577
     15 C10        -0.7787    1.5944   -1.2294 C.3       1 <0>         0.0561
     16 C11        -0.0235    1.0848    0.0028 C.3       1 <0>         0.0941
     17 N5         -0.7142    1.5633    1.2099 N.pl3     1 <0>        -0.5613
     18 C12        -1.0293    2.9973    1.3083 C.3       1 <0>         0.1058
     19 C13        -1.7449    3.4315    0.0247 C.3       1 <0>         0.0525
     20 C14        -1.0535    0.7103    2.1967 C.2       1 <0>         0.5319
     21 S1         -1.7399    1.3082    3.6466 S.2       1 <0>        -0.5328
     22 N6         -0.8523   -0.6133    2.0421 N.am      1 <0>        -0.6597
     23 C15        -1.2883   -1.4755    2.9818 C.2       1 <0>         0.4985
     24 O2         -1.8613   -1.0604    3.9663 O.2       1 <0>        -0.3904
     25 C16        -1.0634   -2.9556    2.8089 C.3       1 <0>        -0.0105
     26 C17        -1.7294   -3.4141    1.5401 C.ar      1 <0>        -0.1542
     27 C18        -1.1177   -3.1635    0.3237 C.ar      1 <0>        -0.0930
     28 C19        -1.7128   -3.5775   -0.8526 C.ar      1 <0>        -0.1320
     29 C20        -2.9233   -4.2450   -0.8183 C.ar      1 <0>        -0.0778
     30 C21        -3.5376   -4.4978    0.3917 C.ar      1 <0>        -0.1288
     31 C22        -2.9416   -4.0825    1.5771 C.ar      1 <0>         0.1324
     32 O3         -3.5598   -4.3403    2.7547 O.3       1 <0>        -0.2412
     33 C23        -2.8494   -4.3400    3.9080 C.ar      1 <0>         0.1283
     34 C24        -1.6313   -3.6860    3.9954 C.ar      1 <0>        -0.1332
     35 C25        -0.9250   -3.7012    5.1850 C.ar      1 <0>        -0.0620
     36 C26        -1.4299   -4.3668    6.2856 C.ar      1 <0>        -0.1383
     37 C27        -2.6455   -5.0204    6.2015 C.ar      1 <0>        -0.0793
     38 C28        -3.3550   -5.0081    5.0175 C.ar      1 <0>        -0.1349
     39 C29        -3.8127    7.2531   -7.0000 C.2       1 <0>         0.5069
     40 O4         -4.1171    6.5955   -7.9760 O.co2     1 <0>        -0.6055
     41 O5         -3.9882    8.5897   -7.0063 O.co2     1 <0>        -0.7657
     42 H1         -0.3085    8.6266   -1.6727 H         1 <0>         0.0746
     43 H2         -0.3633    8.5206   -3.4650 H         1 <0>         0.0625
     44 H3          0.0423    7.0666   -2.4913 H         1 <0>         0.0634
     45 H4         -2.2507    7.0764   -1.5216 H         1 <0>         0.0979
     46 H5         -2.6563    8.5304   -2.4952 H         1 <0>         0.0962
     47 H6         -3.0485    8.3955   -4.7149 H         1 <0>         0.1819
     48 H7         -2.4933    2.5000   -5.2376 H         1 <0>         0.1843
     49 H8         -1.7721    1.1239   -1.2726 H         1 <0>         0.0643
     50 H9         -0.2132    1.3411   -2.1383 H         1 <0>         0.1153
     51 H10        -0.0061   -0.0150   -0.0067 H         1 <0>         0.0844
     52 H11         1.0075    1.4679   -0.0146 H         1 <0>         0.1020
     53 H12        -1.6816    3.1706    2.1769 H         1 <0>         0.1366
     54 H13        -0.0979    3.5699    1.4291 H         1 <0>         0.0967
     55 H14        -1.8864    4.5223    0.0334 H         1 <0>         0.1187
     56 H15        -2.7247    2.9352   -0.0361 H         1 <0>         0.0553
     57 H16        -0.3322   -0.9899    1.1490 H         1 <0>         0.4237
     58 H17         0.0133   -3.1705    2.7420 H         1 <0>         0.1237
     59 H18        -0.1722   -2.6425    0.2940 H         1 <0>         0.1240
     60 H19        -1.2321   -3.3800   -1.7994 H         1 <0>         0.1355
     61 H20        -3.3881   -4.5683   -1.7380 H         1 <0>         0.1388
     62 H21        -4.4829   -5.0195    0.4176 H         1 <0>         0.1392
     63 H22         0.0246   -3.1914    5.2535 H         1 <0>         0.1276
     64 H23        -0.8749   -4.3764    7.2120 H         1 <0>         0.1304
     65 H24        -3.0396   -5.5407    7.0620 H         1 <0>         0.1350
     66 H25        -4.3044   -5.5188    4.9527 H         1 <0>         0.1361
@<TRIPOS>BOND
     1    1    2 1
     2    1   42 1
     3    1   43 1
     4    1   44 1
     5    2    3 1
     6    2   45 1
     7    2   46 1
     8    3    9 1
     9    3    4 1
    10    4    5 2
    11    4   47 1
    12    5    6 1
    13    5   39 1
    14    6    7 2
    15    6    8 1
    16    8   13 ar
    17    8    9 ar
    18    9   10 ar
    19   10   11 ar
    20   11   12 ar
    21   11   14 1
    22   12   13 ar
    23   13   48 1
    24   14   19 1
    25   14   15 1
    26   15   16 1
    27   15   49 1
    28   15   50 1
    29   16   17 1
    30   16   51 1
    31   16   52 1
    32   17   18 1
    33   17   20 1
    34   18   19 1
    35   18   53 1
    36   18   54 1
    37   19   55 1
    38   19   56 1
    39   20   21 2
    40   20   22 1
    41   22   23 am
    42   22   57 1
    43   23   24 2
    44   23   25 1
    45   25   34 1
    46   25   26 1
    47   25   58 1
    48   26   31 ar
    49   26   27 ar
    50   27   28 ar
    51   27   59 1
    52   28   29 ar
    53   28   60 1
    54   29   30 ar
    55   29   61 1
    56   30   31 ar
    57   30   62 1
    58   31   32 1
    59   32   33 1
    60   33   38 ar
    61   33   34 ar
    62   34   35 ar
    63   35   36 ar
    64   35   63 1
    65   36   37 ar
    66   36   64 1
    67   37   38 ar
    68   37   65 1
    69   38   66 1
    70   39   40 2
    71   39   41 1
@<TRIPOS>MOLECULE
ZINC03130150
   57    62     0     0     0
SMALL
USER_CHARGES
4-[4-[2-(1-naphthyl)-1,3-dioxo-isoindolin-5-yl]carbonylphenoxy]benzoic acid
@<TRIPOS>ATOM
      1 C1          8.1911    1.3523   -0.2870 C.ar      1 <0>        -0.1147
      2 C2          6.9257    1.1819    0.2712 C.ar      1 <0>        -0.1022
      3 C3          5.8066    1.2291   -0.5028 C.ar      1 <0>        -0.1093
      4 C4          5.9256    1.4526   -1.8836 C.ar      1 <0>        -0.0322
      5 C5          7.2116    1.6264   -2.4521 C.ar      1 <0>        -0.0478
      6 C6          8.3444    1.5712   -1.6215 C.ar      1 <0>        -0.0982
      7 C7          7.3323    1.8511   -3.8338 C.ar      1 <0>        -0.0830
      8 C8          6.2177    1.9001   -4.6143 C.ar      1 <0>        -0.1117
      9 C9          4.9497    1.7247   -4.0679 C.ar      1 <0>        -0.0796
     10 C10         4.7886    1.5080   -2.7168 C.ar      1 <0>         0.1198
     11 N1          3.5096    1.3386   -2.1772 N.am      1 <0>        -0.5297
     12 C11         2.7416    2.3399   -1.7117 C.2       1 <0>         0.5739
     13 O1          3.0441    3.5158   -1.6936 O.2       1 <0>        -0.4447
     14 C12         1.4661    1.7682   -1.2246 C.ar      1 <0>        -0.1086
     15 C13         0.3232    2.3063   -0.6541 C.ar      1 <0>        -0.0521
     16 C14        -0.7269    1.4774   -0.2990 C.ar      1 <0>        -0.0343
     17 C15        -0.6408    0.1011   -0.5125 C.ar      1 <0>        -0.1360
     18 C16         0.5089   -0.4498   -1.0881 C.ar      1 <0>        -0.0069
     19 C17         1.5595    0.3779   -1.4436 C.ar      1 <0>        -0.1446
     20 C18         2.8863    0.1529   -2.0552 C.2       1 <0>         0.5716
     21 O2          3.3380   -0.9230   -2.3920 O.2       1 <0>        -0.4331
     22 C19        -1.7680   -0.7772   -0.1298 C.2       1 <0>         0.4469
     23 O3         -2.8145   -0.2911    0.2527 O.2       1 <0>        -0.4317
     24 C20        -1.6221   -2.2421   -0.2123 C.ar      1 <0>        -0.1698
     25 C21        -0.4023   -2.8449    0.1122 C.ar      1 <0>        -0.0725
     26 C22        -0.2721   -4.2132    0.0389 C.ar      1 <0>        -0.1316
     27 C23        -1.3478   -4.9952   -0.3681 C.ar      1 <0>         0.1313
     28 C24        -2.5609   -4.3996   -0.6967 C.ar      1 <0>        -0.1345
     29 C25        -2.7015   -3.0326   -0.6207 C.ar      1 <0>        -0.0470
     30 O4         -1.2134   -6.3431   -0.4445 O.3       1 <0>        -0.2657
     31 C26        -0.8590   -6.8814   -1.6385 C.ar      1 <0>         0.1071
     32 C27        -0.6309   -6.0534   -2.7319 C.ar      1 <0>        -0.2087
     33 C28        -0.2663   -6.5952   -3.9439 C.ar      1 <0>        -0.0402
     34 C29        -0.1359   -7.9806   -4.0771 C.ar      1 <0>        -0.1384
     35 C30        -0.3713   -8.8100   -2.9767 C.ar      1 <0>        -0.0510
     36 C31        -0.7304   -8.2598   -1.7668 C.ar      1 <0>        -0.1566
     37 C32         0.2493   -8.5656   -5.3749 C.2       1 <0>         0.4905
     38 O5          0.3626   -9.7700   -5.4887 O.co2     1 <0>        -0.6320
     39 H1          9.0631    1.3104    0.3488 H         1 <0>         0.1277
     40 H2          6.8313    1.0101    1.3332 H         1 <0>         0.1267
     41 H3          4.8322    1.0952   -0.0567 H         1 <0>         0.1168
     42 H4          9.3313    1.7023   -2.0402 H         1 <0>         0.1333
     43 H5          8.3083    1.9851   -4.2764 H         1 <0>         0.1366
     44 H6          6.3194    2.0733   -5.6755 H         1 <0>         0.1367
     45 H7          4.0819    1.7637   -4.7095 H         1 <0>         0.1314
     46 H8          0.2519    3.3710   -0.4873 H         1 <0>         0.1529
     47 H9         -1.6188    1.8983    0.1412 H         1 <0>         0.1571
     48 H10         0.5762   -1.5148   -1.2543 H         1 <0>         0.1599
     49 H11         0.4349   -2.2380    0.4240 H         1 <0>         0.1393
     50 H12         0.6679   -4.6798    0.2938 H         1 <0>         0.1422
     51 H13        -3.3938   -5.0107   -1.0116 H         1 <0>         0.1416
     52 H14        -3.6440   -2.5709   -0.8757 H         1 <0>         0.1398
     53 H15        -0.7362   -4.9834   -2.6292 H         1 <0>         0.1206
     54 H16        -0.0854   -5.9510   -4.7917 H         1 <0>         0.1352
     55 H17        -0.2713   -9.8808   -3.0754 H         1 <0>         0.1371
     56 H18        -0.9120   -8.8998   -0.9160 H         1 <0>         0.1274
     57 O6          0.4758   -7.7645   -6.4344 O.co2     1 <0>        -0.7548
@<TRIPOS>BOND
     1    1    6 ar
     2    1    2 ar
     3    1   39 1
     4    2    3 ar
     5    2   40 1
     6    3    4 ar
     7    3   41 1
     8    4   10 ar
     9    4    5 ar
    10    5    6 ar
    11    5    7 ar
    12    6   42 1
    13    7    8 ar
    14    7   43 1
    15    8    9 ar
    16    8   44 1
    17    9   10 ar
    18    9   45 1
    19   10   11 1
    20   11   20 am
    21   11   12 am
    22   12   13 2
    23   12   14 1
    24   14   19 ar
    25   14   15 ar
    26   15   16 ar
    27   15   46 1
    28   16   17 ar
    29   16   47 1
    30   17   18 ar
    31   17   22 1
    32   18   19 ar
    33   18   48 1
    34   19   20 1
    35   20   21 2
    36   22   23 2
    37   22   24 1
    38   24   29 ar
    39   24   25 ar
    40   25   26 ar
    41   25   49 1
    42   26   27 ar
    43   26   50 1
    44   27   28 ar
    45   27   30 1
    46   28   29 ar
    47   28   51 1
    48   29   52 1
    49   30   31 1
    50   31   36 ar
    51   31   32 ar
    52   32   33 ar
    53   32   53 1
    54   33   34 ar
    55   33   54 1
    56   34   35 ar
    57   34   37 1
    58   35   36 ar
    59   35   55 1
    60   36   56 1
    61   37   38 2
    62   37   57 1
@<TRIPOS>MOLECULE
ZINC34801951
   68    73     0     0     0
SMALL
USER_CHARGES

@<TRIPOS>ATOM
      1 C1          1.4421    1.4789   -3.9746 C.ar      1 <0>        -0.0951
      2 C2          2.5867    2.1911   -3.7784 C.ar      1 <0>        -0.1246
      3 C3          3.8019    1.5159   -3.5816 C.ar      1 <0>         0.0823
      4 C4          5.0009    2.2267   -3.3757 C.ar      1 <0>        -0.7057
      5 C5          6.1668    1.5609   -3.1867 C.ar      1 <0>         0.0451
      6 C6          6.2055    0.1534   -3.1922 C.ar      1 <0>        -0.0711
      7 C7          5.0352   -0.5836   -3.3934 C.ar      1 <0>         0.3364
      8 C8          3.8164    0.0992   -3.5907 C.ar      1 <0>        -0.1308
      9 C9          2.6177   -0.6019   -3.7958 C.ar      1 <0>        -0.0928
     10 C10         1.4571    0.0865   -3.9835 C.ar      1 <0>        -0.1372
     11 N1          5.0714   -1.9683   -3.3987 N.pl3     1 <0>        -0.8336
     12 N2          7.3881   -0.4923   -3.0011 N.2       1 <0>        -0.1932
     13 N3          8.4701    0.1850   -2.8155 N.2       1 <0>        -0.2574
     14 C11         9.6564   -0.4627   -2.6238 C.ar      1 <0>         0.0738
     15 C12         9.7004   -1.8611   -2.6343 C.ar      1 <0>        -0.1157
     16 C13        10.8925   -2.5102   -2.4416 C.ar      1 <0>        -0.1091
     17 C14        12.0624   -1.7765   -2.2350 C.ar      1 <0>        -0.0369
     18 C15        12.0201   -0.3808   -2.2244 C.ar      1 <0>        -0.1081
     19 C16        10.8304    0.2712   -2.4225 C.ar      1 <0>        -0.0695
     20 C17        13.3492   -2.4791   -2.0266 C.ar      1 <0>        -0.0369
     21 C18        13.3923   -3.8747   -2.0425 C.ar      1 <0>        -0.1080
     22 C19        14.5829   -4.5266   -1.8501 C.ar      1 <0>        -0.0695
     23 C20        15.7551   -3.7928   -1.6377 C.ar      1 <0>         0.0738
     24 C21        15.7102   -2.3946   -1.6220 C.ar      1 <0>        -0.1157
     25 C22        14.5191   -1.7454   -1.8200 C.ar      1 <0>        -0.1091
     26 N4         16.9413   -4.4406   -1.4456 N.2       1 <0>        -0.2575
     27 N5         18.0217   -3.7634   -1.2498 N.2       1 <0>        -0.1932
     28 C23        19.2041   -4.4091   -1.0582 C.ar      1 <0>        -0.0711
     29 C24        20.3717   -3.6723   -0.8407 C.ar      1 <0>         0.3365
     30 C25        21.5905   -4.3552   -0.6436 C.ar      1 <0>        -0.1308
     31 C26        21.6079   -5.7717   -0.6698 C.ar      1 <0>         0.0823
     32 C27        20.4116   -6.4822   -0.8918 C.ar      1 <0>        -0.7057
     33 C28        19.2446   -5.8165   -1.0744 C.ar      1 <0>         0.0452
     34 S1         20.4311   -8.2438   -0.9254 S.o2      1 <0>         2.6986
     35 O1         20.3700   -8.6934    0.4567 O.2       1 <0>        -1.0620
     36 O2         19.2645   -8.6647   -1.6856 O.2       1 <0>        -1.0608
     37 O3         21.6726   -8.6403   -1.5714 O.3       1 <0>        -1.0606
     38 C29        22.8230   -6.4469   -0.4727 C.ar      1 <0>        -0.1245
     39 C30        23.9648   -5.7349   -0.2597 C.ar      1 <0>        -0.0951
     40 C31        23.9469   -4.3428   -0.2341 C.ar      1 <0>        -0.1372
     41 C32        22.7863   -3.6543   -0.4215 C.ar      1 <0>        -0.0928
     42 N6         20.3328   -2.2879   -0.8194 N.pl3     1 <0>        -0.8335
     43 S2          4.9852    3.9886   -3.3646 S.o2      1 <0>         2.6986
     44 O4          4.5839    4.3990   -2.0280 O.2       1 <0>        -1.0620
     45 O5          6.3355    4.4251   -3.6844 O.2       1 <0>        -1.0608
     46 O6          4.0251    4.4089   -4.3733 O.3       1 <0>        -1.0606
     47 H1          0.5085    2.0018   -4.1212 H         1 <0>         0.1260
     48 H2          2.5596    3.2708   -3.7745 H         1 <0>         0.1674
     49 H3          7.0787    2.1180   -3.0300 H         1 <0>         0.1511
     50 H4          2.6155   -1.6819   -3.8049 H         1 <0>         0.1184
     51 H5          0.5361   -0.4551   -4.1412 H         1 <0>         0.1214
     52 H6          5.9123   -2.4320   -3.2622 H         1 <0>         0.4127
     53 H7          4.2557   -2.4743   -3.5389 H         1 <0>         0.4017
     54 H8          8.7956   -2.4289   -2.7936 H         1 <0>         0.1314
     55 H9         10.9266   -3.5896   -2.4492 H         1 <0>         0.1275
     56 H10        12.9257    0.1854   -2.0641 H         1 <0>         0.1323
     57 H11        10.7988    1.3507   -2.4190 H         1 <0>         0.1380
     58 H12        12.4873   -4.4409   -2.2061 H         1 <0>         0.1323
     59 H13        14.6160   -5.6060   -1.8622 H         1 <0>         0.1380
     60 H14        16.6142   -1.8268   -1.4581 H         1 <0>         0.1314
     61 H15        14.4848   -0.6659   -1.8120 H         1 <0>         0.1275
     62 H16        18.3341   -6.3735   -1.2391 H         1 <0>         0.1510
     63 H17        22.8523   -7.5264   -0.4895 H         1 <0>         0.1674
     64 H18        24.8975   -6.2579   -0.1081 H         1 <0>         0.1260
     65 H19        24.8656   -3.8014   -0.0630 H         1 <0>         0.1214
     66 H20        22.7862   -2.5745   -0.3989 H         1 <0>         0.1184
     67 H21        19.4918   -1.8242   -0.9559 H         1 <0>         0.4128
     68 H22        21.1465   -1.7821   -0.6679 H         1 <0>         0.4017
@<TRIPOS>BOND
     1    1   10 ar
     2    1    2 ar
     3    1   47 1
     4    2    3 ar
     5    2   48 1
     6    3    8 ar
     7    3    4 ar
     8    4    5 ar
     9    4   43 1
    10    5    6 ar
    11    5   49 1
    12    6    7 ar
    13    6   12 1
    14    7    8 ar
    15    7   11 1
    16    8    9 ar
    17    9   10 ar
    18    9   50 1
    19   10   51 1
    20   11   52 1
    21   11   53 1
    22   12   13 2
    23   13   14 1
    24   14   19 ar
    25   14   15 ar
    26   15   16 ar
    27   15   54 1
    28   16   17 ar
    29   16   55 1
    30   17   18 ar
    31   17   20 1
    32   18   19 ar
    33   18   56 1
    34   19   57 1
    35   20   25 ar
    36   20   21 ar
    37   21   22 ar
    38   21   58 1
    39   22   23 ar
    40   22   59 1
    41   23   24 ar
    42   23   26 1
    43   24   25 ar
    44   24   60 1
    45   25   61 1
    46   26   27 2
    47   27   28 1
    48   28   33 ar
    49   28   29 ar
    50   29   30 ar
    51   29   42 1
    52   30   41 ar
    53   30   31 ar
    54   31   32 ar
    55   31   38 ar
    56   32   33 ar
    57   32   34 1
    58   33   62 1
    59   34   35 2
    60   34   36 2
    61   34   37 1
    62   38   39 ar
    63   38   63 1
    64   39   40 ar
    65   39   64 1
    66   40   41 ar
    67   40   65 1
    68   41   66 1
    69   42   67 1
    70   42   68 1
    71   43   44 2
    72   43   45 2
    73   43   46 1
@<TRIPOS>MOLECULE
ZINC02935797
   62    67     0     0     0
SMALL
USER_CHARGES
4-[[5-[2-[(4-carboxyphenyl)methyl]-1,3-dioxo-isoindolin-5-yl]carbonyl-1,3-dioxo-isoindolin-2-yl]methyl]benzoic acid
@<TRIPOS>ATOM
      1 C1          1.3943   -3.2722    1.8183 C.ar      1 <0>        -0.1118
      2 C2          1.4145   -4.3628    0.9738 C.ar      1 <0>        -0.0817
      3 C3          2.4555   -4.5111    0.0551 C.ar      1 <0>        -0.0992
      4 C4          3.4668   -3.5502   -0.0056 C.ar      1 <0>        -0.0922
      5 C5          3.4313   -2.4618    0.8412 C.ar      1 <0>        -0.1124
      6 C6          2.3968   -2.3211    1.7492 C.ar      1 <0>        -0.1375
      7 C7          2.3651   -1.1296    2.6713 C.3       1 <0>         0.1596
      8 N1          1.6277   -0.0369    2.0322 N.am      1 <0>        -0.5673
      9 C8          2.1876    0.9035    1.2502 C.2       1 <0>         0.5734
     10 O1          3.3657    0.9802    0.9664 O.2       1 <0>        -0.4534
     11 C9          1.1263    1.8290    0.7930 C.ar      1 <0>        -0.1081
     12 C10         1.1114    2.9570   -0.0125 C.ar      1 <0>        -0.0511
     13 C11        -0.0801    3.6198   -0.2502 C.ar      1 <0>        -0.0398
     14 C12        -1.2701    3.1515    0.3093 C.ar      1 <0>        -0.1364
     15 C13        -1.2633    2.0138    1.1234 C.ar      1 <0>        -0.0184
     16 C14        -0.0714    1.3536    1.3657 C.ar      1 <0>        -0.1404
     17 C15         0.3020    0.1574    2.1501 C.2       1 <0>         0.5741
     18 O2         -0.4609   -0.5343    2.7938 O.2       1 <0>        -0.4476
     19 C16        -2.5396    3.8626    0.0456 C.2       1 <0>         0.4465
     20 O3         -2.5434    5.0705   -0.0860 O.2       1 <0>        -0.4240
     21 C17        -3.8046    3.1036   -0.0581 C.ar      1 <0>        -0.1472
     22 C18        -3.7805    1.7080   -0.0712 C.ar      1 <0>        -0.0568
     23 C19        -4.9602    0.9902   -0.1630 C.ar      1 <0>        -0.0521
     24 C20        -6.1711    1.6588   -0.2530 C.ar      1 <0>        -0.1004
     25 C21        -6.2023    3.0686   -0.2457 C.ar      1 <0>        -0.1474
     26 C22        -5.0226    3.7857   -0.1486 C.ar      1 <0>         0.0121
     27 C23        -7.6284    3.4425   -0.3554 C.2       1 <0>         0.5777
     28 O4         -8.0637    4.5760   -0.3819 O.2       1 <0>        -0.4550
     29 N2         -8.3634    2.3179   -0.4211 N.am      1 <0>        -0.5678
     30 C24        -7.5819    1.2245   -0.3671 C.2       1 <0>         0.5711
     31 O5         -7.9686    0.0741   -0.4058 O.2       1 <0>        -0.4467
     32 C25        -9.8235    2.2879   -0.5363 C.3       1 <0>         0.1599
     33 C26       -10.4357    2.2673    0.8406 C.ar      1 <0>        -0.1373
     34 C27       -10.6955    1.0579    1.4607 C.ar      1 <0>        -0.1122
     35 C28       -11.2513    1.0318    2.7230 C.ar      1 <0>        -0.0819
     36 C29       -11.5615    2.2293    3.3706 C.ar      1 <0>        -0.0997
     37 C30       -11.3016    3.4460    2.7369 C.ar      1 <0>        -0.0919
     38 C31       -10.7406    3.4577    1.4767 C.ar      1 <0>        -0.1121
     39 C32       -12.1616    2.2090    4.7203 C.2       1 <0>         0.4876
     40 O6        -12.4301    3.2524    5.2813 O.co2     1 <0>        -0.6308
     41 C33         2.4866   -5.6791   -0.8488 C.2       1 <0>         0.4871
     42 O7          3.3933   -5.8052   -1.6473 O.co2     1 <0>        -0.6311
     43 H1          0.5919   -3.1584    2.5321 H         1 <0>         0.1216
     44 H2          0.6290   -5.1022    1.0257 H         1 <0>         0.1332
     45 H3          4.2746   -3.6587   -0.7141 H         1 <0>         0.1279
     46 H4          4.2127   -1.7176    0.7950 H         1 <0>         0.1196
     47 H5          3.3844   -0.8058    2.8817 H         1 <0>         0.1030
     48 H6          1.8715   -1.4046    3.6035 H         1 <0>         0.1044
     49 H7          2.0291    3.3208   -0.4505 H         1 <0>         0.1520
     50 H8         -0.0898    4.5011   -0.8743 H         1 <0>         0.1526
     51 H9         -2.1827    1.6531    1.5604 H         1 <0>         0.1561
     52 H10        -2.8373    1.1861   -0.0055 H         1 <0>         0.1558
     53 H11        -4.9371   -0.0896   -0.1686 H         1 <0>         0.1556
     54 H12        -5.0423    4.8655   -0.1423 H         1 <0>         0.1546
     55 H13       -10.1640    3.1740   -1.0720 H         1 <0>         0.1032
     56 H14       -10.1266    1.3945   -1.0821 H         1 <0>         0.1038
     57 H15       -10.4589    0.1324    0.9569 H         1 <0>         0.1212
     58 H16       -11.4495    0.0872    3.2077 H         1 <0>         0.1328
     59 H17       -11.5388    4.3759    3.2323 H         1 <0>         0.1281
     60 H18       -10.5387    4.3981    0.9855 H         1 <0>         0.1201
     61 O8        -12.4112    1.0334    5.3289 O.co2     1 <0>        -0.7520
     62 O9          1.5094   -6.6043   -0.7877 O.co2     1 <0>        -0.7510
@<TRIPOS>BOND
     1    1    6 ar
     2    1    2 ar
     3    1   43 1
     4    2    3 ar
     5    2   44 1
     6    3    4 ar
     7    3   41 1
     8    4    5 ar
     9    4   45 1
    10    5    6 ar
    11    5   46 1
    12    6    7 1
    13    7    8 1
    14    7   47 1
    15    7   48 1
    16    8   17 am
    17    8    9 am
    18    9   10 2
    19    9   11 1
    20   11   16 ar
    21   11   12 ar
    22   12   13 ar
    23   12   49 1
    24   13   14 ar
    25   13   50 1
    26   14   15 ar
    27   14   19 1
    28   15   16 ar
    29   15   51 1
    30   16   17 1
    31   17   18 2
    32   19   20 2
    33   19   21 1
    34   21   26 ar
    35   21   22 ar
    36   22   23 ar
    37   22   52 1
    38   23   24 ar
    39   23   53 1
    40   24   30 1
    41   24   25 ar
    42   25   26 ar
    43   25   27 1
    44   26   54 1
    45   27   28 2
    46   27   29 am
    47   29   30 am
    48   29   32 1
    49   30   31 2
    50   32   33 1
    51   32   55 1
    52   32   56 1
    53   33   38 ar
    54   33   34 ar
    55   34   35 ar
    56   34   57 1
    57   35   36 ar
    58   35   58 1
    59   36   37 ar
    60   36   39 1
    61   37   38 ar
    62   37   59 1
    63   38   60 1
    64   39   40 2
    65   39   61 1
    66   41   42 2
    67   41   62 1
@<TRIPOS>MOLECULE
ZINC02429273
   52    55     0     0     0
SMALL
USER_CHARGES
4-[4-[(4-chlorophenyl)thiocarbamoyl]piperazin-1-yl]-7-ethyl-10-oxo-3,5,7-triazabicyclo[4.4.0]deca-1,3,5,8-tetraene-9-carboxylic acid
@<TRIPOS>ATOM
      1 C1          4.8828   -5.1772   -2.4319 C.3       1 <0>        -0.1663
      2 C2          6.2169   -4.8204   -1.7732 C.3       1 <0>         0.0958
      3 N1          6.9793   -3.9388   -2.6607 N.pl3     1 <0>        -0.4765
      4 C3          7.8894   -4.4844   -3.4825 C.2       1 <0>         0.1642
      5 C4          8.6490   -3.7263   -4.3481 C.2       1 <0>        -0.2661
      6 C5          8.4552   -2.2651   -4.3716 C.2       1 <0>         0.4286
      7 O1          9.1006   -1.5490   -5.1171 O.2       1 <0>        -0.4452
      8 C6          7.4486   -1.7106   -3.4547 C.ar      1 <0>        -0.3161
      9 C7          6.7345   -2.5907   -2.6161 C.ar      1 <0>         0.4498
     10 N2          5.8269   -2.0807   -1.7909 N.ar      1 <0>        -0.5702
     11 C8          5.6038   -0.7755   -1.7622 C.ar      1 <0>         0.5336
     12 N3          6.2563    0.0779   -2.5433 N.ar      1 <0>        -0.5807
     13 C9          7.1797   -0.3429   -3.3904 C.ar      1 <0>         0.2592
     14 N4          4.6529   -0.2840   -0.8913 N.pl3     1 <0>        -0.4608
     15 C10         4.5448    1.1770   -0.9997 C.3       1 <0>         0.0605
     16 C11         3.6172    1.7004    0.1020 C.3       1 <0>         0.0888
     17 N5          2.3404    0.9747    0.0216 N.pl3     1 <0>        -0.5302
     18 C12         2.3762   -0.4954   -0.0072 C.3       1 <0>         0.0927
     19 C13         3.3530   -0.9322   -1.1105 C.3       1 <0>         0.0566
     20 C14         1.1684    1.6390   -0.0189 C.2       1 <0>         0.5641
     21 S1          1.1563    3.3482   -0.1155 S.2       1 <0>        -0.5643
     22 N6          0.0061    0.9577    0.0166 N.pl3     1 <0>        -0.6898
     23 C15        -0.4081    0.3419    1.2031 C.ar      1 <0>         0.1931
     24 C16         0.3140    0.5317    2.3740 C.ar      1 <0>        -0.1591
     25 C17        -0.1002   -0.0726    3.5448 C.ar      1 <0>        -0.0634
     26 C18        -1.2268   -0.8762    3.5491 C.ar      1 <0>        -0.0692
     27 C19        -1.9448   -1.0715    2.3824 C.ar      1 <0>        -0.0667
     28 C20        -1.5385   -0.4646    1.2103 C.ar      1 <0>        -0.1527
     29 Cl1        -1.7406   -1.6401    5.0209 Cl        1 <0>        -0.0692
     30 C21         9.6352   -4.3639   -5.2319 C.2       1 <0>         0.5066
     31 O2         10.2996   -3.6854   -5.9908 O.co2     1 <0>        -0.6048
     32 H1          4.3155   -5.8332   -1.7716 H         1 <0>         0.0740
     33 H2          4.3133   -4.2662   -2.6160 H         1 <0>         0.0591
     34 H3          5.0692   -5.6864   -3.3775 H         1 <0>         0.0630
     35 H4          6.7863   -5.7314   -1.5892 H         1 <0>         0.0954
     36 H5          6.0305   -4.3112   -0.8277 H         1 <0>         0.0977
     37 H6          8.0312   -5.5549   -3.4657 H         1 <0>         0.1818
     38 H7          7.7107    0.3550   -4.0208 H         1 <0>         0.1856
     39 H8          4.1356    1.4401   -1.9751 H         1 <0>         0.0666
     40 H9          5.5324    1.6242   -0.8865 H         1 <0>         0.1167
     41 H10         3.4421    2.7665   -0.0426 H         1 <0>         0.1401
     42 H11         4.0725    1.5333    1.0781 H         1 <0>         0.0965
     43 H12         2.7163   -0.8723    0.9574 H         1 <0>         0.1005
     44 H13         1.3803   -0.8818   -0.2240 H         1 <0>         0.1021
     45 H14         2.9604   -0.6398   -2.0844 H         1 <0>         0.0551
     46 H15         3.4763   -2.0147   -1.0777 H         1 <0>         0.1159
     47 H16        -0.5454    0.8976   -0.7792 H         1 <0>         0.4291
     48 H17         1.1958    1.1552    2.3702 H         1 <0>         0.1288
     49 H18         0.4582    0.0786    4.4568 H         1 <0>         0.1379
     50 H19        -2.8239   -1.6989    2.3886 H         1 <0>         0.1394
     51 H20        -2.0997   -0.6168    0.3001 H         1 <0>         0.1379
     52 O3          9.8029   -5.7011   -5.2009 O.co2     1 <0>        -0.7657
@<TRIPOS>BOND
     1    1    2 1
     2    1   32 1
     3    1   33 1
     4    1   34 1
     5    2    3 1
     6    2   35 1
     7    2   36 1
     8    3    9 1
     9    3    4 1
    10    4    5 2
    11    4   37 1
    12    5    6 1
    13    5   30 1
    14    6    7 2
    15    6    8 1
    16    8   13 ar
    17    8    9 ar
    18    9   10 ar
    19   10   11 ar
    20   11   12 ar
    21   11   14 1
    22   12   13 ar
    23   13   38 1
    24   14   19 1
    25   14   15 1
    26   15   16 1
    27   15   39 1
    28   15   40 1
    29   16   17 1
    30   16   41 1
    31   16   42 1
    32   17   18 1
    33   17   20 1
    34   18   19 1
    35   18   43 1
    36   18   44 1
    37   19   45 1
    38   19   46 1
    39   20   21 2
    40   20   22 1
    41   22   23 1
    42   22   47 1
    43   23   28 ar
    44   23   24 ar
    45   24   25 ar
    46   24   48 1
    47   25   26 ar
    48   25   49 1
    49   26   27 ar
    50   26   29 1
    51   27   28 ar
    52   27   50 1
    53   28   51 1
    54   30   31 2
    55   30   52 1
@<TRIPOS>MOLECULE
ZINC01440909
   55    58     0     0     0
SMALL
USER_CHARGES
7-ethyl-10-oxo-4-[4-[[3-(trifluoromethyl)phenyl]thiocarbamoyl]piperazin-1-yl]-3,5,7-triazabicyclo[4.4.0]deca-1,3,5,8-tetraene-9-carboxylic acid
@<TRIPOS>ATOM
      1 C1         -3.1050   12.1410    3.2771 C.3       1 <0>        -0.1664
      2 C2         -2.1602   13.2098    2.7239 C.3       1 <0>         0.0959
      3 N1         -1.0132   13.3602    3.6228 N.pl3     1 <0>        -0.4766
      4 C3         -1.0501   14.3235    4.5567 C.2       1 <0>         0.1639
      5 C4         -0.0133   14.5325    5.4412 C.2       1 <0>        -0.2660
      6 C5          1.1779   13.6679    5.3580 C.2       1 <0>         0.4285
      7 O1          2.1222   13.8102    6.1151 O.2       1 <0>        -0.4451
      8 C6          1.1756   12.6266    4.3202 C.ar      1 <0>        -0.3163
      9 C7          0.0535   12.5122    3.4743 C.ar      1 <0>         0.4498
     10 N2          0.0603   11.5683    2.5395 N.ar      1 <0>        -0.5708
     11 C8          1.0998   10.7579    2.4112 C.ar      1 <0>         0.5334
     12 N3          2.1685   10.8374    3.1961 N.ar      1 <0>        -0.5801
     13 C9          2.2479   11.7504    4.1487 C.ar      1 <0>         0.2593
     14 N4          1.0692    9.7900    1.4281 N.pl3     1 <0>        -0.4600
     15 C10         2.3019    8.9910    1.4373 C.3       1 <0>         0.0586
     16 C11         2.3083    8.0537    0.2250 C.3       1 <0>         0.1041
     17 N5          1.0614    7.2736    0.2311 N.pl3     1 <0>        -0.5624
     18 C12        -0.2125    7.9986    0.3521 C.3       1 <0>         0.0965
     19 C13        -0.1193    8.9376    1.5653 C.3       1 <0>         0.0561
     20 C14         1.0854    5.9303    0.1230 C.2       1 <0>         0.5604
     21 S1          2.5816    5.0983    0.1200 S.2       1 <0>        -0.6134
     22 N6         -0.0686    5.2421    0.0172 N.pl3     1 <0>        -0.6364
     23 C15        -0.0525    3.8434    0.0302 C.ar      1 <0>         0.1312
     24 C16         0.7829    3.1651    0.9084 C.ar      1 <0>        -0.0403
     25 C17         0.7967    1.7843    0.9184 C.ar      1 <0>        -0.1101
     26 C18        -0.0201    1.0768    0.0553 C.ar      1 <0>        -0.0671
     27 C19        -0.8490    1.7490   -0.8238 C.ar      1 <0>        -0.1791
     28 C20        -0.8714    3.1301   -0.8351 C.ar      1 <0>        -0.0768
     29 C21        -1.7328    0.9740   -1.7669 C.3       1 <0>         0.5114
     30 F1         -1.5394   -0.3970   -1.5666 F         1 <0>        -0.1757
     31 F2         -3.0719    1.2968   -1.5223 F         1 <0>        -0.1776
     32 F3         -1.4074    1.3029   -3.0872 F         1 <0>        -0.1759
     33 C22        -0.0940   15.5991    6.4492 C.2       1 <0>         0.5066
     34 O2          0.8265   15.7744    7.2236 O.co2     1 <0>        -0.6047
     35 H1         -3.9583   12.0291    2.6083 H         1 <0>         0.0737
     36 H2         -2.5752   11.1914    3.3523 H         1 <0>         0.0592
     37 H3         -3.4545   12.4412    4.2649 H         1 <0>         0.0631
     38 H4         -2.6899   14.1594    2.6487 H         1 <0>         0.0953
     39 H5         -1.8106   12.9095    1.7361 H         1 <0>         0.0976
     40 H6         -1.9228   14.9568    4.6180 H         1 <0>         0.1818
     41 H7          3.1205   11.8140    4.7819 H         1 <0>         0.1856
     42 H8          2.3464    8.4015    2.3531 H         1 <0>         0.0659
     43 H9          3.1656    9.6542    1.3889 H         1 <0>         0.1152
     44 H10         3.1624    7.3795    0.2880 H         1 <0>         0.1390
     45 H11         2.3701    8.6381   -0.6930 H         1 <0>         0.0919
     46 H12        -0.3900    8.5805   -0.5523 H         1 <0>         0.1022
     47 H13        -1.0257    7.2879    0.4991 H         1 <0>         0.0899
     48 H14        -0.0411    8.3488    2.4793 H         1 <0>         0.0557
     49 H15        -1.0116    9.5621    1.6097 H         1 <0>         0.1156
     50 H16        -0.9103    5.7167   -0.0679 H         1 <0>         0.4080
     51 H17         1.4213    3.7170    1.5825 H         1 <0>         0.1537
     52 H18         1.4464    1.2563    1.6008 H         1 <0>         0.1420
     53 H19        -0.0071   -0.0031    0.0648 H         1 <0>         0.1408
     54 H20        -1.5221    3.6546   -1.5192 H         1 <0>         0.1346
     55 O3         -1.1887   16.3829    6.5149 O.co2     1 <0>        -0.7657
@<TRIPOS>BOND
     1    1    2 1
     2    1   35 1
     3    1   36 1
     4    1   37 1
     5    2    3 1
     6    2   38 1
     7    2   39 1
     8    3    9 1
     9    3    4 1
    10    4    5 2
    11    4   40 1
    12    5    6 1
    13    5   33 1
    14    6    7 2
    15    6    8 1
    16    8   13 ar
    17    8    9 ar
    18    9   10 ar
    19   10   11 ar
    20   11   12 ar
    21   11   14 1
    22   12   13 ar
    23   13   41 1
    24   14   19 1
    25   14   15 1
    26   15   16 1
    27   15   42 1
    28   15   43 1
    29   16   17 1
    30   16   44 1
    31   16   45 1
    32   17   18 1
    33   17   20 1
    34   18   19 1
    35   18   46 1
    36   18   47 1
    37   19   48 1
    38   19   49 1
    39   20   21 2
    40   20   22 1
    41   22   23 1
    42   22   50 1
    43   23   28 ar
    44   23   24 ar
    45   24   25 ar
    46   24   51 1
    47   25   26 ar
    48   25   52 1
    49   26   27 ar
    50   26   53 1
    51   27   28 ar
    52   27   29 1
    53   28   54 1
    54   29   30 1
    55   29   31 1
    56   29   32 1
    57   33   34 2
    58   33   55 1
