@<TRIPOS>MOLECULE
ZINC20148984
   41    45     0     0     0
SMALL
USER_CHARGES
1-cyclopentyl-3-(1H-pyrrolo[3,2-e]pyridin-5-yl)pyrazolo[4,5-e]pyrimidin-4-amine
@<TRIPOS>ATOM
      1 C1          4.4845    4.9055    2.0125 C.2       1 <0>        -0.1900
      2 C2          5.5992    4.3307    1.5348 C.2       1 <0>         0.0669
      3 N1          5.2848    3.4893    0.5015 N.pl3     1 <0>        -0.5784
      4 H1          5.9256    2.9627   -0.0014 H         1 <0>         0.4233
      5 C3          3.9281    3.5001    0.2812 C.ar      1 <0>         0.2921
      6 C4          3.3669    4.3889    1.2195 C.ar      1 <0>        -0.1505
      7 C5          1.9890    4.6049    1.2249 C.ar      1 <0>         0.0123
      8 C6          1.2154    3.9130    0.2940 C.ar      1 <0>        -0.1086
      9 C7          1.8449    3.0477   -0.6050 C.ar      1 <0>         0.1517
     10 N2          3.1471    2.8701   -0.5872 N.ar      1 <0>        -0.4865
     11 C8         -0.2553    4.0974    0.2542 C.2       1 <0>         0.1769
     12 C9         -1.2579    3.0400    0.1283 C.ar      1 <0>        -0.3246
     13 C10        -1.2161    1.6416    0.0009 C.ar      1 <0>         0.5185
     14 N3         -2.3661    0.9828   -0.1017 N.ar      1 <0>        -0.6042
     15 C11        -3.5224    1.6223   -0.0898 C.ar      1 <0>         0.3863
     16 N4         -3.6100    2.9293    0.0228 N.ar      1 <0>        -0.5738
     17 C12        -2.5123    3.6779    0.1313 C.ar      1 <0>         0.3755
     18 N5         -2.2765    5.0144    0.2581 N.pl3     1 <0>        -0.3684
     19 N6         -0.8976    5.2388    0.3304 N.2       1 <0>        -0.2292
     20 C13        -3.3071    6.0542    0.3110 C.3       1 <0>         0.1632
     21 C14        -3.0862    7.0753   -0.8240 C.3       1 <0>        -0.1330
     22 C15        -3.4640    8.4369   -0.1879 C.3       1 <0>        -0.1220
     23 C16        -2.9184    8.3038    1.2556 C.3       1 <0>        -0.1210
     24 C17        -3.2009    6.8348    1.6328 C.3       1 <0>        -0.1322
     25 N7         -0.0104    0.9674   -0.0117 N.pl3     1 <0>        -0.8291
     26 H2          4.4234    5.6137    2.8256 H         1 <0>         0.1556
     27 H3          6.5967    4.5059    1.9100 H         1 <0>         0.1829
     28 H4          1.5348    5.2845    1.9308 H         1 <0>         0.1424
     29 H5          1.2485    2.5132   -1.3297 H         1 <0>         0.1671
     30 H6         -4.4328    1.0478   -0.1756 H         1 <0>         0.2050
     31 H7         -4.2959    5.6044    0.2215 H         1 <0>         0.1144
     32 H8         -2.0422    7.0775   -1.1374 H         1 <0>         0.0814
     33 H9         -3.7386    6.8539   -1.6687 H         1 <0>         0.0742
     34 H10        -4.5455    8.5726   -0.1810 H         1 <0>         0.0720
     35 H11        -2.9740    9.2575   -0.7119 H         1 <0>         0.0733
     36 H12        -3.4484    8.9788    1.9276 H         1 <0>         0.0704
     37 H13        -1.8473    8.5043    1.2786 H         1 <0>         0.0705
     38 H14        -4.1384    6.7646    2.1843 H         1 <0>         0.0772
     39 H15        -2.3825    6.4400    2.2349 H         1 <0>         0.0748
     40 H16         0.0305    0.0526   -0.3317 H         1 <0>         0.4120
     41 H17         0.7961    1.4102    0.2956 H         1 <0>         0.4116
@<TRIPOS>BOND
     1    1    6 1
     2    1    2 2
     3    1   26 1
     4    2    3 1
     5    2   27 1
     6    3    4 1
     7    3    5 1
     8    5   10 ar
     9    5    6 ar
    10    6    7 ar
    11    7    8 ar
    12    7   28 1
    13    8    9 ar
    14    8   11 1
    15    9   10 ar
    16    9   29 1
    17   11   19 2
    18   11   12 1
    19   12   17 ar
    20   12   13 ar
    21   13   14 ar
    22   13   25 1
    23   14   15 ar
    24   15   16 ar
    25   15   30 1
    26   16   17 ar
    27   17   18 1
    28   18   19 1
    29   18   20 1
    30   20   24 1
    31   20   21 1
    32   20   31 1
    33   21   22 1
    34   21   32 1
    35   21   33 1
    36   22   23 1
    37   22   34 1
    38   22   35 1
    39   23   24 1
    40   23   36 1
    41   23   37 1
    42   24   38 1
    43   24   39 1
    44   25   40 1
    45   25   41 1
@<TRIPOS>MOLECULE
ZINC13493055
   37    40     0     0     0
SMALL
USER_CHARGES
5-(2,6-dichlorophenyl)-2-(2,4-difluorophenyl)sulfanyl-pyrimido[6,1-f]pyridazin-6-one
@<TRIPOS>ATOM
      1 C1          0.7819    4.3410    0.0524 C.ar      1 <0>        -0.0865
      2 C2         -0.4275    5.0027   -0.0644 C.ar      1 <0>        -0.1052
      3 C3         -1.6103    4.2903   -0.0692 C.ar      1 <0>        -0.0078
      4 C4         -1.5836    2.8981    0.0381 C.ar      1 <0>        -0.0051
      5 C5         -0.3594    2.2372    0.1611 C.ar      1 <0>        -0.0079
      6 C6          0.8156    2.9624    0.1649 C.ar      1 <0>        -0.1052
      7 Cl1        -0.3147    0.5075    0.3018 Cl        1 <0>        -0.0496
      8 C7         -2.8461    2.1276    0.0266 C.2       1 <0>        -0.1962
      9 C8         -3.3978    1.6608   -1.1750 C.2       1 <0>         0.1634
     10 C9         -2.7630    1.9018   -2.4066 C.2       1 <0>        -0.0494
     11 C10        -3.3310    1.4261   -3.5469 C.2       1 <0>        -0.1079
     12 C11        -4.5373    0.6985   -3.4809 C.2       1 <0>         0.1181
     13 N1         -5.1260    0.4712   -2.3297 N.2       1 <0>        -0.2574
     14 N2         -4.5673    0.9472   -1.1371 N.pl3     1 <0>        -0.3270
     15 C12        -5.1778    0.7109    0.0511 C.2       1 <0>         0.4228
     16 N3         -4.6823    1.1412    1.1775 N.2       1 <0>        -0.5427
     17 C13        -3.5381    1.8434    1.2263 C.2       1 <0>         0.5151
     18 O1         -3.0989    2.2338    2.2995 O.2       1 <0>        -0.4890
     19 S1         -5.2649    0.0865   -4.9643 S.3       1 <0>         0.1498
     20 C14        -6.6196   -0.8905   -4.4031 C.ar      1 <0>        -0.2138
     21 C15        -7.9169   -0.4067   -4.5085 C.ar      1 <0>         0.0058
     22 C16        -8.9776   -1.1741   -4.0680 C.ar      1 <0>        -0.1725
     23 C17        -8.7491   -2.4257   -3.5211 C.ar      1 <0>         0.1750
     24 C18        -7.4569   -2.9119   -3.4142 C.ar      1 <0>        -0.2011
     25 C19        -6.3919   -2.1502   -3.8590 C.ar      1 <0>         0.1941
     26 F1         -5.1316   -2.6265   -3.7599 F         1 <0>        -0.1130
     27 F2         -9.7887   -3.1735   -3.0908 F         1 <0>        -0.1191
     28 Cl2        -3.1267    5.1227   -0.2165 Cl        1 <0>        -0.0501
     29 H1          1.7040    4.9031    0.0556 H         1 <0>         0.1468
     30 H2         -0.4464    6.0789   -0.1525 H         1 <0>         0.1450
     31 H3          1.7632    2.4523    0.2554 H         1 <0>         0.1450
     32 H4         -1.8394    2.4601   -2.4465 H         1 <0>         0.1694
     33 H5         -2.8589    1.6049   -4.5017 H         1 <0>         0.1688
     34 H6         -6.1009    0.1504    0.0642 H         1 <0>         0.2171
     35 H7         -8.0965    0.5691   -4.9351 H         1 <0>         0.1572
     36 H8         -9.9865   -0.7976   -4.1504 H         1 <0>         0.1548
     37 H9         -7.2812   -3.8884   -2.9877 H         1 <0>         0.1586
@<TRIPOS>BOND
     1    1    6 ar
     2    1    2 ar
     3    1   29 1
     4    2    3 ar
     5    2   30 1
     6    3    4 ar
     7    3   28 1
     8    4    5 ar
     9    4    8 1
    10    5    6 ar
    11    5    7 1
    12    6   31 1
    13    8   17 1
    14    8    9 2
    15    9   14 1
    16    9   10 1
    17   10   11 2
    18   10   32 1
    19   11   12 1
    20   11   33 1
    21   12   13 2
    22   12   19 1
    23   13   14 1
    24   14   15 1
    25   15   16 2
    26   15   34 1
    27   16   17 1
    28   17   18 2
    29   19   20 1
    30   20   25 ar
    31   20   21 ar
    32   21   22 ar
    33   21   35 1
    34   22   23 ar
    35   22   36 1
    36   23   24 ar
    37   23   27 1
    38   24   25 ar
    39   24   37 1
    40   25   26 1
@<TRIPOS>MOLECULE
ZINC20148983
   39    42     0     0     0
SMALL
USER_CHARGES
1-isopropyl-3-(6-quinolyl)pyrazolo[4,5-e]pyrimidin-4-amine
@<TRIPOS>ATOM
      1 C1          1.0254    8.7978   -2.0248 C.3       1 <0>        -0.1621
      2 C2          1.2018    8.9153   -0.5095 C.3       1 <0>         0.1606
      3 C3         -0.1710    9.0289    0.1564 C.3       1 <0>        -0.1621
      4 N1          1.8926    7.7262   -0.0046 N.pl3     1 <0>        -0.3691
      5 C4          3.0880    7.7288    0.6508 C.ar      1 <0>         0.3756
      6 C5          3.3891    6.3885    0.9574 C.ar      1 <0>        -0.3235
      7 C6          2.2832    5.5859    0.4354 C.2       1 <0>         0.1611
      8 N2          1.4309    6.4112   -0.1252 N.2       1 <0>        -0.2249
      9 C7          2.1525    4.1119    0.5188 C.ar      1 <0>        -0.0128
     10 C8          1.7465    3.3824   -0.6110 C.ar      1 <0>        -0.0754
     11 C9          1.6190    2.0318   -0.5611 C.ar      1 <0>        -0.0829
     12 C10         1.8956    1.3409    0.6333 C.ar      1 <0>         0.1347
     13 C11         2.3061    2.0687    1.7786 C.ar      1 <0>        -0.1018
     14 C12         2.4317    3.4637    1.7084 C.ar      1 <0>        -0.0831
     15 C13         2.5804    1.3697    2.9700 C.ar      1 <0>        -0.0542
     16 C14         2.4374    0.0111    2.9678 C.ar      1 <0>        -0.1718
     17 C15         2.0303   -0.6425    1.8073 C.ar      1 <0>         0.1391
     18 N3          1.7757    0.0115    0.6997 N.ar      1 <0>        -0.4734
     19 C16         4.5832    6.1084    1.6415 C.ar      1 <0>         0.5181
     20 N4          5.3762    7.1241    1.9688 N.ar      1 <0>        -0.6038
     21 C17         5.0541    8.3678    1.6609 C.ar      1 <0>         0.3865
     22 N5          3.9473    8.6775    1.0220 N.ar      1 <0>        -0.5731
     23 N6          4.9255    4.8098    1.9657 N.pl3     1 <0>        -0.8303
     24 H1          2.0034    8.7169   -2.4992 H         1 <0>         0.0603
     25 H2          0.4358    7.9102   -2.2542 H         1 <0>         0.0702
     26 H3          0.5114    9.6825   -2.4004 H         1 <0>         0.0791
     27 H4          1.7914    9.8029   -0.2801 H         1 <0>         0.1120
     28 H5         -0.0453    9.1126    1.2359 H         1 <0>         0.0600
     29 H6         -0.6850    9.9136   -0.2192 H         1 <0>         0.0791
     30 H7         -0.7606    8.1413   -0.0730 H         1 <0>         0.0701
     31 H8          1.5326    3.9036   -1.5325 H         1 <0>         0.1376
     32 H9          1.3057    1.4868   -1.4393 H         1 <0>         0.1440
     33 H10         2.7434    4.0269    2.5755 H         1 <0>         0.1398
     34 H11         2.8910    1.8936    3.8619 H         1 <0>         0.1419
     35 H12         2.6394   -0.5553    3.8649 H         1 <0>         0.1418
     36 H13         1.9210   -1.7169    1.8201 H         1 <0>         0.1629
     37 H14         5.7273    9.1628    1.9460 H         1 <0>         0.2058
     38 H15         4.4796    4.0672    1.5292 H         1 <0>         0.4125
     39 H16         5.6119    4.6406    2.6300 H         1 <0>         0.4110
@<TRIPOS>BOND
     1    1    2 1
     2    1   24 1
     3    1   25 1
     4    1   26 1
     5    2    3 1
     6    2    4 1
     7    2   27 1
     8    3   28 1
     9    3   29 1
    10    3   30 1
    11    4    8 1
    12    4    5 1
    13    5   22 ar
    14    5    6 ar
    15    6    7 1
    16    6   19 ar
    17    7    8 2
    18    7    9 1
    19    9   14 ar
    20    9   10 ar
    21   10   11 ar
    22   10   31 1
    23   11   12 ar
    24   11   32 1
    25   12   18 ar
    26   12   13 ar
    27   13   14 ar
    28   13   15 ar
    29   14   33 1
    30   15   16 ar
    31   15   34 1
    32   16   17 ar
    33   16   35 1
    34   17   18 ar
    35   17   36 1
    36   19   20 ar
    37   19   23 1
    38   20   21 ar
    39   21   22 ar
    40   21   37 1
    41   23   38 1
    42   23   39 1
@<TRIPOS>MOLECULE
ZINC08581906
   35    37     0     0     0
SMALL
USER_CHARGES

@<TRIPOS>ATOM
      1 C1          0.4062    0.7134    0.7743 C.3       1 <0>        -0.1622
      2 C2          0.2062   -0.7227    0.2861 C.3       1 <0>         0.1603
      3 C3          0.8807   -1.6910    1.2599 C.3       1 <0>        -0.1622
      4 N1         -1.2267   -1.0197    0.2161 N.pl3     1 <0>        -0.3682
      5 C4         -1.9008   -1.3860   -0.9107 C.ar      1 <0>         0.3764
      6 C5         -3.2452   -1.5750   -0.5394 C.ar      1 <0>        -0.3225
      7 C6         -3.3224   -1.2938    0.8939 C.2       1 <0>         0.1576
      8 N2         -2.1144   -0.9772    1.2964 N.2       1 <0>        -0.2230
      9 C7         -4.5398   -1.3596    1.7373 C.ar      1 <0>         0.0119
     10 C8         -5.4110   -2.4425    1.6242 C.ar      1 <0>        -0.1154
     11 C9         -6.5434   -2.5019    2.4107 C.ar      1 <0>        -0.0699
     12 C10        -6.8177   -1.4892    3.3123 C.ar      1 <0>        -0.1122
     13 C11        -5.9551   -0.4073    3.4309 C.ar      1 <0>         0.1435
     14 C12        -4.8137   -0.3425    2.6492 C.ar      1 <0>        -0.1062
     15 O1         -6.2283    0.5856    4.3181 O.3       1 <0>        -0.4823
     16 Br1        -8.3720   -1.5780    4.3858 Br        1 <0>        -0.0262
     17 C13        -4.1663   -1.9613   -1.5268 C.ar      1 <0>         0.5186
     18 N3         -3.7252   -2.1311   -2.7695 N.ar      1 <0>        -0.6031
     19 C14        -2.4536   -1.9426   -3.0738 C.ar      1 <0>         0.3877
     20 N4         -1.5560   -1.5814   -2.1832 N.ar      1 <0>        -0.5731
     21 N5         -5.4973   -2.1603   -1.2145 N.pl3     1 <0>        -0.8288
     22 H1          1.4723    0.9344    0.8264 H         1 <0>         0.0796
     23 H2         -0.0744    1.4033    0.0805 H         1 <0>         0.0606
     24 H3         -0.0369    0.8258    1.7638 H         1 <0>         0.0698
     25 H4          0.6493   -0.8351   -0.7034 H         1 <0>         0.1127
     26 H5          0.4376   -1.5786    2.2494 H         1 <0>         0.0699
     27 H6          0.7383   -2.7142    0.9121 H         1 <0>         0.0604
     28 H7          1.9468   -1.4701    1.3120 H         1 <0>         0.0794
     29 H8         -5.1997   -3.2345    0.9210 H         1 <0>         0.1438
     30 H9         -7.2175   -3.3410    2.3219 H         1 <0>         0.1472
     31 H10        -4.1397    0.4960    2.7436 H         1 <0>         0.1455
     32 H11        -5.8524    0.4419    5.1973 H         1 <0>         0.3991
     33 H12        -2.1380   -2.0919   -4.0958 H         1 <0>         0.2063
     34 H13        -5.8559   -1.8196   -0.3801 H         1 <0>         0.4127
     35 H14        -6.0732   -2.6406   -1.8297 H         1 <0>         0.4121
@<TRIPOS>BOND
     1    1    2 1
     2    1   22 1
     3    1   23 1
     4    1   24 1
     5    2    3 1
     6    2    4 1
     7    2   25 1
     8    3   26 1
     9    3   27 1
    10    3   28 1
    11    4    8 1
    12    4    5 1
    13    5   20 ar
    14    5    6 ar
    15    6    7 1
    16    6   17 ar
    17    7    8 2
    18    7    9 1
    19    9   14 ar
    20    9   10 ar
    21   10   11 ar
    22   10   29 1
    23   11   12 ar
    24   11   30 1
    25   12   13 ar
    26   12   16 1
    27   13   14 ar
    28   13   15 1
    29   14   31 1
    30   15   32 1
    31   17   18 ar
    32   17   21 1
    33   18   19 ar
    34   19   20 ar
    35   19   33 1
    36   21   34 1
    37   21   35 1
@<TRIPOS>MOLECULE
ZINC36056301
   39    42     0     0     0
SMALL
USER_CHARGES

@<TRIPOS>ATOM
      1 C1          0.9254    1.9991    0.1115 C.3       1 <0>        -0.1625
      2 C2          0.5644    0.5164    0.0017 C.3       1 <0>         0.1602
      3 C3         -0.9547    0.3678   -0.1037 C.3       1 <0>        -0.1630
      4 N1          1.1948   -0.0526   -1.1921 N.pl3     1 <0>        -0.3660
      5 C4          2.0845   -1.0857   -1.1960 C.ar      1 <0>         0.3791
      6 C5          2.4399   -1.3150   -2.5382 C.ar      1 <0>        -0.3289
      7 C6          1.6949   -0.3401   -3.3365 C.2       1 <0>         0.1761
      8 N2          0.9724    0.3761   -2.5050 N.2       1 <0>        -0.2098
      9 C7          1.7418   -0.1929   -4.8056 C.2       1 <0>         0.1339
     10 C8          0.6708    0.0518   -5.6025 C.2       1 <0>        -0.1346
     11 C9          1.1678    0.1218   -6.9754 C.ar      1 <0>        -0.0943
     12 C10         0.5575    0.3431   -8.2141 C.ar      1 <0>        -0.0897
     13 C11         1.3249    0.3481   -9.3611 C.ar      1 <0>         0.0805
     14 C12         2.6992    0.1341   -9.2873 C.ar      1 <0>        -0.1109
     15 C13         3.3112   -0.0854   -8.0732 C.ar      1 <0>        -0.1139
     16 C14         2.5568   -0.0941   -6.9049 C.ar      1 <0>         0.1038
     17 N3          2.8789   -0.2768   -5.5757 N.pl3     1 <0>        -0.5932
     18 H1          3.7722   -0.4418   -5.2356 H         1 <0>         0.4168
     19 O1          0.7369    0.5623  -10.5684 O.3       1 <0>        -0.4967
     20 C15         3.3555   -2.3402   -2.8244 C.ar      1 <0>         0.5168
     21 N4          3.8460   -3.0492   -1.8121 N.ar      1 <0>        -0.6021
     22 C16         3.4845   -2.7997   -0.5663 C.ar      1 <0>         0.3889
     23 N5          2.6311   -1.8502   -0.2510 N.ar      1 <0>        -0.5714
     24 N6          3.7369   -2.6060   -4.1255 N.pl3     1 <0>        -0.8317
     25 H2          2.0076    2.1050    0.1866 H         1 <0>         0.0602
     26 H3          0.5693    2.5263   -0.7736 H         1 <0>         0.0709
     27 H4          0.4564    2.4224    0.9997 H         1 <0>         0.0802
     28 H5          0.9205   -0.0108    0.8868 H         1 <0>         0.1134
     29 H6         -1.3108    0.8949   -0.9888 H         1 <0>         0.0712
     30 H7         -1.2119   -0.6886   -0.1820 H         1 <0>         0.0610
     31 H8         -1.4237    0.7911    0.7845 H         1 <0>         0.0801
     32 H9         -0.3538    0.1719   -5.2829 H         1 <0>         0.1573
     33 H10        -0.5081    0.5089   -8.2728 H         1 <0>         0.1338
     34 H11         3.2906    0.1399  -10.1910 H         1 <0>         0.1358
     35 H12         4.3776   -0.2505   -8.0283 H         1 <0>         0.1290
     36 H13         0.6969    1.4933  -10.8268 H         1 <0>         0.3892
     37 H14         3.9074   -3.3999    0.2258 H         1 <0>         0.2077
     38 H15         3.2729   -2.1806   -4.8634 H         1 <0>         0.4091
     39 H16         4.4688   -3.2179   -4.3009 H         1 <0>         0.4134
@<TRIPOS>BOND
     1    1    2 1
     2    1   25 1
     3    1   26 1
     4    1   27 1
     5    2    3 1
     6    2    4 1
     7    2   28 1
     8    3   29 1
     9    3   30 1
    10    3   31 1
    11    4    8 1
    12    4    5 1
    13    5   23 ar
    14    5    6 ar
    15    6    7 1
    16    6   20 ar
    17    7    8 2
    18    7    9 1
    19    9   17 1
    20    9   10 2
    21   10   11 1
    22   10   32 1
    23   11   16 ar
    24   11   12 ar
    25   12   13 ar
    26   12   33 1
    27   13   14 ar
    28   13   19 1
    29   14   15 ar
    30   14   34 1
    31   15   16 ar
    32   15   35 1
    33   16   17 1
    34   17   18 1
    35   19   36 1
    36   20   21 ar
    37   20   24 1
    38   21   22 ar
    39   22   23 ar
    40   22   37 1
    41   24   38 1
    42   24   39 1
@<TRIPOS>MOLECULE
ZINC36056301
   40    43     0     0     0
SMALL
NO_CHARGES

@<TRIPOS>ATOM
      1 C1          0.4668   -0.4939    1.1218 C.3       1 <0>        -0.1699
      2 C2          0.3340   -1.7615    0.2754 C.3       1 <0>         0.1613
      3 C3          1.1061   -2.9024    0.9410 C.3       1 <0>        -0.1701
      4 N1         -1.0799   -2.1284    0.1641 N.pl3     1 <0>        -0.3634
      5 C4         -1.7908   -2.2350   -1.0057 C.ar      1 <0>         0.4043
      6 C5         -3.1109   -2.6092   -0.6652 C.ar      1 <0>        -0.2157
      7 C6         -4.0447   -2.7836   -1.7054 C.ar      1 <0>         0.3985
      8 N2         -3.6387   -2.5876   -2.9589 N.ar      1 <0>        -0.5485
      9 C7         -2.3961   -2.2391   -3.2258 C.ar      1 <0>         0.3110
     10 N3         -1.4867   -2.0641   -2.2858 N.ar      1 <0>        -0.5580
     11 N4         -5.3440   -3.1479   -1.4334 N.pl3     1 <0>        -0.8571
     12 C8         -3.1685   -2.7231    0.7407 C.2       1 <0>         0.1060
     13 C9         -4.3454   -3.0906    1.5281 C.2       1 <0>         0.1145
     14 C10        -4.5167   -2.8192    2.8889 C.2       1 <0>        -0.1932
     15 C11        -5.7650   -3.3339    3.2429 C.ar      1 <0>        -0.0803
     16 C12        -6.5191   -3.3917    4.4278 C.ar      1 <0>        -0.1106
     17 C13        -7.7442   -3.9909    4.4147 C.ar      1 <0>         0.0839
     18 C14        -8.2689   -4.5512    3.2463 C.ar      1 <0>        -0.1283
     19 C15        -7.5862   -4.5260    2.0714 C.ar      1 <0>        -0.1066
     20 C16        -6.3164   -3.9222    2.0150 C.ar      1 <0>         0.0610
     21 N5         -5.4208   -3.7321    1.0501 N.pl3     1 <0>        -0.5313
     22 O1         -8.4709   -4.0448    5.5631 O.3       1 <0>        -0.5017
     23 N6         -1.9318   -2.4352    1.2329 N.pl3     1 <0>        -0.4440
     24 H1          1.5188   -0.2209    1.2046 H         1 <0>         0.0835
     25 H2         -0.0832    0.3190    0.6476 H         1 <0>         0.0676
     26 H3          0.0595   -0.6766    2.1162 H         1 <0>         0.0606
     27 H4          0.7413   -1.5787   -0.7190 H         1 <0>         0.1243
     28 H5          1.0115   -3.8055    0.3380 H         1 <0>         0.0673
     29 H6          2.1581   -2.6294    1.0238 H         1 <0>         0.0835
     30 H7          0.6988   -3.0851    1.9354 H         1 <0>         0.0606
     31 H8         -2.1102   -2.0906   -4.2566 H         1 <0>         0.1998
     32 H9         -5.8197   -2.7336   -0.6966 H         1 <0>         0.4069
     33 H10        -5.7838   -3.8189   -1.9786 H         1 <0>         0.4071
     34 H11        -3.8197   -2.3112    3.5389 H         1 <0>         0.1445
     35 H12        -6.1313   -2.9654    5.3413 H         1 <0>         0.1279
     36 H13        -9.2428   -5.0169    3.2782 H         1 <0>         0.1286
     37 H14        -8.0164   -4.9676    1.1847 H         1 <0>         0.1247
     38 H15        -9.0572   -3.2870    5.6936 H         1 <0>         0.3860
     39 H16        -1.6823   -2.4395    2.1702 H         1 <0>         0.4490
     40 H17        -5.5296   -4.0197    0.1301 H         1 <0>         0.4163
@<TRIPOS>BOND
     1    1    2 1
     2    1   24 1
     3    1   25 1
     4    1   26 1
     5    2    3 1
     6    2    4 1
     7    2   27 1
     8    3   28 1
     9    3   29 1
    10    3   30 1
    11    4   23 1
    12    4    5 1
    13    5   10 ar
    14    5    6 ar
    15    6    7 ar
    16    6   12 1
    17    7    8 ar
    18    7   11 1
    19    8    9 ar
    20    9   10 ar
    21    9   31 1
    22   11   32 1
    23   11   33 1
    24   12   13 2
    25   12   23 1
    26   13   21 1
    27   13   14 1
    28   14   15 2
    29   14   34 1
    30   15   20 ar
    31   15   16 ar
    32   16   17 ar
    33   16   35 1
    34   17   18 ar
    35   17   22 1
    36   18   19 ar
    37   18   36 1
    38   19   20 ar
    39   19   37 1
    40   20   21 2
    41   21   40 1
    42   22   38 1
    43   23   39 1
@<TRIPOS>MOLECULE
ZINC64521265
   46    49     0     0     0
SMALL
USER_CHARGES

@<TRIPOS>ATOM
      1 C1          0.3476   -2.5642    0.7938 C.3       1 <0>        -0.1628
      2 C2         -0.3724   -2.4367   -0.5502 C.3       1 <0>         0.1606
      3 C3         -0.6891   -3.8315   -1.0934 C.3       1 <0>        -0.1622
      4 N1         -1.6190   -1.6892   -0.3674 N.pl3     1 <0>        -0.3682
      5 C4         -1.9328   -0.5173   -0.9891 C.ar      1 <0>         0.3758
      6 C5         -3.2117   -0.1436   -0.5353 C.ar      1 <0>        -0.3225
      7 C6         -3.6371   -1.1809    0.4040 C.2       1 <0>         0.1593
      8 N2         -2.6746   -2.0702    0.4677 N.2       1 <0>        -0.2224
      9 C7         -4.9218   -1.2229    1.1432 C.ar      1 <0>        -0.0245
     10 C8         -6.1183   -0.9455    0.4812 C.ar      1 <0>        -0.0801
     11 C9         -7.3162   -0.9844    1.1672 C.ar      1 <0>        -0.1161
     12 C10        -7.3388   -1.2973    2.5117 C.ar      1 <0>        -0.0731
     13 C11        -6.1481   -1.5766    3.1861 C.ar      1 <0>        -0.1285
     14 C12        -4.9368   -1.5447    2.4966 C.ar      1 <0>        -0.0211
     15 C13        -6.1728   -1.9106    4.6256 C.2       1 <0>         0.5570
     16 O1         -5.1357   -2.1534    5.2109 O.2       1 <0>        -0.4587
     17 N3         -7.3453   -1.9460    5.2893 N.am      1 <0>        -0.6240
     18 C14        -7.3683   -2.2582    6.6345 C.2       1 <0>         0.4093
     19 N4         -6.3504   -2.5344    7.3965 N.2       1 <0>        -0.5323
     20 C15        -6.5264   -2.8706    8.7976 C.3       1 <0>         0.0491
     21 C16        -7.9176   -2.4104    9.3123 C.3       1 <0>        -0.0885
     22 S1         -8.8003   -2.3601    7.6961 S.3       1 <0>        -0.2223
     23 C17        -3.7785    1.0433   -1.0279 C.ar      1 <0>         0.5179
     24 N5         -3.0796    1.7609   -1.9021 N.ar      1 <0>        -0.6035
     25 C18        -1.8816    1.3723   -2.3010 C.ar      1 <0>         0.3866
     26 N6         -1.3117    0.2693   -1.8675 N.ar      1 <0>        -0.5726
     27 N7         -5.0310    1.4545   -0.6148 N.pl3     1 <0>        -0.8297
     28 H1          1.2751   -3.1204    0.6578 H         1 <0>         0.0793
     29 H2          0.5732   -1.5705    1.1808 H         1 <0>         0.0605
     30 H3         -0.2926   -3.0925    1.5003 H         1 <0>         0.0708
     31 H4          0.2678   -1.9084   -1.2566 H         1 <0>         0.1123
     32 H5         -1.2020   -3.7407   -2.0509 H         1 <0>         0.0601
     33 H6          0.2384   -4.3877   -1.2294 H         1 <0>         0.0792
     34 H7         -1.3293   -4.3598   -0.3870 H         1 <0>         0.0703
     35 H8         -6.1075   -0.6993   -0.5703 H         1 <0>         0.1397
     36 H9         -8.2394   -0.7687    0.6498 H         1 <0>         0.1436
     37 H10        -8.2787   -1.3258    3.0429 H         1 <0>         0.1334
     38 H11        -4.0135   -1.7645    3.0120 H         1 <0>         0.1460
     39 H12        -8.1730   -1.7523    4.8221 H         1 <0>         0.4258
     40 H13        -6.4387   -3.9501    8.9203 H         1 <0>         0.1010
     41 H14        -5.7483   -2.3813    9.3834 H         1 <0>         0.1095
     42 H15        -8.3569   -3.1421    9.9903 H         1 <0>         0.1289
     43 H16        -7.8696   -1.4222    9.7696 H         1 <0>         0.1075
     44 H17        -1.3485    1.9855   -3.0124 H         1 <0>         0.2059
     45 H18        -5.4326    1.0649    0.1775 H         1 <0>         0.4118
     46 H19        -5.5089    2.1329   -1.1171 H         1 <0>         0.4117
@<TRIPOS>BOND
     1    1    2 1
     2    1   28 1
     3    1   29 1
     4    1   30 1
     5    2    3 1
     6    2    4 1
     7    2   31 1
     8    3   32 1
     9    3   33 1
    10    3   34 1
    11    4    8 1
    12    4    5 1
    13    5   26 ar
    14    5    6 ar
    15    6    7 1
    16    6   23 ar
    17    7    8 2
    18    7    9 1
    19    9   14 ar
    20    9   10 ar
    21   10   11 ar
    22   10   35 1
    23   11   12 ar
    24   11   36 1
    25   12   13 ar
    26   12   37 1
    27   13   14 ar
    28   13   15 1
    29   14   38 1
    30   15   16 2
    31   15   17 am
    32   17   18 1
    33   17   39 1
    34   18   22 1
    35   18   19 2
    36   19   20 1
    37   20   21 1
    38   20   40 1
    39   20   41 1
    40   21   22 1
    41   21   42 1
    42   21   43 1
    43   23   24 ar
    44   23   27 1
    45   24   25 ar
    46   25   26 ar
    47   25   44 1
    48   27   45 1
    49   27   46 1
@<TRIPOS>MOLECULE
ZINC36056300
   40    43     0     0     0
SMALL
USER_CHARGES

@<TRIPOS>ATOM
      1 C1          0.4126    0.6880    0.7885 C.3       1 <0>        -0.1627
      2 C2          0.2093   -0.7440    0.2895 C.3       1 <0>         0.1569
      3 C3          0.8826   -1.7211    1.2552 C.3       1 <0>        -0.1634
      4 N1         -1.2243   -1.0374    0.2184 N.pl3     1 <0>        -0.3592
      5 C4         -1.9000   -1.3937   -0.9107 C.ar      1 <0>         0.3794
      6 C5         -3.2446   -1.5828   -0.5400 C.ar      1 <0>        -0.3179
      7 C6         -3.3202   -1.3125    0.8956 C.2       1 <0>         0.1232
      8 N2         -2.1110   -1.0014    1.2998 N.2       1 <0>        -0.2051
      9 C7         -4.5366   -1.3827    1.7391 C.ar      1 <0>         0.1178
     10 C8         -5.4061   -2.4812    1.6050 C.ar      1 <0>        -0.1519
     11 C9         -6.5306   -2.5915    2.3528 C.ar      1 <0>         0.0142
     12 C10        -6.8501   -1.5908    3.2916 C.ar      1 <0>        -0.2346
     13 C11        -5.9500   -0.4370    3.4429 C.ar      1 <0>         0.2401
     14 C12        -4.7906   -0.3737    2.6433 C.ar      1 <0>        -0.1296
     15 N3         -6.4749    0.3393    4.3746 N.pl3     1 <0>        -0.4206
     16 H1         -8.2337    0.1398    5.5248 H         1 <0>         0.4708
     17 N4         -7.6615   -0.2385    4.8390 N.pl3     1 <0>        -0.4328
     18 C13        -7.8916   -1.3947    4.1942 C.2       1 <0>         0.5311
     19 N5         -8.9722   -2.2404    4.3922 N.pl3     1 <0>        -0.7811
     20 C14        -4.1671   -1.9596   -1.5297 C.ar      1 <0>         0.5166
     21 N6         -3.7272   -2.1207   -2.7740 N.ar      1 <0>        -0.5953
     22 C15        -2.4554   -1.9324   -3.0777 C.ar      1 <0>         0.3950
     23 N7         -1.5565   -1.5799   -2.1849 N.ar      1 <0>        -0.5665
     24 N8         -5.4983   -2.1583   -1.2179 N.pl3     1 <0>        -0.8311
     25 H2          1.4792    0.9063    0.8414 H         1 <0>         0.0837
     26 H3         -0.0671    1.3841    0.1005 H         1 <0>         0.0618
     27 H4         -0.0295    0.7936    1.7793 H         1 <0>         0.0688
     28 H5          0.6513   -0.8497   -0.7013 H         1 <0>         0.1176
     29 H6          0.7377   -2.7413    0.8997 H         1 <0>         0.0624
     30 H7          1.9492   -1.5028    1.3081 H         1 <0>         0.0836
     31 H8          0.4405   -1.6155    2.2459 H         1 <0>         0.0694
     32 H9         -5.1717   -3.2546    0.8885 H         1 <0>         0.1568
     33 H10        -7.1810   -3.4447    2.2292 H         1 <0>         0.1566
     34 H11        -4.1097    0.4595    2.7357 H         1 <0>         0.1611
     35 H12        -9.0501   -3.0570    3.8746 H         1 <0>         0.4467
     36 H13        -9.6503   -2.0154    5.0483 H         1 <0>         0.4297
     37 H14        -2.1408   -2.0745   -4.1010 H         1 <0>         0.2111
     38 H15        -5.8569   -1.8183   -0.3832 H         1 <0>         0.4073
     39 H16        -6.0742   -2.6377   -1.8338 H         1 <0>         0.4151
     40 H17        -6.0974    1.1764    4.6871 H         1 <0>         0.4749
@<TRIPOS>BOND
     1    1    2 1
     2    1   25 1
     3    1   26 1
     4    1   27 1
     5    2    3 1
     6    2    4 1
     7    2   28 1
     8    3   29 1
     9    3   30 1
    10    3   31 1
    11    4    8 1
    12    4    5 1
    13    5   23 ar
    14    5    6 ar
    15    6    7 1
    16    6   20 ar
    17    7    8 2
    18    7    9 1
    19    9   14 ar
    20    9   10 ar
    21   10   11 ar
    22   10   32 1
    23   11   12 ar
    24   11   33 1
    25   12   13 ar
    26   12   18 2
    27   13   14 ar
    28   13   15 2
    29   14   34 1
    30   15   17 1
    31   15   40 1
    32   16   17 1
    33   17   18 1
    34   18   19 1
    35   19   35 1
    36   19   36 1
    37   20   21 ar
    38   20   24 1
    39   21   22 ar
    40   22   23 ar
    41   22   37 1
    42   24   38 1
    43   24   39 1
@<TRIPOS>MOLECULE
ZINC36056300
   39    42     0     0     0
SMALL
USER_CHARGES

@<TRIPOS>ATOM
      1 C1          0.4081    0.7032    0.7800 C.3       1 <0>        -0.1618
      2 C2          0.2069   -0.7312    0.2873 C.3       1 <0>         0.1609
      3 C3          0.8807   -1.7032    1.2580 C.3       1 <0>        -0.1621
      4 N1         -1.2263   -1.0267    0.2166 N.pl3     1 <0>        -0.3701
      5 C4         -1.9009   -1.3889   -0.9113 C.ar      1 <0>         0.3750
      6 C5         -3.2455   -1.5776   -0.5407 C.ar      1 <0>        -0.3215
      7 C6         -3.3224   -1.3007    0.8936 C.2       1 <0>         0.1630
      8 N2         -2.1138   -0.9869    1.2972 N.2       1 <0>        -0.2264
      9 C7         -4.5394   -1.3682    1.7366 C.ar      1 <0>         0.0337
     10 C8         -5.4112   -2.4583    1.6155 C.ar      1 <0>        -0.1607
     11 C9         -6.5335   -2.5344    2.3833 C.ar      1 <0>        -0.0251
     12 C10        -6.8222   -1.5187    3.3018 C.ar      1 <0>        -0.1880
     13 C11        -5.9521   -0.4186    3.4315 C.ar      1 <0>         0.1561
     14 C12        -4.8063   -0.3538    2.6457 C.ar      1 <0>        -0.1126
     15 N3         -6.4874    0.3998    4.3930 N.pl3     1 <0>        -0.5024
     16 N4         -7.6751   -0.1655    4.8679 N.2       1 <0>        -0.3148
     17 C13        -7.9109   -1.2946    4.2539 C.2       1 <0>         0.3617
     18 N5         -9.0056   -2.1367    4.4680 N.pl3     1 <0>        -0.8327
     19 C14        -4.1668   -1.9602   -1.5291 C.ar      1 <0>         0.5189
     20 N6         -3.7258   -2.1271   -2.7723 N.ar      1 <0>        -0.6051
     21 C15        -2.4540   -1.9390   -3.0760 C.ar      1 <0>         0.3863
     22 N7         -1.5563   -1.5804   -2.1845 N.ar      1 <0>        -0.5746
     23 N8         -5.4980   -2.1588   -1.2175 N.pl3     1 <0>        -0.8276
     24 H1          1.4744    0.9231    0.8327 H         1 <0>         0.0786
     25 H2         -0.0719    1.3956    0.0885 H         1 <0>         0.0601
     26 H3         -0.0347    0.8128    1.7700 H         1 <0>         0.0697
     27 H4          0.6497   -0.8409   -0.7026 H         1 <0>         0.1118
     28 H5          0.4378   -1.5935    2.2479 H         1 <0>         0.0700
     29 H6          0.7373   -2.7251    0.9069 H         1 <0>         0.0603
     30 H7          1.9470   -1.4833    1.3106 H         1 <0>         0.0785
     31 H8         -5.1917   -3.2441    0.9078 H         1 <0>         0.1359
     32 H9         -7.2005   -3.3779    2.2831 H         1 <0>         0.1334
     33 H10        -4.1302    0.4831    2.7395 H         1 <0>         0.1348
     34 H11        -9.0923   -2.9581    3.9594 H         1 <0>         0.4132
     35 H12        -9.6785   -1.8997    5.1251 H         1 <0>         0.4096
     36 H13        -2.1385   -2.0855   -4.0984 H         1 <0>         0.2050
     37 H14        -5.8568   -1.8182   -0.3831 H         1 <0>         0.4149
     38 H15        -6.0739   -2.6388   -1.8330 H         1 <0>         0.4105
     39 H16        -6.1031    1.2373    4.6959 H         1 <0>         0.4433
@<TRIPOS>BOND
     1    1    2 1
     2    1   24 1
     3    1   25 1
     4    1   26 1
     5    2    3 1
     6    2    4 1
     7    2   27 1
     8    3   28 1
     9    3   29 1
    10    3   30 1
    11    4    8 1
    12    4    5 1
    13    5   22 ar
    14    5    6 ar
    15    6    7 1
    16    6   19 ar
    17    7    8 2
    18    7    9 1
    19    9   14 ar
    20    9   10 ar
    21   10   11 ar
    22   10   31 1
    23   11   12 ar
    24   11   32 1
    25   12   13 ar
    26   12   17 1
    27   13   14 ar
    28   13   15 1
    29   14   33 1
    30   15   16 1
    31   15   39 1
    32   16   17 2
    33   17   18 1
    34   18   34 1
    35   18   35 1
    36   19   20 ar
    37   19   23 1
    38   20   21 ar
    39   21   22 ar
    40   21   36 1
    41   23   37 1
    42   23   38 1
@<TRIPOS>MOLECULE
ZINC01493878
   48    50     0     0     0
SMALL
USER_CHARGES

@<TRIPOS>ATOM
      1 C1         -1.0955   -5.0083   -6.9234 C.3       1 <0>         0.0847
      2 N1         -1.5520   -4.3038   -5.7228 N.am      1 <0>        -0.7137
      3 C2         -1.8827   -5.0004   -4.6175 C.2       1 <0>         0.5696
      4 O1         -1.8023   -6.2129   -4.6168 O.2       1 <0>        -0.5284
      5 C3         -2.3445   -4.2878   -3.4031 C.ar      1 <0>         0.1129
      6 C4         -2.6788   -5.0128   -2.2640 C.ar      1 <0>        -0.1883
      7 C5         -3.1110   -4.3279   -1.1310 C.ar      1 <0>         0.1595
      8 C6         -3.1903   -2.9389   -1.1877 C.ar      1 <0>        -0.1766
      9 C7         -2.8404   -2.2885   -2.3571 C.ar      1 <0>         0.1349
     10 N2         -2.4302   -2.9626   -3.4105 N.ar      1 <0>        -0.4815
     11 O2         -3.4471   -4.9979    0.0005 O.3       1 <0>        -0.2437
     12 C8         -3.4462   -6.3570   -0.0383 C.ar      1 <0>         0.0568
     13 C9         -2.2447   -7.0505   -0.0178 C.ar      1 <0>        -0.1074
     14 C10        -2.2431   -8.4307   -0.0577 C.ar      1 <0>        -0.1009
     15 C11        -3.4442   -9.1246   -0.1179 C.ar      1 <0>         0.1671
     16 C12        -4.6464   -8.4301   -0.1379 C.ar      1 <0>        -0.1272
     17 C13        -4.6469   -7.0500   -0.0928 C.ar      1 <0>        -0.0940
     18 N3         -3.4432  -10.5252   -0.1588 N.am      1 <0>        -0.6776
     19 C14        -2.5108  -11.2187    0.5239 C.2       1 <0>         0.7077
     20 O3         -1.6217  -10.6297    1.1080 O.2       1 <0>        -0.5493
     21 N4         -2.5639  -12.5649    0.5593 N.am      1 <0>        -0.6795
     22 C15        -1.6655  -13.2800    1.3600 C.ar      1 <0>         0.1700
     23 C16        -1.2529  -12.7583    2.5792 C.ar      1 <0>        -0.0742
     24 C17        -0.3670  -13.4659    3.3674 C.ar      1 <0>        -0.0871
     25 C18         0.1097  -14.6941    2.9434 C.ar      1 <0>        -0.0077
     26 C19        -0.2993  -15.2159    1.7290 C.ar      1 <0>        -0.1564
     27 C20        -1.1898  -14.5147    0.9394 C.ar      1 <0>        -0.0879
     28 C21         0.2222  -16.5533    1.2702 C.3       1 <0>         0.5112
     29 F1         -0.3299  -16.8663    0.0234 F         1 <0>        -0.1743
     30 F2          1.6160  -16.4983    1.1626 F         1 <0>        -0.1671
     31 F3         -0.1354  -17.5367    2.1987 F         1 <0>        -0.1677
     32 Cl1         1.2234  -15.5812    3.9366 Cl        1 <0>        -0.0394
     33 H1         -0.8760   -4.2843   -7.7081 H         1 <0>         0.0803
     34 H2         -0.1948   -5.5764   -6.6909 H         1 <0>         0.0631
     35 H3         -1.8761   -5.6883   -7.2645 H         1 <0>         0.0629
     36 H4         -1.6162   -3.3359   -5.7233 H         1 <0>         0.4141
     37 H5         -2.6047   -6.0902   -2.2584 H         1 <0>         0.1546
     38 H6         -3.5217   -2.3755   -0.3280 H         1 <0>         0.1523
     39 H7         -2.9005   -1.2112   -2.4052 H         1 <0>         0.1747
     40 H8         -1.3104   -6.5106    0.0290 H         1 <0>         0.1364
     41 H9         -1.3078   -8.9704   -0.0424 H         1 <0>         0.1514
     42 H10        -5.5809   -8.9693   -0.1851 H         1 <0>         0.1386
     43 H11        -5.5820   -6.5098   -0.1039 H         1 <0>         0.1400
     44 H12        -4.1137  -10.9957   -0.6785 H         1 <0>         0.4131
     45 H13        -3.2246  -13.0383    0.0299 H         1 <0>         0.4146
     46 H14        -1.6244  -11.7997    2.9103 H         1 <0>         0.1546
     47 H15        -0.0456  -13.0604    4.3154 H         1 <0>         0.1524
     48 H16        -1.5123  -14.9245   -0.0064 H         1 <0>         0.1525
@<TRIPOS>BOND
     1    1    2 1
     2    1   33 1
     3    1   34 1
     4    1   35 1
     5    2    3 am
     6    2   36 1
     7    3    4 2
     8    3    5 1
     9    5   10 ar
    10    5    6 ar
    11    6    7 ar
    12    6   37 1
    13    7    8 ar
    14    7   11 1
    15    8    9 ar
    16    8   38 1
    17    9   10 ar
    18    9   39 1
    19   11   12 1
    20   12   17 ar
    21   12   13 ar
    22   13   14 ar
    23   13   40 1
    24   14   15 ar
    25   14   41 1
    26   15   16 ar
    27   15   18 1
    28   16   17 ar
    29   16   42 1
    30   17   43 1
    31   18   19 am
    32   18   44 1
    33   19   20 2
    34   19   21 am
    35   21   22 1
    36   21   45 1
    37   22   27 ar
    38   22   23 ar
    39   23   24 ar
    40   23   46 1
    41   24   25 ar
    42   24   47 1
    43   25   26 ar
    44   25   32 1
    45   26   27 ar
    46   26   28 1
    47   27   48 1
    48   28   29 1
    49   28   30 1
    50   28   31 1
@<TRIPOS>MOLECULE
ZINC21982951
   60    63     0     0     0
SMALL
USER_CHARGES

@<TRIPOS>ATOM
      1 C1         -2.0700    1.6928    0.2333 C.3       1 <0>        -0.1170
      2 C2         -1.6482    0.2604    0.0301 C.ar      1 <0>        -0.0813
      3 C3         -1.8479   -0.3525   -1.1919 C.ar      1 <0>        -0.1034
      4 C4         -1.4615   -1.6665   -1.3798 C.ar      1 <0>        -0.0990
      5 C5         -0.8738   -2.3725   -0.3459 C.ar      1 <0>        -0.1046
      6 C6         -0.6714   -1.7660    0.8791 C.ar      1 <0>        -0.0220
      7 C7         -1.0534   -0.4428    1.0688 C.ar      1 <0>         0.1347
      8 N1         -0.8441    0.1769    2.3055 N.am      1 <0>        -0.6659
      9 C8         -1.2819   -0.4110    3.4365 C.2       1 <0>         0.6018
     10 O1         -1.7689   -1.5261    3.3939 O.2       1 <0>        -0.4722
     11 C9         -1.1720    0.2905    4.7149 C.2       1 <0>        -0.2635
     12 C10        -1.5472   -0.1201    5.9866 C.2       1 <0>         0.1512
     13 N2         -1.3262    0.7270    6.9599 N.2       1 <0>        -0.5510
     14 C11        -0.7756    1.9070    6.7361 C.2       1 <0>         0.2513
     15 S1         -0.5107    1.9100    5.0742 S.3       1 <0>         0.2445
     16 N3         -0.4817    2.8997    7.6498 N.pl3     1 <0>        -0.5870
     17 C12        -0.6908    2.6801    9.0050 C.ar      1 <0>         0.4543
     18 C13        -1.0534    1.4192    9.4679 C.ar      1 <0>        -0.2926
     19 C14        -1.2512    1.2508   10.8352 C.ar      1 <0>         0.4935
     20 N4         -1.0875    2.2952   11.6453 N.ar      1 <0>        -0.5328
     21 C15        -0.7435    3.4737   11.1677 C.ar      1 <0>         0.4541
     22 N5         -0.5417    3.6719    9.8809 N.ar      1 <0>        -0.5672
     23 C16        -0.5694    4.6273   12.1217 C.3       1 <0>        -0.1251
     24 N6         -1.6138    0.0143   11.3464 N.pl3     1 <0>        -0.5370
     25 C17        -2.0559   -0.1253   12.7422 C.3       1 <0>         0.1090
     26 C18        -3.3866   -0.8852   12.7576 C.3       1 <0>         0.0383
     27 N7         -3.2335   -2.1493   12.0251 N.3       1 <0>        -0.5289
     28 C19        -2.9165   -1.9105   10.6107 C.3       1 <0>         0.0343
     29 C20        -1.5725   -1.1917   10.5056 C.3       1 <0>         0.1057
     30 C21        -4.4334   -2.9856   12.1619 C.3       1 <0>         0.0545
     31 C22        -4.1483   -4.3816   11.6043 C.3       1 <0>         0.0776
     32 O2         -3.1500   -5.0191   12.4038 O.3       1 <0>        -0.5606
     33 Cl1         0.0658   -2.6526    2.1768 Cl        1 <0>        -0.0453
     34 H1         -1.2464    2.3553   -0.0328 H         1 <0>         0.0773
     35 H2         -2.9308    1.9112   -0.3987 H         1 <0>         0.0785
     36 H3         -2.3379    1.8478    1.2784 H         1 <0>         0.0640
     37 H4         -2.3069    0.1956   -2.0014 H         1 <0>         0.1372
     38 H5         -1.6193   -2.1430   -2.3361 H         1 <0>         0.1391
     39 H6         -0.5731   -3.3989   -0.4959 H         1 <0>         0.1403
     40 H7         -0.3838    1.0296    2.3489 H         1 <0>         0.4083
     41 H8         -1.9972   -1.0858    6.1634 H         1 <0>         0.2027
     42 H9         -0.1293    3.7505    7.3451 H         1 <0>         0.4460
     43 H10        -1.1784    0.5927    8.7841 H         1 <0>         0.2218
     44 H11         0.4644    4.6619   12.4652 H         1 <0>         0.1245
     45 H12        -0.8146    5.5596   11.6130 H         1 <0>         0.1071
     46 H13        -1.2322    4.4948   12.9768 H         1 <0>         0.1273
     47 H14        -1.3096   -0.6823   13.3087 H         1 <0>         0.0989
     48 H15        -2.1929    0.8619   13.1834 H         1 <0>         0.1094
     49 H16        -3.6740   -1.0944   13.7880 H         1 <0>         0.1036
     50 H17        -4.1569   -0.2794   12.2806 H         1 <0>         0.0428
     51 H18        -2.8631   -2.8634   10.0841 H         1 <0>         0.1043
     52 H19        -3.6935   -1.2904   10.1636 H         1 <0>         0.0450
     53 H20        -1.3900   -0.9091    9.4688 H         1 <0>         0.1029
     54 H21        -0.7788   -1.8532   10.8529 H         1 <0>         0.1042
     55 H22        -4.7041   -3.0633   13.2149 H         1 <0>         0.0912
     56 H23        -5.2561   -2.5340   11.6075 H         1 <0>         0.0533
     57 H24        -5.0627   -4.9745   11.6240 H         1 <0>         0.0547
     58 H25        -3.7921   -4.2970   10.5776 H         1 <0>         0.0454
     59 H26        -2.9188   -5.9101   12.1076 H         1 <0>         0.3805
     60 H27        -0.2852    4.5531    9.5669 H         1 <0>         0.4414
@<TRIPOS>BOND
     1    1    2 1
     2    1   34 1
     3    1   35 1
     4    1   36 1
     5    2    7 ar
     6    2    3 ar
     7    3    4 ar
     8    3   37 1
     9    4    5 ar
    10    4   38 1
    11    5    6 ar
    12    5   39 1
    13    6    7 ar
    14    6   33 1
    15    7    8 1
    16    8    9 am
    17    8   40 1
    18    9   10 2
    19    9   11 1
    20   11   15 1
    21   11   12 2
    22   12   13 1
    23   12   41 1
    24   13   14 2
    25   14   15 1
    26   14   16 1
    27   16   17 1
    28   16   42 1
    29   17   22 ar
    30   17   18 ar
    31   18   19 ar
    32   18   43 1
    33   19   20 ar
    34   19   24 1
    35   20   21 ar
    36   21   22 ar
    37   21   23 1
    38   22   60 1
    39   23   44 1
    40   23   45 1
    41   23   46 1
    42   24   29 1
    43   24   25 1
    44   25   26 1
    45   25   47 1
    46   25   48 1
    47   26   27 1
    48   26   49 1
    49   26   50 1
    50   27   28 1
    51   27   30 1
    52   28   29 1
    53   28   51 1
    54   28   52 1
    55   29   53 1
    56   29   54 1
    57   30   31 1
    58   30   55 1
    59   30   56 1
    60   31   32 1
    61   31   57 1
    62   31   58 1
    63   32   59 1
@<TRIPOS>MOLECULE
ZINC21982951
   60    63     0     0     0
SMALL
USER_CHARGES

@<TRIPOS>ATOM
      1 C1          3.2739    6.6585    1.8418 C.3       1 <0>        -0.1168
      2 C2          2.5810    7.9910    1.9663 C.ar      1 <0>        -0.0823
      3 C3          2.8983    9.0189    1.0995 C.ar      1 <0>        -0.1038
      4 C4          2.2635   10.2419    1.2126 C.ar      1 <0>        -0.1008
      5 C5          1.3088   10.4411    2.1933 C.ar      1 <0>        -0.1049
      6 C6          0.9869    9.4175    3.0639 C.ar      1 <0>        -0.0226
      7 C7          1.6192    8.1849    2.9486 C.ar      1 <0>         0.1373
      8 N1          1.2913    7.1440    3.8238 N.am      1 <0>        -0.6678
      9 C8          1.3128    7.3511    5.1554 C.2       1 <0>         0.6036
     10 O1          1.5184    8.4680    5.5945 O.2       1 <0>        -0.4759
     11 C9          1.0891    6.2346    6.0728 C.2       1 <0>        -0.2694
     12 C10         1.0619    6.2190    7.4604 C.2       1 <0>         0.1522
     13 N2          0.8357    5.0596    8.0247 N.2       1 <0>        -0.5060
     14 C11         0.6446    3.9678    7.3056 C.2       1 <0>         0.2464
     15 S1          0.7674    4.5141    5.7185 S.3       1 <0>         0.2029
     16 N3          0.3973    2.6842    7.7505 N.pl3     1 <0>        -0.5650
     17 C12         0.2197    2.4414    9.1063 C.ar      1 <0>         0.4999
     18 C13        -0.1342    1.1736    9.5555 C.ar      1 <0>        -0.3181
     19 C14        -0.3003    0.9817   10.9244 C.ar      1 <0>         0.4940
     20 N4         -0.1157    2.0114   11.7481 N.ar      1 <0>        -0.5712
     21 C15         0.2193    3.1978   11.2829 C.ar      1 <0>         0.4509
     22 N5          0.3911    3.4178    9.9956 N.ar      1 <0>        -0.4879
     23 C16         0.4179    4.3344   12.2523 C.3       1 <0>        -0.1253
     24 N6         -0.6531   -0.2629   11.4224 N.pl3     1 <0>        -0.5744
     25 C17        -0.9639   -0.4449   12.8484 C.3       1 <0>         0.1013
     26 C18        -2.3114   -1.1652   12.9649 C.3       1 <0>         0.0387
     27 N7         -2.2712   -2.4031   12.1749 N.3       1 <0>        -0.5277
     28 C19        -2.0835   -2.1176   10.7462 C.3       1 <0>         0.0305
     29 C20        -0.7325   -1.4351   10.5377 C.3       1 <0>         0.1149
     30 C21        -3.4796   -3.2085   12.3965 C.3       1 <0>         0.0543
     31 C22        -3.2958   -4.5889   11.7629 C.3       1 <0>         0.0774
     32 O2         -2.2472   -5.2869   12.4378 O.3       1 <0>        -0.5615
     33 Cl1        -0.2110    9.6681    4.2952 Cl        1 <0>        -0.0453
     34 H1          2.7121    6.0191    1.1609 H         1 <0>         0.0767
     35 H2          4.2810    6.8077    1.4524 H         1 <0>         0.0779
     36 H3          3.3298    6.1850    2.8220 H         1 <0>         0.0648
     37 H4          3.6435    8.8670    0.3327 H         1 <0>         0.1365
     38 H5          2.5139   11.0437    0.5337 H         1 <0>         0.1383
     39 H6          0.8148   11.3976    2.2790 H         1 <0>         0.1396
     40 H7          1.0484    6.2731    3.4723 H         1 <0>         0.4083
     41 H8          1.2191    7.1147    8.0430 H         1 <0>         0.1979
     42 H9          0.3477    1.9521    7.1161 H         1 <0>         0.4525
     43 H10        -0.2767    0.3593    8.8606 H         1 <0>         0.1835
     44 H11         1.4596    4.3615   12.5720 H         1 <0>         0.1250
     45 H12         0.1626    5.2758   11.7656 H         1 <0>         0.1301
     46 H13        -0.2249    4.1881   13.1203 H         1 <0>         0.1049
     47 H14        -0.1857   -1.0458   13.3190 H         1 <0>         0.1119
     48 H15        -1.0251    0.5276   13.3369 H         1 <0>         0.0843
     49 H16        -2.5057   -1.4068   14.0099 H         1 <0>         0.1076
     50 H17        -3.1034   -0.5184   12.5874 H         1 <0>         0.0465
     51 H18        -2.1124   -3.0499   10.1822 H         1 <0>         0.1076
     52 H19        -2.8786   -1.4576   10.3996 H         1 <0>         0.0467
     53 H20        -0.6409   -1.1170    9.4992 H         1 <0>         0.1034
     54 H21         0.0684   -2.1330   10.7819 H         1 <0>         0.1075
     55 H22        -3.6507   -3.3200   13.4672 H         1 <0>         0.0925
     56 H23        -4.3362   -2.7111   11.9416 H         1 <0>         0.0553
     57 H24        -4.2233   -5.1548   11.8494 H         1 <0>         0.0565
     58 H25        -3.0370   -4.4741   10.7103 H         1 <0>         0.0456
     59 H26        -2.0752   -6.1719   12.0881 H         1 <0>         0.3821
     60 H27        -0.2297    1.8867   12.7033 H         1 <0>         0.4392
@<TRIPOS>BOND
     1    1    2 1
     2    1   34 1
     3    1   35 1
     4    1   36 1
     5    2    7 ar
     6    2    3 ar
     7    3    4 ar
     8    3   37 1
     9    4    5 ar
    10    4   38 1
    11    5    6 ar
    12    5   39 1
    13    6    7 ar
    14    6   33 1
    15    7    8 1
    16    8    9 am
    17    8   40 1
    18    9   10 2
    19    9   11 1
    20   11   15 1
    21   11   12 2
    22   12   13 1
    23   12   41 1
    24   13   14 2
    25   14   15 1
    26   14   16 1
    27   16   17 1
    28   16   42 1
    29   17   18 ar
    30   17   22 ar
    31   18   43 1
    32   18   19 ar
    33   19   24 1
    34   19   20 ar
    35   20   60 1
    36   20   21 ar
    37   21   23 1
    38   21   22 ar
    39   23   44 1
    40   23   45 1
    41   23   46 1
    42   24   29 1
    43   24   25 1
    44   25   26 1
    45   25   47 1
    46   25   48 1
    47   26   27 1
    48   26   49 1
    49   26   50 1
    50   27   28 1
    51   27   30 1
    52   28   29 1
    53   28   51 1
    54   28   52 1
    55   29   53 1
    56   29   54 1
    57   30   31 1
    58   30   55 1
    59   30   56 1
    60   31   32 1
    61   31   57 1
    62   31   58 1
    63   32   59 1
@<TRIPOS>MOLECULE
ZINC21982951
   59    62     0     0     0
SMALL
USER_CHARGES

@<TRIPOS>ATOM
      1 C1          3.4106    6.6420    1.8847 C.3       1 <0>        -0.1165
      2 C2          2.6976    7.9659    1.9845 C.ar      1 <0>        -0.0852
      3 C3          3.0204    8.9921    1.1176 C.ar      1 <0>        -0.1055
      4 C4          2.3672   10.2073    1.2080 C.ar      1 <0>        -0.1070
      5 C5          1.3885   10.4004    2.1660 C.ar      1 <0>        -0.1064
      6 C6          1.0609    9.3785    3.0365 C.ar      1 <0>        -0.0243
      7 C7          1.7118    8.1536    2.9438 C.ar      1 <0>         0.1460
      8 N1          1.3783    7.1144    3.8189 N.am      1 <0>        -0.6734
      9 C8          1.3676    7.3308    5.1492 C.2       1 <0>         0.6131
     10 O1          1.5489    8.4533    5.5848 O.2       1 <0>        -0.4899
     11 C9          1.1384    6.2176    6.0693 C.2       1 <0>        -0.3092
     12 C10         1.0807    6.2111    7.4561 C.2       1 <0>         0.1722
     13 N2          0.8573    5.0526    8.0233 N.2       1 <0>        -0.5180
     14 C11         0.6966    3.9535    7.3079 C.2       1 <0>         0.3121
     15 S1          0.8472    4.4907    5.7202 S.3       1 <0>         0.1340
     16 N3          0.4564    2.6698    7.7563 N.pl3     1 <0>        -0.5904
     17 C12         0.2490    2.4343    9.1091 C.ar      1 <0>         0.4412
     18 C13        -0.1036    1.1661    9.5586 C.ar      1 <0>        -0.3412
     19 C14        -0.3003    0.9817   10.9244 C.ar      1 <0>         0.4686
     20 N4         -0.1450    2.0186   11.7452 N.ar      1 <0>        -0.5923
     21 C15         0.1898    3.2050   11.2799 C.ar      1 <0>         0.3946
     22 N5          0.3901    3.4182    9.9956 N.ar      1 <0>        -0.5459
     23 C16         0.3546    4.3498   12.2460 C.3       1 <0>        -0.0834
     24 N6         -0.6531   -0.2629   11.4224 N.pl3     1 <0>        -0.5966
     25 C17        -1.0693   -0.4249   12.8237 C.3       1 <0>         0.1300
     26 C18        -2.3993   -1.1856   12.8517 C.3       1 <0>         0.0401
     27 N7         -2.2595   -2.4378   12.0965 N.3       1 <0>        -0.5276
     28 C19        -1.9688   -2.1765   10.6804 C.3       1 <0>         0.0363
     29 C20        -0.6270   -1.4554   10.5619 C.3       1 <0>         0.1269
     30 C21        -3.4565   -3.2768   12.2420 C.3       1 <0>         0.0537
     31 C22        -3.1814   -4.6636   11.6572 C.3       1 <0>         0.0792
     32 O2         -2.1684   -5.3132   12.4279 O.3       1 <0>        -0.5589
     33 Cl1        -0.1672    9.6214    4.2392 Cl        1 <0>        -0.0433
     34 H1          2.8725    5.9906    1.1961 H         1 <0>         0.0754
     35 H2          4.4240    6.8020    1.5166 H         1 <0>         0.0754
     36 H3          3.4510    6.1760    2.8692 H         1 <0>         0.0676
     37 H4          3.7844    8.8450    0.3685 H         1 <0>         0.1337
     38 H5          2.6220   11.0077    0.5292 H         1 <0>         0.1350
     39 H6          0.8801   11.3508    2.2339 H         1 <0>         0.1371
     40 H7          1.1547    6.2381    3.4683 H         1 <0>         0.4085
     41 H8          1.2132    7.1127    8.0357 H         1 <0>         0.1884
     42 H9          0.4325    1.9325    7.1264 H         1 <0>         0.4387
     43 H10        -0.2220    0.3459    8.8660 H         1 <0>         0.1413
     44 H11         1.3882    4.3890   12.5900 H         1 <0>         0.0870
     45 H12         0.1021    5.2855   11.7470 H         1 <0>         0.0890
     46 H13        -0.3072    4.2031   13.0995 H         1 <0>         0.0846
     47 H14        -0.3126   -0.9904   13.3674 H         1 <0>         0.0744
     48 H15        -1.1984    0.5551   13.2831 H         1 <0>         0.1008
     49 H16        -2.6676   -1.4113   13.8837 H         1 <0>         0.0903
     50 H17        -3.1785   -0.5727   12.3986 H         1 <0>         0.0372
     51 H18        -1.9249   -3.1208   10.1378 H         1 <0>         0.0905
     52 H19        -2.7540   -1.5497   10.2576 H         1 <0>         0.0380
     53 H20        -0.4638   -1.1563    9.5265 H         1 <0>         0.0877
     54 H21         0.1731   -2.1219   10.8840 H         1 <0>         0.0802
     55 H22        -3.7077   -3.3713   13.2985 H         1 <0>         0.0861
     56 H23        -4.2894   -2.8169   11.7102 H         1 <0>         0.0487
     57 H24        -4.0952   -5.2572   11.6843 H         1 <0>         0.0498
     58 H25        -2.8443   -4.5626   10.6256 H         1 <0>         0.0451
     59 H26        -1.9426   -6.1994   12.1134 H         1 <0>         0.3762
@<TRIPOS>BOND
     1    1    2 1
     2    1   34 1
     3    1   35 1
     4    1   36 1
     5    2    7 ar
     6    2    3 ar
     7    3    4 ar
     8    3   37 1
     9    4    5 ar
    10    4   38 1
    11    5    6 ar
    12    5   39 1
    13    6    7 ar
    14    6   33 1
    15    7    8 1
    16    8    9 am
    17    8   40 1
    18    9   10 2
    19    9   11 1
    20   11   15 1
    21   11   12 2
    22   12   13 1
    23   12   41 1
    24   13   14 2
    25   14   15 1
    26   14   16 1
    27   16   17 1
    28   16   42 1
    29   17   18 ar
    30   17   22 ar
    31   18   43 1
    32   18   19 ar
    33   19   24 1
    34   19   20 ar
    35   20   21 ar
    36   21   23 1
    37   21   22 ar
    38   23   44 1
    39   23   45 1
    40   23   46 1
    41   24   29 1
    42   24   25 1
    43   25   26 1
    44   25   47 1
    45   25   48 1
    46   26   27 1
    47   26   49 1
    48   26   50 1
    49   27   28 1
    50   27   30 1
    51   28   29 1
    52   28   51 1
    53   28   52 1
    54   29   53 1
    55   29   54 1
    56   30   31 1
    57   30   55 1
    58   30   56 1
    59   31   32 1
    60   31   57 1
    61   31   58 1
    62   32   59 1
@<TRIPOS>MOLECULE
ZINC21982951
   61    64     0     0     0
SMALL
USER_CHARGES

@<TRIPOS>ATOM
      1 C1          3.2770    6.6581    1.8427 C.3       1 <0>        -0.1166
      2 C2          2.5837    7.9904    1.9667 C.ar      1 <0>        -0.0814
      3 C3          2.9012    9.0183    1.0999 C.ar      1 <0>        -0.1028
      4 C4          2.2660   10.2411    1.2125 C.ar      1 <0>        -0.0975
      5 C5          1.3108   10.4402    2.1928 C.ar      1 <0>        -0.1039
      6 C6          0.9888    9.4167    3.0634 C.ar      1 <0>        -0.0218
      7 C7          1.6215    8.1842    2.9485 C.ar      1 <0>         0.1327
      8 N1          1.2933    7.1433    3.8237 N.am      1 <0>        -0.6648
      9 C8          1.3141    7.3507    5.1552 C.2       1 <0>         0.5983
     10 O1          1.5193    8.4677    5.5943 O.2       1 <0>        -0.4690
     11 C9          1.0903    6.2342    6.0727 C.2       1 <0>        -0.2500
     12 C10         1.0624    6.2188    7.4604 C.2       1 <0>         0.1439
     13 N2          0.8362    5.0594    8.0246 N.2       1 <0>        -0.4984
     14 C11         0.6458    3.9675    7.3056 C.2       1 <0>         0.2172
     15 S1          0.7692    4.5136    5.7185 S.3       1 <0>         0.2242
     16 N3          0.3986    2.6839    7.7506 N.pl3     1 <0>        -0.5513
     17 C12         0.2203    2.4413    9.1063 C.ar      1 <0>         0.5098
     18 C13        -0.1335    1.1734    9.5556 C.ar      1 <0>        -0.3097
     19 C14        -0.3003    0.9817   10.9244 C.ar      1 <0>         0.4927
     20 N4         -0.1163    2.0116   11.7481 N.ar      1 <0>        -0.5695
     21 C15         0.2187    3.1980   11.2828 C.ar      1 <0>         0.4589
     22 N5          0.3911    3.4178    9.9956 N.ar      1 <0>        -0.4762
     23 C16         0.4165    4.3348   12.2521 C.3       1 <0>        -0.1303
     24 N6         -0.6531   -0.2629   11.4224 N.pl3     1 <0>        -0.6123
     25 C17        -0.9643   -0.4465   12.8484 C.3       1 <0>         0.0782
     26 C18        -2.3027   -1.1838   12.9625 C.3       1 <0>        -0.0204
     27 N7         -2.2406   -2.4311   12.1903 N.4       1 <0>        -0.3852
     28 C19        -2.0770   -2.1279   10.7629 C.3       1 <0>        -0.0304
     29 C20        -0.7330   -1.4363   10.5388 C.3       1 <0>         0.0932
     30 C21        -3.4827   -3.1900   12.3886 C.3       1 <0>        -0.0061
     31 C22        -3.3702   -4.5448   11.6865 C.3       1 <0>         0.0434
     32 O2         -2.3479   -5.3224   12.3128 O.3       1 <0>        -0.5819
     33 Cl1        -0.2098    9.6671    4.2940 Cl        1 <0>        -0.0466
     34 H1          2.7157    6.0184    1.1617 H         1 <0>         0.0770
     35 H2          4.2843    6.8074    1.4538 H         1 <0>         0.0791
     36 H3          3.3325    6.1847    2.8230 H         1 <0>         0.0631
     37 H4          3.6468    8.8665    0.3335 H         1 <0>         0.1380
     38 H5          2.5166   11.0428    0.5336 H         1 <0>         0.1401
     39 H6          0.8165   11.3966    2.2780 H         1 <0>         0.1410
     40 H7          1.0508    6.2723    3.4722 H         1 <0>         0.4077
     41 H8          1.2191    7.1146    8.0429 H         1 <0>         0.2016
     42 H9          0.3494    1.9517    7.1163 H         1 <0>         0.4545
     43 H10        -0.2756    0.3590    8.8607 H         1 <0>         0.1860
     44 H11         1.4581    4.3621   12.5724 H         1 <0>         0.1309
     45 H12         0.1613    5.2760   11.7653 H         1 <0>         0.1358
     46 H13        -0.2267    4.1885   13.1199 H         1 <0>         0.1083
     47 H14        -0.1795   -1.0367   13.3215 H         1 <0>         0.1249
     48 H15        -1.0392    0.5259   13.3352 H         1 <0>         0.1232
     49 H16        -2.5028   -1.4138   14.0090 H         1 <0>         0.1602
     50 H17        -3.0999   -0.5526   12.5701 H         1 <0>         0.1410
     51 H18        -2.1110   -3.0537   10.1885 H         1 <0>         0.1585
     52 H19        -2.8811   -1.4682   10.4370 H         1 <0>         0.1418
     53 H20        -0.6550   -1.1179    9.4992 H         1 <0>         0.1416
     54 H21         0.0756   -2.1281   10.7747 H         1 <0>         0.1211
     55 H22        -3.6469   -3.3459   13.4548 H         1 <0>         0.1465
     56 H23        -4.3202   -2.6321   11.9697 H         1 <0>         0.1464
     57 H24        -4.3221   -5.0710   11.7578 H         1 <0>         0.1026
     58 H25        -3.1180   -4.3904   10.6374 H         1 <0>         0.0719
     59 H26        -2.2211   -6.1961   11.9183 H         1 <0>         0.4154
     60 H27        -0.2308    1.8869   12.7032 H         1 <0>         0.4393
     61 H28        -1.4578   -2.9831   12.5075 H         1 <0>         0.4359
@<TRIPOS>BOND
     1    1    2 1
     2    1   34 1
     3    1   35 1
     4    1   36 1
     5    2    7 ar
     6    2    3 ar
     7    3    4 ar
     8    3   37 1
     9    4    5 ar
    10    4   38 1
    11    5    6 ar
    12    5   39 1
    13    6    7 ar
    14    6   33 1
    15    7    8 1
    16    8    9 am
    17    8   40 1
    18    9   10 2
    19    9   11 1
    20   11   15 1
    21   11   12 2
    22   12   13 1
    23   12   41 1
    24   13   14 2
    25   14   15 1
    26   14   16 1
    27   16   17 1
    28   16   42 1
    29   17   18 ar
    30   17   22 ar
    31   18   43 1
    32   18   19 ar
    33   19   24 1
    34   19   20 ar
    35   20   60 1
    36   20   21 ar
    37   21   23 1
    38   21   22 ar
    39   23   44 1
    40   23   45 1
    41   23   46 1
    42   24   29 1
    43   24   25 1
    44   25   26 1
    45   25   47 1
    46   25   48 1
    47   26   27 1
    48   26   49 1
    49   26   50 1
    50   27   28 1
    51   27   30 1
    52   27   61 1
    53   28   29 1
    54   28   51 1
    55   28   52 1
    56   29   53 1
    57   29   54 1
    58   30   31 1
    59   30   55 1
    60   30   56 1
    61   31   32 1
    62   31   57 1
    63   31   58 1
    64   32   59 1
@<TRIPOS>MOLECULE
ZINC03814434
   62    69     0     0     0
SMALL
USER_CHARGES

@<TRIPOS>ATOM
      1 C1         -0.1295    1.5952   -0.2973 C.3       1 <0>        -0.1687
      2 C2         -0.0862    0.0696   -0.1900 C.3       1 <0>         0.3342
      3 C3          0.5692   -0.4501   -1.4637 C.3       1 <0>         0.0405
      4 H1          1.4796    0.1159   -1.6612 H         1 <0>         0.1372
      5 C4          0.9167   -1.9328   -1.2889 C.3       1 <0>        -0.0061
      6 H2          1.3963   -2.3075   -2.1932 H         1 <0>         0.1555
      7 C5          1.8785   -2.0596   -0.1021 C.3       1 <0>        -0.1827
      8 C6          1.2061   -1.5198    1.1541 C.3       1 <0>         0.2999
      9 H3          1.9797   -1.4243    1.9161 H         1 <0>         0.1550
     10 O1          0.6555   -0.2442    0.9666 O.3       1 <0>        -0.3234
     11 N1          0.2189   -2.4746    1.6600 N.pl3     1 <0>        -0.5366
     12 C7          0.4705   -3.5508    2.4739 C.ar      1 <0>         0.1469
     13 C8          1.6649   -4.0152    3.0240 C.ar      1 <0>        -0.1522
     14 C9          1.5948   -5.1456    3.8201 C.ar      1 <0>        -0.0582
     15 C10         0.4006   -5.7997    4.0696 C.ar      1 <0>        -0.1457
     16 C11        -0.7984   -5.3597    3.5358 C.ar      1 <0>        -0.0280
     17 C12        -0.7487   -4.2198    2.7307 C.ar      1 <0>        -0.1131
     18 C13        -1.7893   -3.4830    2.0197 C.ar      1 <0>         0.0276
     19 C14        -1.1442   -2.4197    1.3841 C.ar      1 <0>         0.0376
     20 C15        -1.8806   -1.5095    0.6175 C.ar      1 <0>         0.0894
     21 N2         -1.4718   -0.3951   -0.1095 N.pl3     1 <0>        -0.5183
     22 C16        -2.5611    0.1913   -0.7090 C.ar      1 <0>         0.1618
     23 C17        -2.6521    1.3277   -1.5118 C.ar      1 <0>        -0.1305
     24 C18        -3.9109    1.6745   -1.9733 C.ar      1 <0>        -0.0737
     25 C19        -5.0393    0.9368   -1.6616 C.ar      1 <0>        -0.1358
     26 C20        -4.9745   -0.1955   -0.8662 C.ar      1 <0>        -0.0503
     27 C21        -3.7147   -0.5596   -0.3919 C.ar      1 <0>        -0.1042
     28 C22        -3.2693   -1.6660    0.4845 C.ar      1 <0>        -0.0360
     29 C23        -3.9084   -2.7313    1.1102 C.ar      1 <0>        -0.0288
     30 C24        -3.1873   -3.6421    1.8754 C.ar      1 <0>        -0.1255
     31 C25        -4.1221   -4.6480    2.4030 C.2       1 <0>         0.5632
     32 O2         -3.8062   -5.5851    3.1110 O.2       1 <0>        -0.5106
     33 N3         -5.3744   -4.3851    1.9926 N.am      1 <0>        -0.7162
     34 C26        -5.3495   -3.1771    1.1601 C.3       1 <0>         0.1358
     35 N4         -0.3067   -2.7008   -1.0216 N.4       1 <0>        -0.5252
     36 C27         0.0145   -4.1336   -0.9773 C.3       1 <0>        -0.0497
     37 O3         -0.3340   -0.2979   -2.5607 O.3       1 <0>        -0.3614
     38 C28         0.3101   -0.0933   -3.8198 C.3       1 <0>         0.0162
     39 H4          0.8261    2.0094    0.0240 H         1 <0>         0.0984
     40 H5         -0.3202    1.8814   -1.3317 H         1 <0>         0.1036
     41 H6         -0.9255    1.9818    0.3392 H         1 <0>         0.0921
     42 H7          2.1370   -3.1081    0.0458 H         1 <0>         0.1233
     43 H8          2.7835   -1.4869   -0.3048 H         1 <0>         0.1455
     44 H9          2.6036   -3.5149    2.8368 H         1 <0>         0.1365
     45 H10         2.5026   -5.5304    4.2610 H         1 <0>         0.1359
     46 H11         0.4045   -6.6780    4.6980 H         1 <0>         0.1352
     47 H12        -1.7278   -5.8736    3.7323 H         1 <0>         0.1600
     48 H13        -1.7792    1.9122   -1.7624 H         1 <0>         0.1440
     49 H14        -4.0153    2.5500   -2.5970 H         1 <0>         0.1336
     50 H15        -5.9967    1.2527   -2.0488 H         1 <0>         0.1332
     51 H16        -5.8575   -0.7687   -0.6249 H         1 <0>         0.1415
     52 H17        -6.1628   -4.9065    2.2103 H         1 <0>         0.4348
     53 H18        -5.9671   -2.3994    1.6094 H         1 <0>         0.1115
     54 H19        -5.7060   -3.4063    0.1559 H         1 <0>         0.1103
     55 H20        -0.6958   -2.4158   -0.1353 H         1 <0>         0.4186
     56 H21         0.4349   -4.4415   -1.9347 H         1 <0>         0.1256
     57 H22         0.7403   -4.3189   -0.1854 H         1 <0>         0.1191
     58 H23        -0.8932   -4.7035   -0.7789 H         1 <0>         0.1256
     59 H24         0.9168    0.8112   -3.7748 H         1 <0>         0.0633
     60 H25         0.9482   -0.9479   -4.0446 H         1 <0>         0.0514
     61 H26        -0.4433    0.0130   -4.6003 H         1 <0>         0.1100
     62 H27        -0.9785   -2.5293   -1.7546 H         1 <0>         0.4274
@<TRIPOS>BOND
     1    1    2 1
     2    1   39 1
     3    1   40 1
     4    1   41 1
     5    2   10 1
     6    2   21 1
     7    2    3 1
     8    3    4 1
     9    3    5 1
    10    3   37 1
    11    5    6 1
    12    5    7 1
    13    5   35 1
    14    7    8 1
    15    7   42 1
    16    7   43 1
    17    8    9 1
    18    8   10 1
    19    8   11 1
    20   11   19 1
    21   11   12 1
    22   12   17 ar
    23   12   13 ar
    24   13   14 ar
    25   13   44 1
    26   14   15 ar
    27   14   45 1
    28   15   16 ar
    29   15   46 1
    30   16   17 ar
    31   16   47 1
    32   17   18 1
    33   18   30 ar
    34   18   19 ar
    35   19   20 ar
    36   20   28 ar
    37   20   21 1
    38   21   22 1
    39   22   27 ar
    40   22   23 ar
    41   23   24 ar
    42   23   48 1
    43   24   25 ar
    44   24   49 1
    45   25   26 ar
    46   25   50 1
    47   26   27 ar
    48   26   51 1
    49   27   28 1
    50   28   29 ar
    51   29   34 1
    52   29   30 ar
    53   30   31 1
    54   31   32 2
    55   31   33 am
    56   33   34 1
    57   33   52 1
    58   34   53 1
    59   34   54 1
    60   35   36 1
    61   35   55 1
    62   35   62 1
    63   36   56 1
    64   36   57 1
    65   36   58 1
    66   37   38 1
    67   38   59 1
    68   38   60 1
    69   38   61 1
@<TRIPOS>MOLECULE
ZINC58660958
   57    60     0     0     0
SMALL
USER_CHARGES

@<TRIPOS>ATOM
      1 C1          0.3721    1.3777   -0.3055 C.3       1 <0>        -0.1988
      2 C2          0.1634   -0.1084   -0.0071 C.3       1 <0>        -0.0200
      3 N1          0.9255   -0.4786    1.1929 N.4       1 <0>        -0.3758
      4 C3          0.1113   -0.2220    2.3885 C.3       1 <0>         0.0685
      5 C4         -0.1137    1.2609    2.5342 C.2       1 <0>         0.0656
      6 C5         -1.2571    1.8625    2.0543 C.2       1 <0>        -0.2833
      7 C6         -1.3356    3.2123    2.2516 C.2       1 <0>         0.0494
      8 S1          0.0999    3.5603    3.0483 S.3       1 <0>         0.4981
      9 N2          0.7669    2.0280    3.1266 N.2       1 <0>        -0.5011
     10 N3         -2.3559    4.0847    1.8824 N.pl3     1 <0>        -0.5737
     11 C7         -2.2517    5.4363    2.1737 C.2       1 <0>         0.4571
     12 C8         -3.2900    6.3273    1.8053 C.2       1 <0>         0.1343
     13 N4         -4.4479    6.1600    1.1891 N.2       1 <0>        -0.4484
     14 C9         -5.0665    7.3337    1.0833 C.2       1 <0>         0.0363
     15 C10        -4.2758    8.2924    1.6534 C.2       1 <0>         0.0797
     16 N5         -3.1536    7.6597    2.1100 N.pl3     1 <0>        -0.3300
     17 C11        -2.0229    8.0863    2.7582 C.2       1 <0>        -0.0245
     18 C12        -1.0629    7.1998    3.0878 C.2       1 <0>         0.1199
     19 N6         -1.1882    5.8999    2.8001 N.2       1 <0>        -0.5252
     20 C13         0.1747    7.6823    3.7995 C.3       1 <0>        -0.0983
     21 C14        -4.5771    9.7385    1.7559 C.2       1 <0>        -0.1867
     22 C15        -5.7040   10.3628    1.3017 C.2       1 <0>         0.1025
     23 N7         -5.5866   11.6761    1.5904 N.pl3     1 <0>        -0.4612
     24 H1         -6.2389   12.3640    1.3850 H         1 <0>         0.4502
     25 N8         -4.3612   11.8742    2.2379 N.2       1 <0>        -0.2752
     26 C16        -3.7561   10.7211    2.3456 C.2       1 <0>         0.0592
     27 C17         1.2712   -1.9051    1.1328 C.3       1 <0>         0.0542
     28 C18         2.0649   -2.2906    2.3827 C.3       1 <0>        -0.1727
     29 C19        -0.0105   -2.7380    1.0654 C.3       1 <0>        -0.1711
     30 C20         2.1191   -2.1723   -0.1124 C.3       1 <0>         0.0671
     31 O1          2.4554   -3.5599   -0.1709 O.3       1 <0>        -0.5516
     32 H2          1.4092    1.5481   -0.5946 H         1 <0>         0.0782
     33 H3         -0.2865    1.6808   -1.1195 H         1 <0>         0.1048
     34 H4          0.1423    1.9628    0.5849 H         1 <0>         0.0876
     35 H5         -0.8962   -0.2997    0.1620 H         1 <0>         0.1316
     36 H6          0.5090   -0.7011   -0.8542 H         1 <0>         0.1322
     37 H7         -0.8494   -0.7273    2.2891 H         1 <0>         0.1474
     38 H8          0.6307   -0.5990    3.2695 H         1 <0>         0.1497
     39 H9         -2.0370    1.3055    1.5563 H         1 <0>         0.1608
     40 H10        -3.1397    3.7469    1.4214 H         1 <0>         0.4425
     41 H11        -6.0298    7.5005    0.6244 H         1 <0>         0.1933
     42 H12        -1.9019    9.1310    3.0039 H         1 <0>         0.1754
     43 H13         0.0146    7.6388    4.8768 H         1 <0>         0.0884
     44 H14         1.0189    7.0469    3.5317 H         1 <0>         0.0868
     45 H15         0.3858    8.7103    3.5047 H         1 <0>         0.0852
     46 H16        -6.5373    9.8913    0.8020 H         1 <0>         0.1909
     47 H17        -2.7932   10.5508    2.8043 H         1 <0>         0.1818
     48 H18         1.4608   -2.1003    3.2698 H         1 <0>         0.0831
     49 H19         2.3214   -3.3491    2.3381 H         1 <0>         0.1139
     50 H20         2.9779   -1.6972    2.4307 H         1 <0>         0.0806
     51 H21        -0.5759   -2.4633    0.1749 H         1 <0>         0.0798
     52 H22         0.2460   -3.7964    1.0208 H         1 <0>         0.1124
     53 H23        -0.6146   -2.5476    1.9525 H         1 <0>         0.0819
     54 H24         1.5537   -1.8976   -1.0029 H         1 <0>         0.0698
     55 H25         3.0322   -1.5789   -0.0644 H         1 <0>         0.0683
     56 H26         2.9938   -3.8022   -0.9368 H         1 <0>         0.4046
     57 H27         1.7707    0.0707    1.2374 H         1 <0>         0.4245
@<TRIPOS>BOND
     1    1    2 1
     2    1   32 1
     3    1   33 1
     4    1   34 1
     5    2    3 1
     6    2   35 1
     7    2   36 1
     8    3    4 1
     9    3   27 1
    10    3   57 1
    11    4    5 1
    12    4   37 1
    13    4   38 1
    14    5    9 2
    15    5    6 1
    16    6    7 2
    17    6   39 1
    18    7    8 1
    19    7   10 1
    20    8    9 1
    21   10   11 1
    22   10   40 1
    23   11   19 2
    24   11   12 1
    25   12   16 1
    26   12   13 2
    27   13   14 1
    28   14   15 2
    29   14   41 1
    30   15   16 1
    31   15   21 1
    32   16   17 1
    33   17   18 2
    34   17   42 1
    35   18   19 1
    36   18   20 1
    37   20   43 1
    38   20   44 1
    39   20   45 1
    40   21   26 1
    41   21   22 2
    42   22   23 1
    43   22   46 1
    44   23   24 1
    45   23   25 1
    46   25   26 2
    47   26   47 1
    48   27   28 1
    49   27   29 1
    50   27   30 1
    51   28   48 1
    52   28   49 1
    53   28   50 1
    54   29   51 1
    55   29   52 1
    56   29   53 1
    57   30   31 1
    58   30   54 1
    59   30   55 1
    60   31   56 1
@<TRIPOS>MOLECULE
ZINC06718813
   46    49     0     0     0
SMALL
USER_CHARGES
3-[4-(3-amino-1H-indazol-4-yl)phenyl]-1-(2-fluoro-5-methyl-phenyl)urea
@<TRIPOS>ATOM
      1 C1          6.9492   -0.6708   -4.4566 C.3       1 <0>        -0.1151
      2 C2          7.3188   -0.0066   -3.1554 C.ar      1 <0>        -0.0747
      3 C3          8.6152   -0.0905   -2.6815 C.ar      1 <0>        -0.1060
      4 C4          8.9590    0.5169   -1.4879 C.ar      1 <0>        -0.1295
      5 C5          8.0061    1.2101   -0.7639 C.ar      1 <0>         0.0645
      6 C6          6.7020    1.2957   -1.2387 C.ar      1 <0>         0.1336
      7 C7          6.3607    0.6802   -2.4351 C.ar      1 <0>        -0.0953
      8 N1          5.7336    1.9963   -0.5085 N.am      1 <0>        -0.6783
      9 C8          4.4547    1.5712   -0.5040 C.2       1 <0>         0.7069
     10 O1          4.1265    0.6239   -1.1921 O.2       1 <0>        -0.5500
     11 N2          3.5395    2.1961    0.2631 N.am      1 <0>        -0.6801
     12 C9          2.2409    1.6865    0.3572 C.ar      1 <0>         0.1677
     13 C10         1.1632    2.5541    0.4899 C.ar      1 <0>        -0.1430
     14 C11        -0.1180    2.0545    0.5834 C.ar      1 <0>        -0.0892
     15 C12        -0.3326    0.6766    0.5442 C.ar      1 <0>        -0.0682
     16 C13         0.7509   -0.1919    0.4104 C.ar      1 <0>        -0.0779
     17 C14         2.0300    0.3132    0.3174 C.ar      1 <0>        -0.1142
     18 C15        -1.7083    0.1367    0.6449 C.ar      1 <0>         0.0376
     19 C16        -2.0347   -0.7648    1.6483 C.ar      1 <0>        -0.1557
     20 C17        -3.3230   -1.2675    1.7456 C.ar      1 <0>        -0.0592
     21 C18        -4.2968   -0.8911    0.8473 C.ar      1 <0>        -0.1529
     22 C19        -3.9969    0.0086   -0.1734 C.ar      1 <0>         0.1547
     23 C20        -2.6946    0.5292   -0.2801 C.ar      1 <0>        -0.1858
     24 C21        -2.7034    1.4283   -1.4324 C.2       1 <0>         0.3642
     25 N3         -3.9099    1.4169   -1.9352 N.2       1 <0>        -0.3205
     26 N4         -4.7292    0.5606   -1.1926 N.pl3     1 <0>        -0.5119
     27 H1         -5.6955    0.3797   -1.3759 H         1 <0>         0.4473
     28 N5         -1.6172    2.1667   -1.9108 N.pl3     1 <0>        -0.8360
     29 F1          8.3418    1.8036    0.4023 F         1 <0>        -0.1384
     30 H2          6.6188   -1.6912   -4.2627 H         1 <0>         0.0755
     31 H3          6.1436   -0.1125   -4.9335 H         1 <0>         0.0695
     32 H4          7.8178   -0.6890   -5.1149 H         1 <0>         0.0704
     33 H5          9.3607   -0.6319   -3.2448 H         1 <0>         0.1352
     34 H6          9.9724    0.4496   -1.1204 H         1 <0>         0.1410
     35 H7          5.3477    0.7413   -2.8045 H         1 <0>         0.1523
     36 H8          5.9835    2.7876   -0.0061 H         1 <0>         0.4118
     37 H9          3.7818    2.9993    0.7499 H         1 <0>         0.4106
     38 H10         1.3298    3.6208    0.5203 H         1 <0>         0.1310
     39 H11        -0.9554    2.7293    0.6824 H         1 <0>         0.1315
     40 H12         0.5876   -1.2590    0.3794 H         1 <0>         0.1314
     41 H13         2.8692   -0.3587    0.2138 H         1 <0>         0.1391
     42 H14        -1.2822   -1.0738    2.3586 H         1 <0>         0.1292
     43 H15        -3.5651   -1.9655    2.5334 H         1 <0>         0.1325
     44 H16        -5.2951   -1.2940    0.9345 H         1 <0>         0.1278
     45 H17        -0.7342    2.0309   -1.5329 H         1 <0>         0.4118
     46 H18        -1.7465    2.8151   -2.6206 H         1 <0>         0.4050
@<TRIPOS>BOND
     1    1    2 1
     2    1   30 1
     3    1   31 1
     4    1   32 1
     5    2    7 ar
     6    2    3 ar
     7    3    4 ar
     8    3   33 1
     9    4    5 ar
    10    4   34 1
    11    5    6 ar
    12    5   29 1
    13    6    7 ar
    14    6    8 1
    15    7   35 1
    16    8    9 am
    17    8   36 1
    18    9   10 2
    19    9   11 am
    20   11   12 1
    21   11   37 1
    22   12   17 ar
    23   12   13 ar
    24   13   14 ar
    25   13   38 1
    26   14   15 ar
    27   14   39 1
    28   15   16 ar
    29   15   18 1
    30   16   17 ar
    31   16   40 1
    32   17   41 1
    33   18   23 ar
    34   18   19 ar
    35   19   20 ar
    36   19   42 1
    37   20   21 ar
    38   20   43 1
    39   21   22 ar
    40   21   44 1
    41   22   26 1
    42   22   23 ar
    43   23   24 1
    44   24   25 2
    45   24   28 1
    46   25   26 1
    47   26   27 1
    48   28   45 1
    49   28   46 1
@<TRIPOS>MOLECULE
ZINC03834198
   55    58     0     0     0
SMALL
USER_CHARGES

@<TRIPOS>ATOM
      1 C1          2.2102    1.3214   -1.5438 C.3       1 <0>        -0.0473
      2 N1          2.0302   -0.1310   -1.4177 N.4       1 <0>        -0.3861
      3 C2          2.8485   -0.8135   -2.4272 C.3       1 <0>        -0.0039
      4 C3          2.6029   -2.3220   -2.3537 C.3       1 <0>        -0.1426
      5 C4          2.9828   -2.8281   -0.9591 C.3       1 <0>        -0.0980
      6 C5          2.1768   -2.0570    0.0901 C.3       1 <0>        -0.1436
      7 C6          2.4382   -0.5583   -0.0740 C.3       1 <0>        -0.0065
      8 C7          2.6653   -4.3210   -0.8526 C.3       1 <0>         0.0553
      9 O1          3.1265   -4.8175    0.4056 O.3       1 <0>        -0.2959
     10 C8          2.9210   -6.1358    0.6612 C.ar      1 <0>         0.1621
     11 C9          2.2972   -6.9233   -0.2811 C.ar      1 <0>        -0.1791
     12 C10         2.0867   -8.2816   -0.0149 C.ar      1 <0>         0.2018
     13 C11         2.5192   -8.8246    1.2204 C.ar      1 <0>        -0.1784
     14 C12         3.1508   -8.0026    2.1612 C.ar      1 <0>        -0.1424
     15 C13         3.3512   -6.6812    1.8787 C.ar      1 <0>         0.1099
     16 O2          3.9702   -5.8850    2.7909 O.3       1 <0>        -0.3030
     17 C14         4.3854   -6.4992    4.0125 C.3       1 <0>         0.0198
     18 C15         2.2930  -10.2009    1.4605 C.ar      1 <0>         0.4667
     19 N2          1.6881  -10.9114    0.5174 N.ar      1 <0>        -0.5768
     20 C16         1.3012  -10.3606   -0.6222 C.ar      1 <0>         0.3478
     21 N3          1.4842   -9.0917   -0.8996 N.ar      1 <0>        -0.5414
     22 N4          2.6915  -10.7885    2.6441 N.pl3     1 <0>        -0.6296
     23 C17         2.5831  -12.1741    2.8088 C.ar      1 <0>         0.1376
     24 C18         2.4560  -12.9987    1.6992 C.ar      1 <0>        -0.1039
     25 C19         2.3491  -14.3660    1.8644 C.ar      1 <0>        -0.0732
     26 C20         2.3685  -14.9152    3.1341 C.ar      1 <0>        -0.0857
     27 C21         2.4949  -14.0974    4.2430 C.ar      1 <0>        -0.1007
     28 C22         2.6081  -12.7284    4.0841 C.ar      1 <0>         0.0686
     29 F1          2.7372  -11.9301    5.1664 F         1 <0>        -0.1332
     30 Br1         2.2212  -16.7875    3.3546 Br        1 <0>        -0.0295
     31 H1          3.2589    1.5727   -1.3848 H         1 <0>         0.1219
     32 H2          1.9075    1.6398   -2.5414 H         1 <0>         0.1242
     33 H3          1.5979    1.8295   -0.7989 H         1 <0>         0.1242
     34 H4          2.5792   -0.4499   -3.4189 H         1 <0>         0.1343
     35 H5          3.9024   -0.6078   -2.2397 H         1 <0>         0.1306
     36 H6          1.5493   -2.5288   -2.5414 H         1 <0>         0.0934
     37 H7          3.2127   -2.8271   -3.1028 H         1 <0>         0.1176
     38 H8          4.0478   -2.6678   -0.7908 H         1 <0>         0.1030
     39 H9          1.1143   -2.2583   -0.0469 H         1 <0>         0.0893
     40 H10         2.4820   -2.3726    1.0878 H         1 <0>         0.1210
     41 H11         3.5008   -0.3580    0.0634 H         1 <0>         0.1299
     42 H12         1.8660   -0.0063    0.6716 H         1 <0>         0.1325
     43 H13         1.5883   -4.4698   -0.9292 H         1 <0>         0.0742
     44 H14         3.1645   -4.8571   -1.6597 H         1 <0>         0.0787
     45 H15         1.9724   -6.4960   -1.2182 H         1 <0>         0.1540
     46 H16         3.4818   -8.4122    3.1042 H         1 <0>         0.1414
     47 H17         4.8638   -5.7549    4.6491 H         1 <0>         0.1093
     48 H18         3.5165   -6.9116    4.5254 H         1 <0>         0.0597
     49 H19         5.0925   -7.2996    3.7947 H         1 <0>         0.0600
     50 H20         0.8133  -10.9840   -1.3569 H         1 <0>         0.2036
     51 H21         3.0467  -10.2411    3.3618 H         1 <0>         0.4241
     52 H22         2.4404  -12.5714    0.7074 H         1 <0>         0.1818
     53 H23         2.2499  -15.0072    1.0010 H         1 <0>         0.1463
     54 H24         2.5094  -14.5289    5.2329 H         1 <0>         0.1515
     55 H25         1.0589   -0.3624   -1.5626 H         1 <0>         0.4246
@<TRIPOS>BOND
     1    1    2 1
     2    1   31 1
     3    1   32 1
     4    1   33 1
     5    2    7 1
     6    2    3 1
     7    2   55 1
     8    3    4 1
     9    3   34 1
    10    3   35 1
    11    4    5 1
    12    4   36 1
    13    4   37 1
    14    5    6 1
    15    5    8 1
    16    5   38 1
    17    6    7 1
    18    6   39 1
    19    6   40 1
    20    7   41 1
    21    7   42 1
    22    8    9 1
    23    8   43 1
    24    8   44 1
    25    9   10 1
    26   10   15 ar
    27   10   11 ar
    28   11   12 ar
    29   11   45 1
    30   12   21 ar
    31   12   13 ar
    32   13   14 ar
    33   13   18 ar
    34   14   15 ar
    35   14   46 1
    36   15   16 1
    37   16   17 1
    38   17   47 1
    39   17   48 1
    40   17   49 1
    41   18   19 ar
    42   18   22 1
    43   19   20 ar
    44   20   21 ar
    45   20   50 1
    46   22   23 1
    47   22   51 1
    48   23   28 ar
    49   23   24 ar
    50   24   25 ar
    51   24   52 1
    52   25   26 ar
    53   25   53 1
    54   26   27 ar
    55   26   30 1
    56   27   28 ar
    57   27   54 1
    58   28   29 1
@<TRIPOS>MOLECULE
ZINC18825334
   48    52     0     0     0
SMALL
USER_CHARGES
4-[[9-chloro-7-(2,6-difluorophenyl)-5H-pyrimido[5,4-d][2]benzazepin-2-yl]amino]benzoic acid
@<TRIPOS>ATOM
      1 C1          2.2776    0.3903   -0.5698 C.ar      1 <0>        -0.0509
      2 C2          1.1421    1.1799   -0.5633 C.ar      1 <0>        -0.1622
      3 C3         -0.1043    0.6031   -0.4066 C.ar      1 <0>         0.1578
      4 C4         -0.2153   -0.7818   -0.2549 C.ar      1 <0>        -0.1229
      5 C5          0.9369   -1.5728   -0.2630 C.ar      1 <0>         0.1499
      6 C6          2.1761   -0.9809   -0.4208 C.ar      1 <0>        -0.1633
      7 F1          0.8397   -2.9124   -0.1175 F         1 <0>        -0.1231
      8 C7         -1.5453   -1.4071   -0.0861 C.2       1 <0>         0.2536
      9 N1         -2.1650   -1.7678   -1.1512 N.2       1 <0>        -0.4634
     10 C8         -3.4819   -2.3942   -1.1195 C.3       1 <0>         0.0964
     11 C9         -4.4898   -1.4068   -0.6038 C.ar      1 <0>        -0.2574
     12 C10        -5.5098   -0.9746   -1.4374 C.ar      1 <0>         0.2162
     13 N2         -6.3794   -0.0861   -0.9844 N.ar      1 <0>        -0.5366
     14 C11        -6.2835    0.3896    0.2490 C.ar      1 <0>         0.5701
     15 N3         -5.3286   -0.0031    1.0745 N.ar      1 <0>        -0.5552
     16 C12        -4.4183   -0.9022    0.6848 C.ar      1 <0>         0.2552
     17 C13        -3.3769   -1.3202    1.6484 C.ar      1 <0>        -0.0142
     18 C14        -2.0497   -1.5581    1.2881 C.ar      1 <0>        -0.0587
     19 C15        -1.1358   -1.9616    2.2712 C.ar      1 <0>        -0.0846
     20 C16        -1.5377   -2.1181    3.5805 C.ar      1 <0>        -0.0213
     21 C17        -2.8549   -1.8776    3.9370 C.ar      1 <0>        -0.0981
     22 C18        -3.7670   -1.4826    2.9833 C.ar      1 <0>        -0.0636
     23 Cl1        -0.3917   -2.6181    4.7848 Cl        1 <0>        -0.0577
     24 N4         -7.2095    1.3241    0.6851 N.pl3     1 <0>        -0.6261
     25 C19        -8.1519    1.8366   -0.2021 C.ar      1 <0>         0.1418
     26 C20        -9.4292    2.1564    0.2498 C.ar      1 <0>        -0.1598
     27 C21       -10.3616    2.6678   -0.6235 C.ar      1 <0>        -0.0590
     28 C22       -10.0281    2.8564   -1.9684 C.ar      1 <0>        -0.1232
     29 C23        -8.7457    2.5290   -2.4200 C.ar      1 <0>        -0.0681
     30 C24        -7.8166    2.0227   -1.5403 C.ar      1 <0>        -0.1261
     31 C25       -11.0259    3.3995   -2.9077 C.2       1 <0>         0.4893
     32 O1        -10.7345    3.5633   -4.0760 O.co2     1 <0>        -0.6323
     33 F2         -1.2128    1.3755   -0.4056 F         1 <0>        -0.1209
     34 H1          3.2486    0.8468   -0.6927 H         1 <0>         0.1483
     35 H2          1.2295    2.2500   -0.6806 H         1 <0>         0.1486
     36 H3          3.0673   -1.5909   -0.4273 H         1 <0>         0.1485
     37 H4         -3.4574   -3.2644   -0.4636 H         1 <0>         0.0791
     38 H5         -3.7607   -2.7058   -2.1261 H         1 <0>         0.1121
     39 H6         -5.5938   -1.3585   -2.4434 H         1 <0>         0.1778
     40 H7         -0.1076   -2.1514    2.0006 H         1 <0>         0.1393
     41 H8         -3.1667   -1.9996    4.9638 H         1 <0>         0.1452
     42 H9         -4.7921   -1.2962    3.2678 H         1 <0>         0.1468
     43 H10        -7.2009    1.6210    1.6085 H         1 <0>         0.4210
     44 H11        -9.6873    2.0066    1.2877 H         1 <0>         0.1185
     45 H12       -11.3510    2.9199   -0.2713 H         1 <0>         0.1349
     46 H13        -8.4848    2.6738   -3.4580 H         1 <0>         0.1294
     47 H14        -6.8261    1.7696   -1.8885 H         1 <0>         0.1253
     48 O2        -12.2611    3.7145   -2.4709 O.co2     1 <0>        -0.7564
@<TRIPOS>BOND
     1    1    6 ar
     2    1    2 ar
     3    1   34 1
     4    2    3 ar
     5    2   35 1
     6    3    4 ar
     7    3   33 1
     8    4    5 ar
     9    4    8 1
    10    5    6 ar
    11    5    7 1
    12    6   36 1
    13    8   18 1
    14    8    9 2
    15    9   10 1
    16   10   11 1
    17   10   37 1
    18   10   38 1
    19   11   16 ar
    20   11   12 ar
    21   12   13 ar
    22   12   39 1
    23   13   14 ar
    24   14   15 ar
    25   14   24 1
    26   15   16 ar
    27   16   17 1
    28   17   22 ar
    29   17   18 ar
    30   18   19 ar
    31   19   20 ar
    32   19   40 1
    33   20   21 ar
    34   20   23 1
    35   21   22 ar
    36   21   41 1
    37   22   42 1
    38   24   25 1
    39   24   43 1
    40   25   30 ar
    41   25   26 ar
    42   26   27 ar
    43   26   44 1
    44   27   28 ar
    45   27   45 1
    46   28   29 ar
    47   28   31 1
    48   29   30 ar
    49   29   46 1
    50   30   47 1
    51   31   32 2
    52   31   48 1
@<TRIPOS>MOLECULE
ZINC12427841
   45    48     0     0     0
SMALL
USER_CHARGES
6-(4-hydroxybutyl)-4-methyl-7-phenyl-purino[7,8-a]imidazole-1,3-dione
@<TRIPOS>ATOM
      1 C1          0.0361   -4.2033   -0.4701 C.3       1 <0>         0.0880
      2 N1         -0.7478   -3.0056   -0.1579 N.am      1 <0>        -0.5088
      3 C2         -0.1351   -1.7617   -0.1388 C.2       1 <0>         0.3810
      4 C3         -0.9056   -0.6394    0.1618 C.2       1 <0>        -0.1895
      5 C4         -2.2738   -0.8006    0.4347 C.2       1 <0>         0.6015
      6 O1         -2.9669    0.1666    0.6990 O.2       1 <0>        -0.5215
      7 N2         -2.8133   -2.0365    0.4010 N.am      1 <0>        -0.6564
      8 H1         -3.7872   -2.1537    0.5953 H         1 <0>         0.4465
      9 C5         -2.0628   -3.1130    0.1104 C.2       1 <0>         0.7144
     10 O2         -2.5845   -4.2112    0.0891 O.2       1 <0>        -0.5326
     11 N3         -0.0473    0.4491    0.1090 N.pl3     1 <0>        -0.3501
     12 C6          0.0466    1.8184    0.2536 C.2       1 <0>         0.0048
     13 C7          1.3208    2.1796    0.0243 C.2       1 <0>         0.1160
     14 N4          2.0444    1.0313   -0.2688 N.pl3     1 <0>        -0.4505
     15 C8          1.1826   -0.0326   -0.2122 C.2       1 <0>         0.4492
     16 N5          1.1108   -1.3478   -0.3554 N.2       1 <0>        -0.5049
     17 C9          3.4740    0.9685   -0.5828 C.3       1 <0>         0.1136
     18 C10         3.6638    0.9828   -2.1009 C.3       1 <0>        -0.1430
     19 C11         5.1579    1.0208   -2.4278 C.3       1 <0>        -0.1180
     20 C12         5.3477    1.0351   -3.9459 C.3       1 <0>         0.0759
     21 O3          6.7433    1.0706   -4.2512 O.3       1 <0>        -0.5748
     22 C13         1.8576    3.5575    0.0751 C.ar      1 <0>        -0.0299
     23 C14         3.0288    3.8788   -0.6115 C.ar      1 <0>        -0.1191
     24 C15         3.5214    5.1668   -0.5644 C.ar      1 <0>        -0.1122
     25 C16         2.8624    6.1360    0.1706 C.ar      1 <0>        -0.1046
     26 C17         1.7036    5.8224    0.8583 C.ar      1 <0>        -0.1109
     27 C18         1.1977    4.5395    0.8145 C.ar      1 <0>        -0.0909
     28 H2          0.4438   -4.6208    0.4506 H         1 <0>         0.0750
     29 H3         -0.6050   -4.9419   -0.9512 H         1 <0>         0.0956
     30 H4          0.8526   -3.9383   -1.1417 H         1 <0>         0.0924
     31 H5         -0.7651    2.4856    0.5035 H         1 <0>         0.1980
     32 H6          3.9802    1.8290   -0.1452 H         1 <0>         0.1105
     33 H7          3.8962    0.0512   -0.1725 H         1 <0>         0.1053
     34 H8          3.2205    0.0847   -2.5310 H         1 <0>         0.0818
     35 H9          3.1778    1.8641   -2.5196 H         1 <0>         0.0768
     36 H10         5.6012    1.9189   -1.9977 H         1 <0>         0.0755
     37 H11         5.6439    0.1395   -2.0092 H         1 <0>         0.0786
     38 H12         4.9044    0.1370   -4.3760 H         1 <0>         0.0479
     39 H13         4.8617    1.9164   -4.3645 H         1 <0>         0.0466
     40 H14         6.9386    1.0813   -5.1982 H         1 <0>         0.3837
     41 H15         3.5466    3.1219   -1.1820 H         1 <0>         0.1339
     42 H16         4.4255    5.4178   -1.0992 H         1 <0>         0.1306
     43 H17         3.2540    7.1418    0.2074 H         1 <0>         0.1291
     44 H18         1.1938    6.5835    1.4304 H         1 <0>         0.1327
     45 H19         0.2927    4.2961    1.3512 H         1 <0>         0.1323
@<TRIPOS>BOND
     1    1    2 1
     2    1   28 1
     3    1   29 1
     4    1   30 1
     5    2    9 am
     6    2    3 1
     7    3   16 1
     8    3    4 2
     9    4    5 1
    10    4   11 1
    11    5    6 2
    12    5    7 am
    13    7    8 1
    14    7    9 am
    15    9   10 2
    16   11   15 1
    17   11   12 1
    18   12   13 2
    19   12   31 1
    20   13   14 1
    21   13   22 1
    22   14   15 1
    23   14   17 1
    24   15   16 2
    25   17   18 1
    26   17   32 1
    27   17   33 1
    28   18   19 1
    29   18   34 1
    30   18   35 1
    31   19   20 1
    32   19   36 1
    33   19   37 1
    34   20   21 1
    35   20   38 1
    36   20   39 1
    37   21   40 1
    38   22   27 ar
    39   22   23 ar
    40   23   24 ar
    41   23   41 1
    42   24   25 ar
    43   24   42 1
    44   25   26 ar
    45   25   43 1
    46   26   27 ar
    47   26   44 1
    48   27   45 1
@<TRIPOS>MOLECULE
ZINC12427841
   46    49     0     0     0
SMALL
USER_CHARGES
6-(4-hydroxybutyl)-4-methyl-7-phenyl-purino[7,8-a]imidazole-1,3-dione
@<TRIPOS>ATOM
      1 C1          0.0361   -4.2033   -0.4701 C.3       1 <0>         0.0624
      2 N1         -0.7478   -3.0056   -0.1579 N.am      1 <0>        -0.5103
      3 C2         -0.1351   -1.7617   -0.1388 C.2       1 <0>         0.4116
      4 C3         -0.9056   -0.6394    0.1618 C.2       1 <0>        -0.1040
      5 C4         -2.2738   -0.8006    0.4347 C.2       1 <0>         0.5979
      6 O1         -2.9669    0.1666    0.6990 O.2       1 <0>        -0.4724
      7 N2         -2.8133   -2.0365    0.4010 N.am      1 <0>        -0.6455
      8 H1         -3.7872   -2.1537    0.5953 H         1 <0>         0.4634
      9 C5         -2.0628   -3.1130    0.1104 C.2       1 <0>         0.7153
     10 O2         -2.5845   -4.2112    0.0891 O.2       1 <0>        -0.4839
     11 N3         -0.0473    0.4491    0.1090 N.pl3     1 <0>        -0.2986
     12 C6          0.0466    1.8184    0.2536 C.2       1 <0>         0.0227
     13 C7          1.3208    2.1796    0.0243 C.2       1 <0>         0.1661
     14 N4          2.0444    1.0313   -0.2688 N.pl3     1 <0>        -0.4165
     15 C8          1.1826   -0.0326   -0.2122 C.cat     1 <0>         0.4498
     16 C9          3.4740    0.9685   -0.5828 C.3       1 <0>         0.0862
     17 C10         3.6638    0.9828   -2.1009 C.3       1 <0>        -0.1472
     18 C11         5.1579    1.0208   -2.4278 C.3       1 <0>        -0.1213
     19 C12         5.3477    1.0351   -3.9459 C.3       1 <0>         0.0756
     20 O3          6.7433    1.0706   -4.2512 O.3       1 <0>        -0.5727
     21 C13         1.8576    3.5575    0.0751 C.ar      1 <0>        -0.0642
     22 C14         3.0288    3.8788   -0.6115 C.ar      1 <0>        -0.1099
     23 C15         3.5214    5.1668   -0.5644 C.ar      1 <0>        -0.1097
     24 C16         2.8624    6.1360    0.1706 C.ar      1 <0>        -0.0822
     25 C17         1.7036    5.8224    0.8583 C.ar      1 <0>        -0.1076
     26 C18         1.1977    4.5395    0.8145 C.ar      1 <0>        -0.0764
     27 H2          0.4438   -4.6208    0.4506 H         1 <0>         0.0975
     28 H3         -0.6050   -4.9419   -0.9512 H         1 <0>         0.1222
     29 H4          0.8526   -3.9383   -1.1417 H         1 <0>         0.0903
     30 H5         -0.7651    2.4856    0.5035 H         1 <0>         0.2286
     31 H6          3.9802    1.8290   -0.1452 H         1 <0>         0.1369
     32 H7          3.8962    0.0512   -0.1725 H         1 <0>         0.1162
     33 H8          3.2205    0.0847   -2.5310 H         1 <0>         0.0790
     34 H9          3.1778    1.8641   -2.5196 H         1 <0>         0.0895
     35 H10         5.6012    1.9189   -1.9977 H         1 <0>         0.0833
     36 H11         5.6439    0.1395   -2.0092 H         1 <0>         0.0816
     37 H12         4.9044    0.1370   -4.3760 H         1 <0>         0.0468
     38 H13         4.8617    1.9164   -4.3645 H         1 <0>         0.0495
     39 H14         6.9386    1.0813   -5.1982 H         1 <0>         0.3903
     40 H15         3.5466    3.1219   -1.1820 H         1 <0>         0.1329
     41 H16         4.4255    5.4178   -1.0992 H         1 <0>         0.1383
     42 H17         3.2540    7.1418    0.2074 H         1 <0>         0.1381
     43 H18         1.1938    6.5835    1.4304 H         1 <0>         0.1416
     44 H19         0.2927    4.2961    1.3512 H         1 <0>         0.1375
     45 N5          1.1133   -1.3498   -0.3562 N.pl3     1 <0>        -0.5065
     46 H20         1.9029   -1.9598   -0.5986 H         1 <0>         0.4776
@<TRIPOS>BOND
     1    1    2 1
     2    1   27 1
     3    1   28 1
     4    1   29 1
     5    2    9 am
     6    2    3 1
     7    3    4 2
     8    3   45 1
     9    4    5 1
    10    4   11 1
    11    5    6 2
    12    5    7 am
    13    7    8 1
    14    7    9 am
    15    9   10 2
    16   11   15 1
    17   11   12 1
    18   12   13 2
    19   12   30 1
    20   13   14 1
    21   13   21 1
    22   14   15 1
    23   14   16 1
    24   15   45 2
    25   16   17 1
    26   16   31 1
    27   16   32 1
    28   17   18 1
    29   17   33 1
    30   17   34 1
    31   18   19 1
    32   18   35 1
    33   18   36 1
    34   19   20 1
    35   19   37 1
    36   19   38 1
    37   20   39 1
    38   21   26 ar
    39   21   22 ar
    40   22   23 ar
    41   22   40 1
    42   23   24 ar
    43   23   41 1
    44   24   25 ar
    45   24   42 1
    46   25   26 ar
    47   25   43 1
    48   26   44 1
    49   45   46 1
@<TRIPOS>MOLECULE
ZINC13714319
   44    47     0     0     0
SMALL
USER_CHARGES
6-butyl-4-methyl-7-phenyl-purino[7,8-a]imidazole-1,3-dione
@<TRIPOS>ATOM
      1 C1          5.3477    1.0351   -3.9459 C.3       1 <0>        -0.1537
      2 C2          5.1579    1.0208   -2.4278 C.3       1 <0>        -0.1210
      3 C3          3.6638    0.9828   -2.1009 C.3       1 <0>        -0.1456
      4 C4          3.4740    0.9685   -0.5828 C.3       1 <0>         0.1111
      5 N1          2.0444    1.0313   -0.2688 N.pl3     1 <0>        -0.4499
      6 C5          1.3208    2.1796    0.0243 C.2       1 <0>         0.1157
      7 C6          0.0466    1.8184    0.2536 C.2       1 <0>         0.0040
      8 N2         -0.0473    0.4491    0.1090 N.pl3     1 <0>        -0.3501
      9 C7          1.1826   -0.0326   -0.2122 C.2       1 <0>         0.4493
     10 N3          1.1108   -1.3478   -0.3554 N.2       1 <0>        -0.5051
     11 C8         -0.1351   -1.7617   -0.1388 C.2       1 <0>         0.3809
     12 C9         -0.9056   -0.6394    0.1618 C.2       1 <0>        -0.1901
     13 C10        -2.2738   -0.8006    0.4347 C.2       1 <0>         0.6015
     14 O1         -2.9669    0.1666    0.6990 O.2       1 <0>        -0.5217
     15 N4         -2.8133   -2.0365    0.4010 N.am      1 <0>        -0.6564
     16 H1         -3.7872   -2.1537    0.5953 H         1 <0>         0.4464
     17 C11        -2.0628   -3.1130    0.1104 C.2       1 <0>         0.7145
     18 O2         -2.5845   -4.2112    0.0891 O.2       1 <0>        -0.5329
     19 N5         -0.7478   -3.0056   -0.1579 N.am      1 <0>        -0.5088
     20 C12         0.0361   -4.2033   -0.4701 C.3       1 <0>         0.0881
     21 C13         1.8576    3.5575    0.0751 C.ar      1 <0>        -0.0296
     22 C14         3.0288    3.8788   -0.6115 C.ar      1 <0>        -0.1189
     23 C15         3.5214    5.1668   -0.5644 C.ar      1 <0>        -0.1126
     24 C16         2.8624    6.1360    0.1706 C.ar      1 <0>        -0.1050
     25 C17         1.7036    5.8224    0.8583 C.ar      1 <0>        -0.1112
     26 C18         1.1977    4.5395    0.8145 C.ar      1 <0>        -0.0911
     27 H2          6.4122    1.0621   -4.1788 H         1 <0>         0.0595
     28 H3          4.9044    0.1370   -4.3760 H         1 <0>         0.0566
     29 H4          4.8617    1.9164   -4.3645 H         1 <0>         0.0553
     30 H5          5.6012    1.9189   -1.9977 H         1 <0>         0.0666
     31 H6          5.6439    0.1395   -2.0092 H         1 <0>         0.0697
     32 H7          3.2205    0.0847   -2.5310 H         1 <0>         0.0789
     33 H8          3.1778    1.8641   -2.5196 H         1 <0>         0.0743
     34 H9          3.9802    1.8290   -0.1452 H         1 <0>         0.1087
     35 H10         3.8962    0.0512   -0.1725 H         1 <0>         0.1031
     36 H11        -0.7651    2.4856    0.5035 H         1 <0>         0.1978
     37 H12         0.4438   -4.6208    0.4506 H         1 <0>         0.0749
     38 H13        -0.6050   -4.9419   -0.9512 H         1 <0>         0.0956
     39 H14         0.8526   -3.9383   -1.1417 H         1 <0>         0.0924
     40 H15         3.5466    3.1219   -1.1820 H         1 <0>         0.1350
     41 H16         4.4255    5.4178   -1.0992 H         1 <0>         0.1303
     42 H17         3.2540    7.1418    0.2074 H         1 <0>         0.1289
     43 H18         1.1938    6.5835    1.4304 H         1 <0>         0.1326
     44 H19         0.2927    4.2961    1.3512 H         1 <0>         0.1322
@<TRIPOS>BOND
     1    1    2 1
     2    1   27 1
     3    1   28 1
     4    1   29 1
     5    2    3 1
     6    2   30 1
     7    2   31 1
     8    3    4 1
     9    3   32 1
    10    3   33 1
    11    4    5 1
    12    4   34 1
    13    4   35 1
    14    5    9 1
    15    5    6 1
    16    6    7 2
    17    6   21 1
    18    7    8 1
    19    7   36 1
    20    8   12 1
    21    8    9 1
    22    9   10 2
    23   10   11 1
    24   11   19 1
    25   11   12 2
    26   12   13 1
    27   13   14 2
    28   13   15 am
    29   15   16 1
    30   15   17 am
    31   17   18 2
    32   17   19 am
    33   19   20 1
    34   20   37 1
    35   20   38 1
    36   20   39 1
    37   21   26 ar
    38   21   22 ar
    39   22   23 ar
    40   22   40 1
    41   23   24 ar
    42   23   41 1
    43   24   25 ar
    44   24   42 1
    45   25   26 ar
    46   25   43 1
    47   26   44 1
@<TRIPOS>MOLECULE
ZINC13714319
   45    48     0     0     0
SMALL
USER_CHARGES
6-butyl-4-methyl-7-phenyl-purino[7,8-a]imidazole-1,3-dione
@<TRIPOS>ATOM
      1 C1          5.3477    1.0351   -3.9459 C.3       1 <0>        -0.1572
      2 C2          5.1579    1.0208   -2.4278 C.3       1 <0>        -0.1226
      3 C3          3.6638    0.9828   -2.1009 C.3       1 <0>        -0.1500
      4 C4          3.4740    0.9685   -0.5828 C.3       1 <0>         0.0837
      5 N1          2.0444    1.0313   -0.2688 N.pl3     1 <0>        -0.4158
      6 C5          1.3208    2.1796    0.0243 C.2       1 <0>         0.1656
      7 C6          0.0466    1.8184    0.2536 C.2       1 <0>         0.0222
      8 N2         -0.0473    0.4491    0.1090 N.pl3     1 <0>        -0.2990
      9 C7          1.1826   -0.0326   -0.2122 C.cat     1 <0>         0.4497
     10 C8         -0.1351   -1.7617   -0.1388 C.2       1 <0>         0.4115
     11 C9         -0.9056   -0.6394    0.1618 C.2       1 <0>        -0.1043
     12 C10        -2.2738   -0.8006    0.4347 C.2       1 <0>         0.5980
     13 O1         -2.9669    0.1666    0.6990 O.2       1 <0>        -0.4726
     14 N3         -2.8133   -2.0365    0.4010 N.am      1 <0>        -0.6455
     15 H1         -3.7872   -2.1537    0.5953 H         1 <0>         0.4633
     16 C11        -2.0628   -3.1130    0.1104 C.2       1 <0>         0.7154
     17 O2         -2.5845   -4.2112    0.0891 O.2       1 <0>        -0.4842
     18 N4         -0.7478   -3.0056   -0.1579 N.am      1 <0>        -0.5103
     19 C12         0.0361   -4.2033   -0.4701 C.3       1 <0>         0.0625
     20 C13         1.8576    3.5575    0.0751 C.ar      1 <0>        -0.0638
     21 C14         3.0288    3.8788   -0.6115 C.ar      1 <0>        -0.1098
     22 C15         3.5214    5.1668   -0.5644 C.ar      1 <0>        -0.1101
     23 C16         2.8624    6.1360    0.1706 C.ar      1 <0>        -0.0826
     24 C17         1.7036    5.8224    0.8583 C.ar      1 <0>        -0.1078
     25 C18         1.1977    4.5395    0.8145 C.ar      1 <0>        -0.0766
     26 H2          6.4122    1.0621   -4.1788 H         1 <0>         0.0671
     27 H3          4.9044    0.1370   -4.3760 H         1 <0>         0.0570
     28 H4          4.8617    1.9164   -4.3645 H         1 <0>         0.0595
     29 H5          5.6012    1.9189   -1.9977 H         1 <0>         0.0745
     30 H6          5.6439    0.1395   -2.0092 H         1 <0>         0.0727
     31 H7          3.2205    0.0847   -2.5310 H         1 <0>         0.0761
     32 H8          3.1778    1.8641   -2.5196 H         1 <0>         0.0870
     33 H9          3.9802    1.8290   -0.1452 H         1 <0>         0.1351
     34 H10         3.8962    0.0512   -0.1725 H         1 <0>         0.1139
     35 H11        -0.7651    2.4856    0.5035 H         1 <0>         0.2283
     36 H12         0.4438   -4.6208    0.4506 H         1 <0>         0.0973
     37 H13        -0.6050   -4.9419   -0.9512 H         1 <0>         0.1222
     38 H14         0.8526   -3.9383   -1.1417 H         1 <0>         0.0903
     39 H15         3.5466    3.1219   -1.1820 H         1 <0>         0.1339
     40 H16         4.4255    5.4178   -1.0992 H         1 <0>         0.1380
     41 H17         3.2540    7.1418    0.2074 H         1 <0>         0.1379
     42 H18         1.1938    6.5835    1.4304 H         1 <0>         0.1414
     43 H19         0.2927    4.2961    1.3512 H         1 <0>         0.1374
     44 N5          1.1133   -1.3498   -0.3562 N.pl3     1 <0>        -0.5065
     45 H20         1.9029   -1.9598   -0.5986 H         1 <0>         0.4774
@<TRIPOS>BOND
     1    1    2 1
     2    1   26 1
     3    1   27 1
     4    1   28 1
     5    2    3 1
     6    2   29 1
     7    2   30 1
     8    3    4 1
     9    3   31 1
    10    3   32 1
    11    4    5 1
    12    4   33 1
    13    4   34 1
    14    5    9 1
    15    5    6 1
    16    6    7 2
    17    6   20 1
    18    7    8 1
    19    7   35 1
    20    8   11 1
    21    8    9 1
    22    9   44 2
    23   10   18 1
    24   10   11 2
    25   10   44 1
    26   11   12 1
    27   12   13 2
    28   12   14 am
    29   14   15 1
    30   14   16 am
    31   16   17 2
    32   16   18 am
    33   18   19 1
    34   19   36 1
    35   19   37 1
    36   19   38 1
    37   20   25 ar
    38   20   21 ar
    39   21   22 ar
    40   21   39 1
    41   22   23 ar
    42   22   40 1
    43   23   24 ar
    44   23   41 1
    45   24   25 ar
    46   24   42 1
    47   25   43 1
    48   44   45 1
@<TRIPOS>MOLECULE
ZINC22448983
   66    69     0     0     0
SMALL
USER_CHARGES
4-[(2,4-dichloro-5-methoxy-phenyl)amino]-6-methoxy-7-[3-(4-methylpiperazin-1-yl)propoxy]quinoline-3-carbonitrile
@<TRIPOS>ATOM
      1 C1        -10.0137   -6.5102   -1.8158 C.3       1 <0>        -0.0453
      2 N1         -8.6540   -6.0169   -1.5593 N.4       1 <0>        -0.4030
      3 C2         -7.7903   -6.2205   -2.7307 C.3       1 <0>        -0.0001
      4 C3         -6.3670   -5.7678   -2.3965 C.3       1 <0>         0.0245
      5 N2         -6.3862   -4.3530   -1.9994 N.3       1 <0>        -0.5385
      6 C4         -7.2499   -4.1494   -0.8281 C.3       1 <0>         0.0179
      7 C5         -8.6733   -4.6021   -1.1623 C.3       1 <0>         0.0000
      8 C6         -5.0265   -3.8597   -1.7430 C.3       1 <0>         0.0567
      9 C7         -5.0583   -2.3389   -1.5783 C.3       1 <0>        -0.1184
     10 C8         -3.6421   -1.8251   -1.3112 C.3       1 <0>         0.0518
     11 O1         -3.6719   -0.4047   -1.1574 O.3       1 <0>        -0.2957
     12 C9         -2.4875    0.2141   -0.9129 C.ar      1 <0>         0.1552
     13 C10        -1.3345   -0.5326   -0.8253 C.ar      1 <0>        -0.1775
     14 C11        -0.1099    0.1042   -0.5728 C.ar      1 <0>         0.1880
     15 C12        -0.0839    1.5107   -0.4123 C.ar      1 <0>        -0.1309
     16 C13        -1.2740    2.2476   -0.5007 C.ar      1 <0>        -0.1492
     17 C14        -2.4527    1.6062   -0.7522 C.ar      1 <0>         0.1113
     18 O2         -3.6043    2.3237   -0.8425 O.3       1 <0>        -0.3022
     19 C15        -3.5023    3.7385   -0.6693 C.3       1 <0>         0.0181
     20 C16         1.1518    2.1498   -0.1579 C.ar      1 <0>         0.3245
     21 C17         2.2996    1.3468   -0.0768 C.ar      1 <0>        -0.1668
     22 C18         2.1804   -0.0418   -0.2488 C.ar      1 <0>         0.2178
     23 N3          1.0238   -0.6069   -0.4836 N.ar      1 <0>        -0.5049
     24 C19         3.5791    1.9370    0.1785 C.1       1 <0>         0.2512
     25 N4          4.5940    2.4052    0.3811 N.1       1 <0>        -0.4037
     26 N5          1.2264    3.5186    0.0048 N.pl3     1 <0>        -0.6798
     27 C20         2.4372    4.1835   -0.2122 C.ar      1 <0>         0.1811
     28 C21         3.1043    4.7773    0.8508 C.ar      1 <0>        -0.1911
     29 C22         4.3041    5.4350    0.6325 C.ar      1 <0>         0.1715
     30 C23         4.8372    5.4992   -0.6482 C.ar      1 <0>        -0.0467
     31 C24         4.1721    4.9075   -1.7063 C.ar      1 <0>        -0.0516
     32 C25         2.9774    4.2459   -1.4914 C.ar      1 <0>        -0.0699
     33 Cl1         2.1481    3.4984   -2.8208 Cl        1 <0>        -0.0422
     34 Cl2         6.3403    6.3238   -0.9213 Cl        1 <0>        -0.0317
     35 O3          4.9590    6.0176    1.6716 O.3       1 <0>        -0.2942
     36 C26         4.4145    5.8149    2.9772 C.3       1 <0>         0.0202
     37 H1         -9.9701   -7.5691   -2.1104 H         1 <0>         0.1247
     38 H2        -10.4701   -5.9227   -2.6260 H         1 <0>         0.1201
     39 H3        -10.6190   -6.4082   -0.9030 H         1 <0>         0.1247
     40 H4         -7.7832   -7.2870   -3.0001 H         1 <0>         0.1368
     41 H5         -8.1745   -5.6313   -3.5764 H         1 <0>         0.1352
     42 H6         -5.9734   -6.3765   -1.5691 H         1 <0>         0.0623
     43 H7         -5.7253   -5.8927   -3.2811 H         1 <0>         0.1248
     44 H8         -6.8657   -4.7386    0.0176 H         1 <0>         0.0625
     45 H9         -7.2570   -3.0829   -0.5587 H         1 <0>         0.1270
     46 H10        -9.0676   -3.9944   -1.9901 H         1 <0>         0.1353
     47 H11        -9.3157   -4.4781   -0.2780 H         1 <0>         0.1365
     48 H12        -4.6368   -4.3201   -0.8231 H         1 <0>         0.0524
     49 H13        -4.3751   -4.1233   -2.5893 H         1 <0>         0.0947
     50 H14        -5.4480   -1.8786   -2.4982 H         1 <0>         0.0902
     51 H15        -5.7097   -2.0753   -0.7320 H         1 <0>         0.0766
     52 H16        -3.2525   -2.2855   -0.3913 H         1 <0>         0.0692
     53 H17        -2.9907   -2.0887   -2.1575 H         1 <0>         0.0725
     54 H18        -1.3723   -1.6047   -0.9499 H         1 <0>         0.1520
     55 H19        -1.2569    3.3205   -0.3782 H         1 <0>         0.1400
     56 H20        -4.4995    4.1926   -0.7662 H         1 <0>         0.1079
     57 H21        -2.8337    4.1546   -1.4373 H         1 <0>         0.0600
     58 H22        -3.0952    3.9573    0.3289 H         1 <0>         0.0585
     59 H23         3.0649   -0.6582   -0.1860 H         1 <0>         0.1683
     60 H24         0.3333    4.0863    0.3052 H         1 <0>         0.4433
     61 H25         2.6888    4.7264    1.8464 H         1 <0>         0.1497
     62 H26         4.5888    4.9585   -2.7013 H         1 <0>         0.1559
     63 H27         5.0369    6.3367    3.7191 H         1 <0>         0.1117
     64 H28         4.3977    4.7388    3.2044 H         1 <0>         0.0607
     65 H29         3.3898    6.2132    3.0130 H         1 <0>         0.0594
     66 H30        -8.2365   -6.5985   -0.7241 H         1 <0>         0.4406
@<TRIPOS>BOND
     1    1    2 1
     2    1   37 1
     3    1   38 1
     4    1   39 1
     5    2    7 1
     6    2    3 1
     7    2   66 1
     8    3    4 1
     9    3   40 1
    10    3   41 1
    11    4    5 1
    12    4   42 1
    13    4   43 1
    14    5    6 1
    15    5    8 1
    16    6    7 1
    17    6   44 1
    18    6   45 1
    19    7   46 1
    20    7   47 1
    21    8    9 1
    22    8   48 1
    23    8   49 1
    24    9   10 1
    25    9   50 1
    26    9   51 1
    27   10   11 1
    28   10   52 1
    29   10   53 1
    30   11   12 1
    31   12   17 ar
    32   12   13 ar
    33   13   14 ar
    34   13   54 1
    35   14   23 ar
    36   14   15 ar
    37   15   16 ar
    38   15   20 ar
    39   16   17 ar
    40   16   55 1
    41   17   18 1
    42   18   19 1
    43   19   56 1
    44   19   57 1
    45   19   58 1
    46   20   21 ar
    47   20   26 1
    48   21   22 ar
    49   21   24 1
    50   22   23 ar
    51   22   59 1
    52   24   25 3
    53   26   27 1
    54   26   60 1
    55   27   32 ar
    56   27   28 ar
    57   28   29 ar
    58   28   61 1
    59   29   30 ar
    60   29   35 1
    61   30   31 ar
    62   30   34 1
    63   31   32 ar
    64   31   62 1
    65   32   33 1
    66   35   36 1
    67   36   63 1
    68   36   64 1
    69   36   65 1
@<TRIPOS>MOLECULE
ZINC22448983
   66    69     0     0     0
SMALL
USER_CHARGES
4-[(2,4-dichloro-5-methoxy-phenyl)amino]-6-methoxy-7-[3-(4-methylpiperazin-1-yl)propoxy]quinoline-3-carbonitrile
@<TRIPOS>ATOM
      1 C1        -10.0137   -6.5102   -1.8158 C.3       1 <0>         0.0169
      2 N1         -8.6540   -6.0169   -1.5593 N.3       1 <0>        -0.5441
      3 C2         -7.7903   -6.2205   -2.7307 C.3       1 <0>         0.0228
      4 C3         -6.3670   -5.7678   -2.3965 C.3       1 <0>         0.0009
      5 N2         -6.3862   -4.3530   -1.9994 N.4       1 <0>        -0.3998
      6 C4         -7.2499   -4.1494   -0.8281 C.3       1 <0>        -0.0049
      7 C5         -8.6733   -4.6021   -1.1623 C.3       1 <0>         0.0237
      8 C6         -5.0265   -3.8597   -1.7430 C.3       1 <0>        -0.0032
      9 C7         -5.0583   -2.3389   -1.5783 C.3       1 <0>        -0.1498
     10 C8         -3.6421   -1.8251   -1.3112 C.3       1 <0>         0.0546
     11 O1         -3.6719   -0.4047   -1.1574 O.3       1 <0>        -0.2954
     12 C9         -2.4875    0.2141   -0.9129 C.ar      1 <0>         0.1508
     13 C10        -1.3345   -0.5326   -0.8253 C.ar      1 <0>        -0.1739
     14 C11        -0.1099    0.1042   -0.5728 C.ar      1 <0>         0.1865
     15 C12        -0.0839    1.5107   -0.4123 C.ar      1 <0>        -0.1289
     16 C13        -1.2740    2.2476   -0.5007 C.ar      1 <0>        -0.1461
     17 C14        -2.4527    1.6062   -0.7522 C.ar      1 <0>         0.1109
     18 O2         -3.6043    2.3237   -0.8425 O.3       1 <0>        -0.3036
     19 C15        -3.5023    3.7385   -0.6693 C.3       1 <0>         0.0176
     20 C16         1.1518    2.1498   -0.1579 C.ar      1 <0>         0.3244
     21 C17         2.2996    1.3468   -0.0768 C.ar      1 <0>        -0.1637
     22 C18         2.1804   -0.0418   -0.2488 C.ar      1 <0>         0.2201
     23 N3          1.0238   -0.6069   -0.4836 N.ar      1 <0>        -0.5059
     24 C19         3.5791    1.9370    0.1785 C.1       1 <0>         0.2491
     25 N4          4.5940    2.4052    0.3811 N.1       1 <0>        -0.4000
     26 N5          1.2264    3.5186    0.0048 N.pl3     1 <0>        -0.6785
     27 C20         2.4372    4.1835   -0.2122 C.ar      1 <0>         0.1791
     28 C21         3.1043    4.7773    0.8508 C.ar      1 <0>        -0.1908
     29 C22         4.3041    5.4350    0.6325 C.ar      1 <0>         0.1720
     30 C23         4.8372    5.4992   -0.6482 C.ar      1 <0>        -0.0462
     31 C24         4.1721    4.9075   -1.7063 C.ar      1 <0>        -0.0515
     32 C25         2.9774    4.2459   -1.4914 C.ar      1 <0>        -0.0696
     33 Cl1         2.1481    3.4984   -2.8208 Cl        1 <0>        -0.0433
     34 Cl2         6.3403    6.3238   -0.9213 Cl        1 <0>        -0.0302
     35 O3          4.9590    6.0176    1.6716 O.3       1 <0>        -0.2936
     36 C26         4.4145    5.8149    2.9772 C.3       1 <0>         0.0200
     37 H1         -9.9701   -7.5691   -2.1104 H         1 <0>         0.0846
     38 H2        -10.4701   -5.9227   -2.6260 H         1 <0>         0.0401
     39 H3        -10.6190   -6.4082   -0.9030 H         1 <0>         0.0850
     40 H4         -7.7832   -7.2870   -3.0001 H         1 <0>         0.1245
     41 H5         -8.1745   -5.6313   -3.5764 H         1 <0>         0.0612
     42 H6         -5.9734   -6.3765   -1.5691 H         1 <0>         0.1366
     43 H7         -5.7253   -5.8927   -3.2811 H         1 <0>         0.1378
     44 H8         -6.8657   -4.7386    0.0176 H         1 <0>         0.1367
     45 H9         -7.2570   -3.0829   -0.5587 H         1 <0>         0.1381
     46 H10        -9.0676   -3.9944   -1.9901 H         1 <0>         0.0613
     47 H11        -9.3157   -4.4781   -0.2780 H         1 <0>         0.1241
     48 H12        -4.6368   -4.3201   -0.8231 H         1 <0>         0.1339
     49 H13        -4.3751   -4.1233   -2.5893 H         1 <0>         0.1372
     50 H14        -5.4480   -1.8786   -2.4982 H         1 <0>         0.1006
     51 H15        -5.7097   -2.0753   -0.7320 H         1 <0>         0.0999
     52 H16        -3.2525   -2.2855   -0.3913 H         1 <0>         0.0789
     53 H17        -2.9907   -2.0887   -2.1575 H         1 <0>         0.0790
     54 H18        -1.3723   -1.6047   -0.9499 H         1 <0>         0.1517
     55 H19        -1.2569    3.3205   -0.3782 H         1 <0>         0.1413
     56 H20        -4.4995    4.1926   -0.7662 H         1 <0>         0.1090
     57 H21        -2.8337    4.1546   -1.4373 H         1 <0>         0.0608
     58 H22        -3.0952    3.9573    0.3289 H         1 <0>         0.0597
     59 H23         3.0649   -0.6582   -0.1860 H         1 <0>         0.1696
     60 H24         0.3333    4.0863    0.3052 H         1 <0>         0.4436
     61 H25         2.6888    4.7264    1.8464 H         1 <0>         0.1501
     62 H26         4.5888    4.9585   -2.7013 H         1 <0>         0.1563
     63 H27         5.0369    6.3367    3.7191 H         1 <0>         0.1123
     64 H28         4.3977    4.7388    3.2044 H         1 <0>         0.0608
     65 H29         3.3898    6.2132    3.0130 H         1 <0>         0.0596
     66 H30        -6.8037   -3.7713   -2.8345 H         1 <0>         0.4393
@<TRIPOS>BOND
     1    1    2 1
     2    1   37 1
     3    1   38 1
     4    1   39 1
     5    2    7 1
     6    2    3 1
     7    3    4 1
     8    3   40 1
     9    3   41 1
    10    4    5 1
    11    4   42 1
    12    4   43 1
    13    5    6 1
    14    5    8 1
    15    5   66 1
    16    6    7 1
    17    6   44 1
    18    6   45 1
    19    7   46 1
    20    7   47 1
    21    8    9 1
    22    8   48 1
    23    8   49 1
    24    9   10 1
    25    9   50 1
    26    9   51 1
    27   10   11 1
    28   10   52 1
    29   10   53 1
    30   11   12 1
    31   12   17 ar
    32   12   13 ar
    33   13   14 ar
    34   13   54 1
    35   14   23 ar
    36   14   15 ar
    37   15   16 ar
    38   15   20 ar
    39   16   17 ar
    40   16   55 1
    41   17   18 1
    42   18   19 1
    43   19   56 1
    44   19   57 1
    45   19   58 1
    46   20   21 ar
    47   20   26 1
    48   21   22 ar
    49   21   24 1
    50   22   23 ar
    51   22   59 1
    52   24   25 3
    53   26   27 1
    54   26   60 1
    55   27   32 ar
    56   27   28 ar
    57   28   29 ar
    58   28   61 1
    59   29   30 ar
    60   29   35 1
    61   30   31 ar
    62   30   34 1
    63   31   32 ar
    64   31   62 1
    65   32   33 1
    66   35   36 1
    67   36   63 1
    68   36   64 1
    69   36   65 1
@<TRIPOS>MOLECULE
ZINC00016978
   36    38     0     0     0
SMALL
USER_CHARGES
N-(3-chloro-4-fluoro-phenyl)-6,7-dimethoxy-quinazolin-4-amine
@<TRIPOS>ATOM
      1 C1         -0.1077    7.8043   -0.3043 C.3       1 <0>         0.0213
      2 O1          1.1553    7.1532   -0.1529 O.3       1 <0>        -0.2997
      3 C2          1.1387    5.8027    0.0050 C.ar      1 <0>         0.1127
      4 C3         -0.0547    5.1381    0.0126 C.ar      1 <0>        -0.1498
      5 C4         -0.0730    3.7479    0.1756 C.ar      1 <0>        -0.1807
      6 C5          1.1438    3.0387    0.3316 C.ar      1 <0>         0.2015
      7 C6          2.3555    3.7401    0.3208 C.ar      1 <0>        -0.1836
      8 C7          2.3465    5.1079    0.1588 C.ar      1 <0>         0.1645
      9 O2          3.5207    5.7910    0.1475 O.3       1 <0>        -0.2967
     10 C8          4.7173    5.0267    0.3088 C.3       1 <0>         0.0198
     11 N1          1.0981    1.7061    0.4867 N.ar      1 <0>        -0.5395
     12 C9         -0.0526    1.0764    0.4931 C.ar      1 <0>         0.3425
     13 N2         -1.2130    1.6959    0.3460 N.ar      1 <0>        -0.5817
     14 C10        -1.2816    3.0117    0.1912 C.ar      1 <0>         0.4638
     15 N3         -2.4991    3.6452    0.0437 N.pl3     1 <0>        -0.6386
     16 C11        -3.6729    2.8905   -0.0548 C.ar      1 <0>         0.1586
     17 C12        -3.6501    1.6464   -0.6722 C.ar      1 <0>        -0.0781
     18 C13        -4.8088    0.9005   -0.7643 C.ar      1 <0>        -0.1189
     19 C14        -5.9954    1.3962   -0.2511 C.ar      1 <0>         0.0951
     20 C15        -6.0222    2.6392    0.3606 C.ar      1 <0>        -0.0539
     21 C16        -4.8635    3.3866    0.4595 C.ar      1 <0>        -0.1144
     22 Cl1        -7.5113    3.2580    1.0036 Cl        1 <0>        -0.0424
     23 F1         -7.1286    0.6668   -0.3466 F         1 <0>        -0.1253
     24 H1          0.0480    8.8767   -0.4213 H         1 <0>         0.1075
     25 H2         -0.6150    7.4125   -1.1859 H         1 <0>         0.0578
     26 H3         -0.7195    7.6202    0.5788 H         1 <0>         0.0576
     27 H4         -0.9797    5.6826   -0.1070 H         1 <0>         0.1396
     28 H5          3.2905    3.2125    0.4383 H         1 <0>         0.1568
     29 H6          4.6901    4.5069    1.2665 H         1 <0>         0.0625
     30 H7          4.7946    4.2980   -0.4981 H         1 <0>         0.0626
     31 H8          5.5801    5.6924    0.2811 H         1 <0>         0.1078
     32 H9         -0.0529    0.0039    0.6197 H         1 <0>         0.1993
     33 H10        -2.5408    4.6137    0.0082 H         1 <0>         0.4219
     34 H11        -2.7259    1.2610   -1.0767 H         1 <0>         0.1541
     35 H12        -4.7901   -0.0685   -1.2408 H         1 <0>         0.1508
     36 H13        -4.8843    4.3556    0.9360 H         1 <0>         0.1453
@<TRIPOS>BOND
     1    1    2 1
     2    1   24 1
     3    1   25 1
     4    1   26 1
     5    2    3 1
     6    3    8 ar
     7    3    4 ar
     8    4    5 ar
     9    4   27 1
    10    5   14 ar
    11    5    6 ar
    12    6    7 ar
    13    6   11 ar
    14    7    8 ar
    15    7   28 1
    16    8    9 1
    17    9   10 1
    18   10   29 1
    19   10   30 1
    20   10   31 1
    21   11   12 ar
    22   12   13 ar
    23   12   32 1
    24   13   14 ar
    25   14   15 1
    26   15   16 1
    27   15   33 1
    28   16   21 ar
    29   16   17 ar
    30   17   18 ar
    31   17   34 1
    32   18   19 ar
    33   18   35 1
    34   19   20 ar
    35   19   23 1
    36   20   21 ar
    37   20   22 1
    38   21   36 1
@<TRIPOS>MOLECULE
ZINC27439698
   59    62     0     0     0
SMALL
USER_CHARGES

@<TRIPOS>ATOM
      1 C1         -0.2063    1.0844    0.8125 C.2       1 <0>        -0.0780
      2 C2         -0.0916   -0.1284    0.2785 C.2       1 <0>        -0.2217
      3 C3          1.1892   -0.8472    0.3546 C.2       1 <0>         0.5464
      4 O1          2.1435   -0.3327    0.9059 O.2       1 <0>        -0.5301
      5 N1          1.3054   -2.0761   -0.1864 N.am      1 <0>        -0.6549
      6 C4          2.5517   -2.7129   -0.2160 C.ar      1 <0>         0.1200
      7 C5          3.7048   -1.9595   -0.1827 C.ar      1 <0>        -0.0579
      8 C6          4.9490   -2.5997   -0.2120 C.ar      1 <0>        -0.1974
      9 C7          5.0154   -4.0138   -0.2753 C.ar      1 <0>         0.2129
     10 C8          3.8313   -4.7603   -0.3083 C.ar      1 <0>        -0.1947
     11 C9          2.6164   -4.1137   -0.2734 C.ar      1 <0>         0.1622
     12 O2          1.4681   -4.8389   -0.3002 O.3       1 <0>        -0.3093
     13 C10         1.5999   -6.2606   -0.3586 C.3       1 <0>         0.0588
     14 C11         0.2106   -6.9010   -0.3813 C.3       1 <0>        -0.1156
     15 C12         0.3517   -8.4232   -0.4438 C.3       1 <0>         0.0578
     16 N2         -0.9822   -9.0382   -0.4657 N.3       1 <0>        -0.5360
     17 C13        -1.6880   -8.8108    0.8038 C.3       1 <0>         0.0125
     18 C14        -3.0921   -9.4148    0.7161 C.3       1 <0>         0.0626
     19 O3         -2.9885  -10.8047    0.3955 O.3       1 <0>        -0.3850
     20 C15        -2.3071  -11.0626   -0.8351 C.3       1 <0>         0.0628
     21 C16        -0.8951  -10.4753   -0.7631 C.3       1 <0>         0.0171
     22 N3          6.2221   -4.6015   -0.3018 N.ar      1 <0>        -0.5452
     23 C17         7.3156   -3.8777   -0.2694 C.ar      1 <0>         0.3493
     24 N4          7.3023   -2.5556   -0.2097 N.ar      1 <0>        -0.5859
     25 C18         6.1642   -1.8746   -0.1796 C.ar      1 <0>         0.4714
     26 N5          6.1650   -0.4957   -0.1182 N.pl3     1 <0>        -0.6328
     27 C19         7.3694    0.2084   -0.2227 C.ar      1 <0>         0.1581
     28 C20         7.5013    1.4536    0.3785 C.ar      1 <0>        -0.1169
     29 C21         8.6911    2.1472    0.2750 C.ar      1 <0>        -0.1176
     30 C22         9.7524    1.6027   -0.4280 C.ar      1 <0>         0.0901
     31 C23         9.6235    0.3609   -1.0292 C.ar      1 <0>        -0.0524
     32 C24         8.4363   -0.3392   -0.9225 C.ar      1 <0>        -0.0856
     33 Cl1        10.9555   -0.3188   -1.9109 Cl        1 <0>        -0.0424
     34 F1         10.9152    2.2833   -0.5284 F         1 <0>        -0.1264
     35 H1          0.6411    1.5413    1.3020 H         1 <0>         0.1166
     36 H2         -1.1456    1.6141    0.7527 H         1 <0>         0.1209
     37 H3         -0.9390   -0.5853   -0.2110 H         1 <0>         0.1323
     38 H4          0.5255   -2.5194   -0.5554 H         1 <0>         0.4201
     39 H5          3.6489   -0.8820   -0.1348 H         1 <0>         0.1596
     40 H6          3.8708   -5.8385   -0.3565 H         1 <0>         0.1517
     41 H7          2.1429   -6.5383   -1.2620 H         1 <0>         0.0720
     42 H8          2.1473   -6.6110    0.5165 H         1 <0>         0.0691
     43 H9         -0.3323   -6.6233    0.5221 H         1 <0>         0.0760
     44 H10        -0.3367   -6.5506   -1.2564 H         1 <0>         0.0860
     45 H11         0.8947   -8.7010   -1.3473 H         1 <0>         0.0821
     46 H12         0.8990   -8.7736    0.4312 H         1 <0>         0.0409
     47 H13        -1.1377   -9.2854    1.6162 H         1 <0>         0.0448
     48 H14        -1.7636   -7.7398    0.9914 H         1 <0>         0.0895
     49 H15        -3.5986   -9.2990    1.6743 H         1 <0>         0.0993
     50 H16        -3.6604   -8.9035   -0.0609 H         1 <0>         0.0609
     51 H17        -2.2459  -12.1385   -0.9988 H         1 <0>         0.1001
     52 H18        -2.8525  -10.5991   -1.6572 H         1 <0>         0.0612
     53 H19        -0.3918  -10.6192   -1.7193 H         1 <0>         0.0886
     54 H20        -0.3321  -10.9764    0.0243 H         1 <0>         0.0452
     55 H21         8.2696   -4.3834   -0.2921 H         1 <0>         0.1993
     56 H22         5.3306   -0.0149   -0.0027 H         1 <0>         0.4275
     57 H23         6.6738    1.8794    0.9265 H         1 <0>         0.1431
     58 H24         8.7936    3.1154    0.7424 H         1 <0>         0.1506
     59 H25         8.3373   -1.3092   -1.3869 H         1 <0>         0.1663
@<TRIPOS>BOND
     1    1    2 2
     2    1   35 1
     3    1   36 1
     4    2    3 1
     5    2   37 1
     6    3    4 2
     7    3    5 am
     8    5    6 1
     9    5   38 1
    10    6   11 ar
    11    6    7 ar
    12    7    8 ar
    13    7   39 1
    14    8   25 ar
    15    8    9 ar
    16    9   10 ar
    17    9   22 ar
    18   10   11 ar
    19   10   40 1
    20   11   12 1
    21   12   13 1
    22   13   14 1
    23   13   41 1
    24   13   42 1
    25   14   15 1
    26   14   43 1
    27   14   44 1
    28   15   16 1
    29   15   45 1
    30   15   46 1
    31   16   21 1
    32   16   17 1
    33   17   18 1
    34   17   47 1
    35   17   48 1
    36   18   19 1
    37   18   49 1
    38   18   50 1
    39   19   20 1
    40   20   21 1
    41   20   51 1
    42   20   52 1
    43   21   53 1
    44   21   54 1
    45   22   23 ar
    46   23   24 ar
    47   23   55 1
    48   24   25 ar
    49   25   26 1
    50   26   27 1
    51   26   56 1
    52   27   32 ar
    53   27   28 ar
    54   28   29 ar
    55   28   57 1
    56   29   30 ar
    57   29   58 1
    58   30   31 ar
    59   30   34 1
    60   31   32 ar
    61   31   33 1
    62   32   59 1
@<TRIPOS>MOLECULE
ZINC02064362
   45    48     0     0     0
SMALL
USER_CHARGES

@<TRIPOS>ATOM
      1 C1         -0.0050    1.2556    1.2013 C.ar      1 <0>        -0.1135
      2 C2          1.1644    1.9682    1.4276 C.ar      1 <0>        -0.0914
      3 C3          2.3809    1.3155    1.3532 C.ar      1 <0>        -0.0693
      4 C4          2.4105   -0.0253    1.0571 C.ar      1 <0>        -0.1422
      5 C5          1.2364   -0.7790    0.8214 C.ar      1 <0>         0.0755
      6 C6          0.0132   -0.0718    0.9074 C.ar      1 <0>        -0.0571
      7 N1          1.4257   -2.0836    0.5426 N.2       1 <0>        -0.4791
      8 C7          2.6216   -2.6293    0.4909 C.2       1 <0>         0.2034
      9 S1          3.6884   -1.2436    0.8607 S.3       1 <0>         0.0045
     10 C8          2.9893   -4.0306    0.2016 C.ar      1 <0>        -0.0452
     11 C9          4.3300   -4.4171    0.1996 C.ar      1 <0>        -0.0268
     12 C10         4.6675   -5.7327   -0.0720 C.ar      1 <0>         0.1075
     13 C11         3.6736   -6.6665   -0.3423 C.ar      1 <0>        -0.0765
     14 C12         2.3451   -6.2898   -0.3416 C.ar      1 <0>        -0.1412
     15 C13         1.9935   -4.9778   -0.0658 C.ar      1 <0>         0.1730
     16 O1          0.6857   -4.6105   -0.0601 O.3       1 <0>        -0.4731
     17 N2          6.0129   -6.1230   -0.0746 N.pl3     1 <0>        -0.6175
     18 C14         6.8486   -5.6676    0.8798 C.2       1 <0>         0.5033
     19 S2          6.2386   -4.7282    2.1745 S.2       1 <0>        -0.4611
     20 N3          8.1645   -5.9517    0.8148 N.am      1 <0>        -0.6375
     21 C15         9.0001   -5.4963    1.7691 C.2       1 <0>         0.5323
     22 O2          8.5671   -4.8295    2.6882 O.2       1 <0>        -0.3823
     23 C16        10.4429   -5.8078    1.6979 C.ar      1 <0>        -0.0854
     24 C17        10.9445   -6.5687    0.6403 C.ar      1 <0>        -0.0906
     25 C18        12.2925   -6.8554    0.5796 C.ar      1 <0>        -0.0578
     26 C19        13.1468   -6.3907    1.5639 C.ar      1 <0>        -0.0229
     27 C20        12.6562   -5.6365    2.6151 C.ar      1 <0>        -0.0551
     28 C21        11.3113   -5.3376    2.6848 C.ar      1 <0>        -0.0518
     29 N4         14.5921   -6.7023    1.4923 N.pl3     1 <0>         0.0261
     30 O3         15.0236   -7.3615    0.5752 O.2       1 <0>        -0.1476
     31 O4         15.3410   -6.2977    2.3508 O.3       1 <0>        -0.1442
     32 H1         -0.9538    1.7675    1.2646 H         1 <0>         0.1351
     33 H2          1.1245    3.0224    1.6590 H         1 <0>         0.1398
     34 H3          3.3001    1.8554    1.5262 H         1 <0>         0.1345
     35 H4         -0.9172   -0.5932    0.7378 H         1 <0>         0.1340
     36 H5          5.1026   -3.6922    0.4088 H         1 <0>         0.1504
     37 H6          3.9418   -7.6910   -0.5542 H         1 <0>         0.1389
     38 H7          1.5779   -7.0200   -0.5528 H         1 <0>         0.1473
     39 H8          0.3569   -4.3134   -0.9196 H         1 <0>         0.3968
     40 H9          6.3431   -6.7210   -0.7633 H         1 <0>         0.4113
     41 H10         8.5101   -6.4839    0.0812 H         1 <0>         0.4110
     42 H11        10.2787   -6.9323   -0.1284 H         1 <0>         0.1470
     43 H12        12.6819   -7.4442   -0.2377 H         1 <0>         0.1638
     44 H13        13.3283   -5.2775    3.3804 H         1 <0>         0.1666
     45 H14        10.9303   -4.7451    3.5034 H         1 <0>         0.1667
@<TRIPOS>BOND
     1    1    6 ar
     2    1    2 ar
     3    1   32 1
     4    2    3 ar
     5    2   33 1
     6    3    4 ar
     7    3   34 1
     8    4    9 1
     9    4    5 ar
    10    5    6 ar
    11    5    7 1
    12    6   35 1
    13    7    8 2
    14    8    9 1
    15    8   10 1
    16   10   15 ar
    17   10   11 ar
    18   11   12 ar
    19   11   36 1
    20   12   13 ar
    21   12   17 1
    22   13   14 ar
    23   13   37 1
    24   14   15 ar
    25   14   38 1
    26   15   16 1
    27   16   39 1
    28   17   18 1
    29   17   40 1
    30   18   19 2
    31   18   20 1
    32   20   21 am
    33   20   41 1
    34   21   22 2
    35   21   23 1
    36   23   28 ar
    37   23   24 ar
    38   24   25 ar
    39   24   42 1
    40   25   26 ar
    41   25   43 1
    42   26   27 ar
    43   26   29 1
    44   27   28 ar
    45   27   44 1
    46   28   45 1
    47   29   30 2
    48   29   31 1
@<TRIPOS>MOLECULE
ZINC55760827
   83    87     0     0     0
SMALL
USER_CHARGES

@<TRIPOS>ATOM
      1 C1          0.1308    1.2757   -1.5114 C.3       1 <0>        -0.1457
      2 C2          0.0489   -0.2316   -1.2617 C.3       1 <0>        -0.5666
      3 C3          1.2691   -0.6821   -0.4560 C.3       1 <0>        -0.1409
      4 S1         -1.4624   -0.6093   -0.3323 S.o2      1 <0>         2.4858
      5 O1         -1.4234    0.0188    0.9418 O.2       1 <0>        -0.9268
      6 O2         -2.6005   -0.4734   -1.1723 O.2       1 <0>        -0.9405
      7 C4         -1.3622   -2.3341    0.0135 C.ar      1 <0>        -0.6839
      8 C5         -1.2554   -2.7725    1.3190 C.ar      1 <0>        -0.0030
      9 C6         -1.1772   -4.1258    1.5912 C.ar      1 <0>        -0.1503
     10 C7         -1.2056   -5.0450    0.5581 C.ar      1 <0>        -0.0467
     11 C8         -1.3123   -4.6135   -0.7492 C.ar      1 <0>        -0.1331
     12 C9         -1.3964   -3.2546   -1.0259 C.ar      1 <0>         0.2443
     13 N1         -1.5099   -2.8147   -2.3478 N.pl3     1 <0>        -0.6616
     14 C10        -0.8607   -3.4990   -3.3646 C.ar      1 <0>         0.4830
     15 C11        -0.8842   -3.0123   -4.6745 C.ar      1 <0>        -0.2526
     16 C12        -0.2236   -3.7275   -5.6550 C.ar      1 <0>         0.2363
     17 N2          0.4082   -4.8455   -5.3272 N.ar      1 <0>        -0.5723
     18 C13         0.4137   -5.2832   -4.0770 C.ar      1 <0>         0.5997
     19 N3         -0.2026   -4.6244   -3.1067 N.ar      1 <0>        -0.5908
     20 N4          1.0856   -6.4561   -3.7754 N.pl3     1 <0>        -0.6151
     21 C14         1.8542   -7.0973   -4.7591 C.ar      1 <0>         0.0827
     22 C15         2.3739   -6.3680   -5.8182 C.ar      1 <0>        -0.0385
     23 C16         3.1307   -6.9985   -6.7873 C.ar      1 <0>        -0.2089
     24 C17         3.3726   -8.3634   -6.7029 C.ar      1 <0>         0.2363
     25 C18         2.8541   -9.0969   -5.6442 C.ar      1 <0>        -0.2647
     26 C19         2.1002   -8.4653   -4.6693 C.ar      1 <0>         0.1479
     27 O3          1.5961   -9.1808   -3.6285 O.3       1 <0>        -0.3171
     28 C20         1.8884  -10.5793   -3.6006 C.3       1 <0>         0.0308
     29 N5          4.1389   -8.9999   -7.6857 N.pl3     1 <0>        -0.6295
     30 C21         4.7972   -8.2205   -8.7431 C.3       1 <0>         0.1228
     31 C22         4.3883   -8.7923  -10.1042 C.3       1 <0>        -0.1329
     32 C23         4.7023  -10.2897  -10.1391 C.3       1 <0>         0.0908
     33 C24         3.8977  -11.0068   -9.0526 C.3       1 <0>        -0.1308
     34 C25         4.3056  -10.4596   -7.6763 C.3       1 <0>         0.1234
     35 N6          4.3421  -10.8347  -11.4549 N.3       1 <0>        -0.5357
     36 C26         5.0321  -10.1106  -12.5318 C.3       1 <0>         0.0201
     37 C27         4.5853  -10.6681  -13.8850 C.3       1 <0>        -0.0022
     38 N7          4.9025  -12.1007  -13.9534 N.4       1 <0>        -0.3883
     39 C28         4.1869  -12.8138  -12.8872 C.3       1 <0>        -0.0021
     40 C29         4.6303  -12.2741  -11.5256 C.3       1 <0>         0.0207
     41 C30         4.4898  -12.6315  -15.2595 C.3       1 <0>        -0.0459
     42 Cl1        -1.7246   -1.5432   -5.0610 Cl        1 <0>        -0.0377
     43 H1          1.0389    1.5027   -2.0698 H         1 <0>         0.0885
     44 H2         -0.7385    1.5967   -2.0853 H         1 <0>         0.0736
     45 H3          0.1503    1.8016   -0.5568 H         1 <0>         0.0788
     46 H4          0.0294   -0.7574   -2.2162 H         1 <0>         0.1318
     47 H5          2.1772   -0.4551   -1.0145 H         1 <0>         0.0814
     48 H6          1.2886   -0.1562    0.4985 H         1 <0>         0.0798
     49 H7          1.2107   -1.7559   -0.2782 H         1 <0>         0.0704
     50 H8         -1.2325   -2.0574    2.1279 H         1 <0>         0.1501
     51 H9         -1.0933   -4.4659    2.6128 H         1 <0>         0.1365
     52 H10        -1.1440   -6.1014    0.7741 H         1 <0>         0.1352
     53 H11        -1.3341   -5.3318   -1.5555 H         1 <0>         0.1523
     54 H12        -2.0426   -2.0307   -2.5540 H         1 <0>         0.4348
     55 H13        -0.2223   -3.3794   -6.6774 H         1 <0>         0.1828
     56 H14         1.0250   -6.8344   -2.8843 H         1 <0>         0.4275
     57 H15         2.1866   -5.3065   -5.8858 H         1 <0>         0.1583
     58 H16         3.5343   -6.4292   -7.6115 H         1 <0>         0.1269
     59 H17         3.0423  -10.1584   -5.5787 H         1 <0>         0.1320
     60 H18         1.4922  -11.0513   -4.4997 H         1 <0>         0.0544
     61 H19         2.9680  -10.7241   -3.5600 H         1 <0>         0.0558
     62 H20         1.4281  -11.0293   -2.7210 H         1 <0>         0.1025
     63 H21         4.4859   -7.1780   -8.6762 H         1 <0>         0.0942
     64 H22         5.8789   -8.2891   -8.6279 H         1 <0>         0.0623
     65 H23         3.3196   -8.6410  -10.2562 H         1 <0>         0.0830
     66 H24         4.9438   -8.2856  -10.8934 H         1 <0>         0.0745
     67 H25         5.7671  -10.4417   -9.9625 H         1 <0>         0.0537
     68 H26         2.8336  -10.8347   -9.2145 H         1 <0>         0.0823
     69 H27         4.1040  -12.0763   -9.0933 H         1 <0>         0.0730
     70 H28         5.3481  -10.7071   -7.4760 H         1 <0>         0.0623
     71 H29         3.6699  -10.8950   -6.9053 H         1 <0>         0.0877
     72 H30         4.7834   -9.0509  -12.4750 H         1 <0>         0.1272
     73 H31         6.1092  -10.2381  -12.4236 H         1 <0>         0.0603
     74 H32         3.5103  -10.5282  -13.9986 H         1 <0>         0.1375
     75 H33         5.1067  -10.1420  -14.6847 H         1 <0>         0.1357
     76 H34         3.1139  -12.6629  -13.0058 H         1 <0>         0.1374
     77 H35         4.4128  -13.8785  -12.9471 H         1 <0>         0.1354
     78 H36         5.7008  -12.4372  -11.4009 H         1 <0>         0.0602
     79 H37         4.0885  -12.7929  -10.7348 H         1 <0>         0.1256
     80 H38         5.0217  -12.1033  -16.0508 H         1 <0>         0.1244
     81 H39         4.7251  -13.6946  -15.3105 H         1 <0>         0.1242
     82 H40         3.4165  -12.4904  -15.3864 H         1 <0>         0.1232
     83 H41         5.8962  -12.2309  -13.8366 H         1 <0>         0.4222
@<TRIPOS>BOND
     1    1    2 1
     2    1   43 1
     3    1   44 1
     4    1   45 1
     5    2    3 1
     6    2    4 1
     7    2   46 1
     8    3   47 1
     9    3   48 1
    10    3   49 1
    11    4    5 2
    12    4    6 2
    13    4    7 1
    14    7   12 ar
    15    7    8 ar
    16    8    9 ar
    17    8   50 1
    18    9   10 ar
    19    9   51 1
    20   10   11 ar
    21   10   52 1
    22   11   12 ar
    23   11   53 1
    24   12   13 1
    25   13   14 1
    26   13   54 1
    27   14   19 ar
    28   14   15 ar
    29   15   16 ar
    30   15   42 1
    31   16   17 ar
    32   16   55 1
    33   17   18 ar
    34   18   19 ar
    35   18   20 1
    36   20   21 1
    37   20   56 1
    38   21   26 ar
    39   21   22 ar
    40   22   23 ar
    41   22   57 1
    42   23   24 ar
    43   23   58 1
    44   24   25 ar
    45   24   29 1
    46   25   26 ar
    47   25   59 1
    48   26   27 1
    49   27   28 1
    50   28   60 1
    51   28   61 1
    52   28   62 1
    53   29   34 1
    54   29   30 1
    55   30   31 1
    56   30   63 1
    57   30   64 1
    58   31   32 1
    59   31   65 1
    60   31   66 1
    61   32   33 1
    62   32   35 1
    63   32   67 1
    64   33   34 1
    65   33   68 1
    66   33   69 1
    67   34   70 1
    68   34   71 1
    69   35   40 1
    70   35   36 1
    71   36   37 1
    72   36   72 1
    73   36   73 1
    74   37   38 1
    75   37   74 1
    76   37   75 1
    77   38   39 1
    78   38   41 1
    79   38   83 1
    80   39   40 1
    81   39   76 1
    82   39   77 1
    83   40   78 1
    84   40   79 1
    85   41   80 1
    86   41   81 1
    87   41   82 1
@<TRIPOS>MOLECULE
ZINC03964325
   57    59     0     0     0
SMALL
USER_CHARGES

@<TRIPOS>ATOM
      1 C1          0.1489    2.0884    0.1150 C.3       1 <0>        -0.1876
      2 C2          0.1348    0.5603    0.1888 C.3       1 <0>        -0.0191
      3 N1         -1.2520    0.0881    0.2979 N.4       1 <0>        -0.3822
      4 C3         -1.9779    0.4111   -0.9377 C.3       1 <0>        -0.0142
      5 C4         -3.4549    0.0484   -0.7712 C.3       1 <0>        -0.1895
      6 C5         -1.2593   -1.3663    0.5041 C.3       1 <0>        -0.0265
      7 C6         -0.6131   -1.6936    1.8518 C.3       1 <0>         0.0952
      8 N2         -0.6203   -3.1440    2.0575 N.am      1 <0>        -0.7289
      9 C7         -0.0988   -3.6675    3.1846 C.2       1 <0>         0.6111
     10 O1          0.3779   -2.9358    4.0309 O.2       1 <0>        -0.5184
     11 C8         -0.1061   -5.1270    3.3915 C.2       1 <0>        -0.2420
     12 C9          0.9071   -6.0320    3.0089 C.2       1 <0>        -0.0577
     13 C10         0.4868   -7.2892    3.3960 C.2       1 <0>        -0.0075
     14 N3         -0.7476   -7.1595    3.9982 N.pl3     1 <0>        -0.4910
     15 H1         -1.2731   -7.8879    4.3645 H         1 <0>         0.4270
     16 C11        -1.1044   -5.8642    4.0022 C.2       1 <0>         0.1158
     17 C12        -2.3825   -5.3072    4.5743 C.3       1 <0>        -0.0999
     18 C13         1.1957   -8.4957    3.2079 C.2       1 <0>         0.0729
     19 C14         0.5100   -9.6674    2.9570 C.2       1 <0>        -0.1889
     20 C15         1.0648  -11.0377    2.8871 C.ar      1 <0>        -0.0736
     21 C16         2.3472  -11.5557    3.0375 C.ar      1 <0>        -0.1000
     22 C17         2.5553  -12.9162    2.9116 C.ar      1 <0>         0.0861
     23 C18         1.4888  -13.7593    2.6366 C.ar      1 <0>        -0.1139
     24 C19         0.2139  -13.2531    2.4856 C.ar      1 <0>        -0.1021
     25 C20        -0.0144  -11.8871    2.6092 C.ar      1 <0>         0.1282
     26 N4         -1.1765  -11.1301    2.5069 N.am      1 <0>        -0.6466
     27 C21        -0.9294   -9.8245    2.7079 C.2       1 <0>         0.5595
     28 O2         -1.7538   -8.9280    2.6842 O.2       1 <0>        -0.5156
     29 F1          3.7984  -13.4252    3.0561 F         1 <0>        -0.1318
     30 C22         2.1990   -5.6919    2.3116 C.3       1 <0>        -0.0931
     31 H2          1.1793    2.4435    0.1331 H         1 <0>         0.1076
     32 H3         -0.3308    2.4121   -0.8087 H         1 <0>         0.0811
     33 H4         -0.3916    2.4984    0.9682 H         1 <0>         0.0809
     34 H5          0.5888    0.1488   -0.7126 H         1 <0>         0.1317
     35 H6          0.6996    0.2334    1.0619 H         1 <0>         0.1337
     36 H7         -1.8867    1.4775   -1.1444 H         1 <0>         0.1351
     37 H8         -1.5554   -0.1571   -1.7664 H         1 <0>         0.1307
     38 H9         -3.5537   -1.0316   -0.6617 H         1 <0>         0.0802
     39 H10        -3.8523    0.5414    0.1160 H         1 <0>         0.0808
     40 H11        -4.0109    0.3769   -1.6492 H         1 <0>         0.1074
     41 H12        -2.2871   -1.7292    0.4963 H         1 <0>         0.1397
     42 H13        -0.6973   -1.8494   -0.2952 H         1 <0>         0.1376
     43 H14         0.4147   -1.3306    1.8596 H         1 <0>         0.0893
     44 H15        -1.1751   -1.2105    2.6511 H         1 <0>         0.0890
     45 H16        -1.0005   -3.7277    1.3824 H         1 <0>         0.4099
     46 H17        -3.1529   -5.3000    3.8032 H         1 <0>         0.0840
     47 H18        -2.7087   -5.9289    5.4080 H         1 <0>         0.0782
     48 H19        -2.2103   -4.2898    4.9254 H         1 <0>         0.0840
     49 H20         2.2744   -8.5020    3.2604 H         1 <0>         0.1589
     50 H21         3.1765  -10.8977    3.2512 H         1 <0>         0.1436
     51 H22         1.6578  -14.8215    2.5394 H         1 <0>         0.1485
     52 H23        -0.6084  -13.9196    2.2712 H         1 <0>         0.1415
     53 H24        -2.0541  -11.4980    2.3189 H         1 <0>         0.4217
     54 H25         2.9686   -5.4822    3.0545 H         1 <0>         0.0785
     55 H26         2.5107   -6.5337    1.6932 H         1 <0>         0.0726
     56 H27         2.0522   -4.8138    1.6827 H         1 <0>         0.0634
     57 H28        -1.7009    0.5410    1.0799 H         1 <0>         0.4247
@<TRIPOS>BOND
     1    1    2 1
     2    1   31 1
     3    1   32 1
     4    1   33 1
     5    2    3 1
     6    2   34 1
     7    2   35 1
     8    3    4 1
     9    3    6 1
    10    3   57 1
    11    4    5 1
    12    4   36 1
    13    4   37 1
    14    5   38 1
    15    5   39 1
    16    5   40 1
    17    6    7 1
    18    6   41 1
    19    6   42 1
    20    7    8 1
    21    7   43 1
    22    7   44 1
    23    8    9 am
    24    8   45 1
    25    9   10 2
    26    9   11 1
    27   11   16 2
    28   11   12 1
    29   12   13 2
    30   12   30 1
    31   13   14 1
    32   13   18 1
    33   14   15 1
    34   14   16 1
    35   16   17 1
    36   17   46 1
    37   17   47 1
    38   17   48 1
    39   18   19 2
    40   18   49 1
    41   19   27 1
    42   19   20 1
    43   20   25 ar
    44   20   21 ar
    45   21   22 ar
    46   21   50 1
    47   22   23 ar
    48   22   29 1
    49   23   24 ar
    50   23   51 1
    51   24   25 ar
    52   24   52 1
    53   25   26 1
    54   26   27 am
    55   26   53 1
    56   27   28 2
    57   30   54 1
    58   30   55 1
    59   30   56 1
@<TRIPOS>MOLECULE
ZINC45245466
   50    54     0     0     0
SMALL
USER_CHARGES

@<TRIPOS>ATOM
      1 C1         -2.3574    0.0007    0.8882 C.3       1 <0>        -0.1217
      2 C2         -1.1212   -0.7251    0.4234 C.ar      1 <0>        -0.0521
      3 C3         -1.1583   -1.4839   -0.7289 C.ar      1 <0>        -0.1040
      4 C4         -0.0267   -2.1517   -1.1584 C.ar      1 <0>        -0.1207
      5 C5          1.1545   -2.0633   -0.4337 C.ar      1 <0>         0.1012
      6 C6          1.2023   -1.3043    0.7233 C.ar      1 <0>        -0.1068
      7 C7          0.0629   -0.6256    1.1546 C.ar      1 <0>        -0.0246
      8 C8          0.1080    0.1924    2.3868 C.2       1 <0>         0.1254
      9 C9         -0.0342    1.5273    2.4554 C.2       1 <0>         0.0099
     10 N1          0.0702    1.9067    3.7782 N.pl3     1 <0>        -0.3501
     11 C10         0.0472    2.9829    4.6531 C.2       1 <0>        -0.1880
     12 C11        -0.1250    4.3687    4.5029 C.2       1 <0>         0.6017
     13 O1         -0.3026    4.8507    3.3976 O.2       1 <0>        -0.5205
     14 N2         -0.0924    5.1608    5.5943 N.am      1 <0>        -0.6526
     15 H1         -0.2111    6.1181    5.4929 H         1 <0>         0.4395
     16 C12         0.1016    4.6447    6.8201 C.2       1 <0>         0.7152
     17 O2          0.1245    5.3902    7.7804 O.2       1 <0>        -0.5341
     18 N3          0.2708    3.3227    7.0113 N.am      1 <0>        -0.5085
     19 C13         0.2483    2.4566    5.9283 C.2       1 <0>         0.3796
     20 N4          0.3818    1.1387    5.8030 N.2       1 <0>        -0.4990
     21 C14         0.2786    0.7920    4.5286 C.2       1 <0>         0.4575
     22 N5          0.2987   -0.2844    3.6779 N.pl3     1 <0>        -0.3931
     23 C15         0.4819   -1.6248    4.0453 C.ar      1 <0>         0.0796
     24 C16         1.7599   -2.1613    4.1047 C.ar      1 <0>        -0.0542
     25 C17         1.9379   -3.4829    4.4670 C.ar      1 <0>        -0.1456
     26 C18         0.8448   -4.2735    4.7706 C.ar      1 <0>        -0.0536
     27 C19        -0.4318   -3.7461    4.7132 C.ar      1 <0>        -0.2027
     28 C20        -0.6185   -2.4201    4.3573 C.ar      1 <0>         0.1579
     29 O3         -1.8729   -1.8981    4.3067 O.3       1 <0>        -0.3068
     30 C21        -2.9533   -2.7722    4.6395 C.3       1 <0>         0.0247
     31 C22         0.4797    2.7991    8.3635 C.3       1 <0>         0.0851
     32 O4          2.2639   -2.7225   -0.8599 O.3       1 <0>        -0.4954
     33 H2         -2.3348    1.0275    0.5230 H         1 <0>         0.0781
     34 H3         -3.2423   -0.5036    0.5000 H         1 <0>         0.0724
     35 H4         -2.3893    0.0032    1.9777 H         1 <0>         0.0709
     36 H5         -2.0743   -1.5566   -1.2964 H         1 <0>         0.1357
     37 H6         -0.0615   -2.7443   -2.0606 H         1 <0>         0.1348
     38 H7          2.1203   -1.2348    1.2879 H         1 <0>         0.1309
     39 H8         -0.2014    2.1895    1.6187 H         1 <0>         0.1991
     40 H9          2.6154   -1.5463    3.8674 H         1 <0>         0.1362
     41 H10         2.9333   -3.8994    4.5129 H         1 <0>         0.1383
     42 H11         0.9887   -5.3060    5.0529 H         1 <0>         0.1366
     43 H12        -1.2834   -4.3664    4.9506 H         1 <0>         0.1403
     44 H13        -2.9604   -3.6188    3.9529 H         1 <0>         0.0602
     45 H14        -2.8272   -3.1333    5.6602 H         1 <0>         0.0606
     46 H15        -3.8962   -2.2314    4.5593 H         1 <0>         0.1043
     47 H16         0.4670    3.6223    9.0778 H         1 <0>         0.1049
     48 H17        -0.3154    2.0943    8.6071 H         1 <0>         0.0799
     49 H18         1.4429    2.2911    8.4117 H         1 <0>         0.0803
     50 H19         2.8228   -2.2066   -1.4571 H         1 <0>         0.3933
@<TRIPOS>BOND
     1    1    2 1
     2    1   33 1
     3    1   34 1
     4    1   35 1
     5    2    7 ar
     6    2    3 ar
     7    3    4 ar
     8    3   36 1
     9    4    5 ar
    10    4   37 1
    11    5    6 ar
    12    5   32 1
    13    6    7 ar
    14    6   38 1
    15    7    8 1
    16    8   22 1
    17    8    9 2
    18    9   10 1
    19    9   39 1
    20   10   21 1
    21   10   11 1
    22   11   19 2
    23   11   12 1
    24   12   13 2
    25   12   14 am
    26   14   15 1
    27   14   16 am
    28   16   17 2
    29   16   18 am
    30   18   19 1
    31   18   31 1
    32   19   20 1
    33   20   21 2
    34   21   22 1
    35   22   23 1
    36   23   28 ar
    37   23   24 ar
    38   24   25 ar
    39   24   40 1
    40   25   26 ar
    41   25   41 1
    42   26   27 ar
    43   26   42 1
    44   27   28 ar
    45   27   43 1
    46   28   29 1
    47   29   30 1
    48   30   44 1
    49   30   45 1
    50   30   46 1
    51   31   47 1
    52   31   48 1
    53   31   49 1
    54   32   50 1
@<TRIPOS>MOLECULE
ZINC03820040
   62    66     0     0     0
SMALL
USER_CHARGES
N-[4-[4-(4-methylpiperazin-1-yl)-6-[(5-methyl-2H-pyrazol-3-yl)amino]pyrimidin-2-yl]sulfanylphenyl]cyclopropanecarboxamide
@<TRIPOS>ATOM
      1 C1          1.8035   -7.6837    0.5070 C.3       1 <0>        -0.0779
      2 C2          2.3685   -6.3674    0.0389 C.2       1 <0>         0.0949
      3 C3          1.9325   -5.1020    0.4407 C.2       1 <0>        -0.2905
      4 C4          2.6904   -4.1743   -0.2066 C.2       1 <0>         0.3252
      5 N1          3.5799   -4.8447   -0.9836 N.pl3     1 <0>        -0.4853
      6 H1          4.2729   -4.4328   -1.5753 H         1 <0>         0.4473
      7 N2          3.3537   -6.2159   -0.8085 N.2       1 <0>        -0.2711
      8 N3          2.5778   -2.7905   -0.0888 N.pl3     1 <0>        -0.6296
      9 C5          1.3376   -2.2123    0.1391 C.ar      1 <0>         0.4706
     10 C6          0.1755   -2.9717    0.0343 C.ar      1 <0>        -0.2983
     11 C7         -1.0466   -2.3490    0.2714 C.ar      1 <0>         0.3791
     12 N4         -1.0643   -1.0564    0.5886 N.ar      1 <0>        -0.5664
     13 C8          0.0620   -0.3646    0.6795 C.ar      1 <0>         0.3511
     14 N5          1.2425   -0.9231    0.4557 N.ar      1 <0>        -0.5606
     15 S1         -0.0125    1.3444    1.1018 S.3       1 <0>         0.1303
     16 C9          1.7078    1.7032    1.2298 C.ar      1 <0>        -0.1638
     17 C10         2.3806    1.4637    2.4214 C.ar      1 <0>        -0.0284
     18 C11         3.7293    1.7409    2.5200 C.ar      1 <0>        -0.1315
     19 C12         4.4114    2.2681    1.4313 C.ar      1 <0>         0.1902
     20 C13         3.7379    2.5125    0.2417 C.ar      1 <0>        -0.1573
     21 C14         2.3903    2.2311    0.1410 C.ar      1 <0>        -0.0288
     22 N6          5.7793    2.5539    1.5333 N.am      1 <0>        -0.6744
     23 C15         6.5739    1.7808    2.2997 C.2       1 <0>         0.5466
     24 O1          6.1269    0.7811    2.8213 O.2       1 <0>        -0.5140
     25 C16         8.0178    2.1584    2.5086 C.3       1 <0>        -0.2022
     26 C17         9.0818    1.2604    1.8742 C.3       1 <0>        -0.1494
     27 C18         8.8679    1.2402    3.3890 C.3       1 <0>        -0.1425
     28 N7         -2.2296   -3.0657    0.1789 N.pl3     1 <0>        -0.4710
     29 C19        -2.3617   -3.6957   -1.1422 C.3       1 <0>         0.0277
     30 C20        -3.6379   -4.5399   -1.1765 C.3       1 <0>         0.0040
     31 C21        -4.6643   -3.0537    0.4349 C.3       1 <0>        -0.0004
     32 C22        -3.3881   -2.2095    0.4692 C.3       1 <0>         0.0347
     33 C23        -6.0501   -4.4431   -0.9842 C.3       1 <0>        -0.0407
     34 H2          2.3381   -8.0122    1.3982 H         1 <0>         0.0831
     35 H3          0.7460   -7.5623    0.7417 H         1 <0>         0.0784
     36 H4          1.9177   -8.4287   -0.2805 H         1 <0>         0.0774
     37 H5          1.1347   -4.8964    1.1389 H         1 <0>         0.1550
     38 H6          3.3667   -2.2314   -0.1662 H         1 <0>         0.4241
     39 H7          0.2211   -4.0192   -0.2246 H         1 <0>         0.1631
     40 H8          1.8494    1.0573    3.2693 H         1 <0>         0.1319
     41 H9          4.2533    1.5509    3.4451 H         1 <0>         0.1405
     42 H10         4.2686    2.9225   -0.6049 H         1 <0>         0.1339
     43 H11         1.8666    2.4209   -0.7843 H         1 <0>         0.1341
     44 H12         6.1543    3.3081    1.0523 H         1 <0>         0.4168
     45 H13         8.2224    3.2282    2.5520 H         1 <0>         0.1306
     46 H14         8.7374    0.3965    1.3057 H         1 <0>         0.0995
     47 H15         9.9866    1.7393    1.5000 H         1 <0>         0.1100
     48 H16         9.6320    1.7059    4.0114 H         1 <0>         0.1092
     49 H17         8.3827    0.3633    3.8175 H         1 <0>         0.1093
     50 H18        -2.4158   -2.9234   -1.9095 H         1 <0>         0.0737
     51 H19        -1.4982   -4.3342   -1.3286 H         1 <0>         0.1318
     52 H20        -3.5722   -5.3290   -0.4274 H         1 <0>         0.1439
     53 H21        -3.7533   -4.9852   -2.1646 H         1 <0>         0.1412
     54 H22        -4.6102   -3.8259    1.2022 H         1 <0>         0.1407
     55 H23        -5.5278   -2.4152    0.6217 H         1 <0>         0.1407
     56 H24        -3.2729   -1.7645    1.4575 H         1 <0>         0.1357
     57 H25        -3.4537   -1.4201   -0.2796 H         1 <0>         0.0793
     58 H26        -6.8948   -3.7714   -0.8313 H         1 <0>         0.1238
     59 H27        -6.1225   -4.8989   -1.9717 H         1 <0>         0.1230
     60 H28        -6.0632   -5.2226   -0.2224 H         1 <0>         0.1251
     61 N8         -4.7966   -3.6630   -0.9051 N.4       1 <0>        -0.4014
     62 H29        -4.8229   -2.9169   -1.6099 H         1 <0>         0.4281
@<TRIPOS>BOND
     1    1    2 1
     2    1   34 1
     3    1   35 1
     4    1   36 1
     5    2    7 2
     6    2    3 1
     7    3    4 2
     8    3   37 1
     9    4    5 1
    10    4    8 1
    11    5    6 1
    12    5    7 1
    13    8    9 1
    14    8   38 1
    15    9   14 ar
    16    9   10 ar
    17   10   11 ar
    18   10   39 1
    19   11   12 ar
    20   11   28 1
    21   12   13 ar
    22   13   14 ar
    23   13   15 1
    24   15   16 1
    25   16   21 ar
    26   16   17 ar
    27   17   18 ar
    28   17   40 1
    29   18   19 ar
    30   18   41 1
    31   19   20 ar
    32   19   22 1
    33   20   21 ar
    34   20   42 1
    35   21   43 1
    36   22   23 am
    37   22   44 1
    38   23   24 2
    39   23   25 1
    40   25   27 1
    41   25   26 1
    42   25   45 1
    43   26   27 1
    44   26   46 1
    45   26   47 1
    46   27   48 1
    47   27   49 1
    48   28   32 1
    49   28   29 1
    50   29   30 1
    51   29   50 1
    52   29   51 1
    53   30   52 1
    54   30   53 1
    55   30   61 1
    56   31   32 1
    57   31   54 1
    58   31   55 1
    59   31   61 1
    60   32   56 1
    61   32   57 1
    62   33   58 1
    63   33   59 1
    64   33   60 1
    65   33   61 1
    66   61   62 1
@<TRIPOS>MOLECULE
ZINC13814276
   46    50     0     0     0
SMALL
USER_CHARGES
6-(2-methoxyphenyl)-4-methyl-7-phenyl-purino[7,8-a]imidazole-1,3-dione
@<TRIPOS>ATOM
      1 C1          2.9854    3.6137   -0.0066 C.3       1 <0>         0.0883
      2 N1          1.5951    3.1520    0.0037 N.am      1 <0>        -0.5084
      3 C2          1.3156    1.7936   -0.0009 C.2       1 <0>         0.3788
      4 C3         -0.0167    1.3829    0.0096 C.2       1 <0>        -0.1872
      5 C4         -1.0324    2.3530    0.0195 C.2       1 <0>         0.6023
      6 O1         -2.2041    2.0173    0.0225 O.2       1 <0>        -0.5212
      7 N2         -0.6982    3.6598    0.0283 N.am      1 <0>        -0.6562
      8 H1         -1.4198    4.3520    0.0426 H         1 <0>         0.4464
      9 C5          0.5890    4.0466    0.0181 C.2       1 <0>         0.7147
     10 O2          0.8513    5.2340    0.0215 O.2       1 <0>        -0.5334
     11 N3          0.0021   -0.0041    0.0020 N.pl3     1 <0>        -0.3493
     12 C6         -0.7789   -1.1420    0.0030 C.2       1 <0>         0.0049
     13 C7          0.0345   -2.2122   -0.0102 C.2       1 <0>         0.1273
     14 N4          1.3458   -1.7528   -0.0202 N.pl3     1 <0>        -0.3979
     15 C8          1.3085   -0.3813   -0.0125 C.2       1 <0>         0.4594
     16 N5          2.0735    0.7002   -0.0143 N.2       1 <0>        -0.4998
     17 C9          2.5001   -2.5481   -0.0351 C.ar      1 <0>         0.0786
     18 C10         3.0841   -2.9488    1.1579 C.ar      1 <0>        -0.0577
     19 C11         4.2217   -3.7331    1.1407 C.ar      1 <0>        -0.1468
     20 C12         4.7803   -4.1209   -0.0635 C.ar      1 <0>        -0.0535
     21 C13         4.2039   -3.7256   -1.2563 C.ar      1 <0>        -0.2027
     22 C14         3.0605   -2.9431   -1.2477 C.ar      1 <0>         0.1552
     23 O3          2.4893   -2.5582   -2.4200 O.3       1 <0>        -0.3052
     24 C15         3.1186   -3.0005   -3.6243 C.3       1 <0>         0.0242
     25 C16        -0.3914   -3.6292   -0.0138 C.ar      1 <0>        -0.0275
     26 C17         0.5594   -4.6467    0.0710 C.ar      1 <0>        -0.1104
     27 C18         0.1553   -5.9659    0.0739 C.ar      1 <0>        -0.1139
     28 C19        -1.1885   -6.2810   -0.0200 C.ar      1 <0>        -0.1058
     29 C20        -2.1358   -5.2768   -0.1106 C.ar      1 <0>        -0.1129
     30 C21        -1.7451   -3.9536   -0.1078 C.ar      1 <0>        -0.0922
     31 H2          3.3208    3.7336   -1.0368 H         1 <0>         0.0744
     32 H3          3.0545    4.5701    0.5116 H         1 <0>         0.0957
     33 H4          3.6153    2.8808    0.4976 H         1 <0>         0.0923
     34 H5         -1.8585   -1.1682    0.0132 H         1 <0>         0.2002
     35 H6          2.6497   -2.6480    2.0998 H         1 <0>         0.1398
     36 H7          4.6755   -4.0444    2.0700 H         1 <0>         0.1404
     37 H8          5.6690   -4.7345   -0.0721 H         1 <0>         0.1385
     38 H9          4.6427   -4.0301   -2.1949 H         1 <0>         0.1422
     39 H10         3.1312   -4.0902   -3.6486 H         1 <0>         0.0612
     40 H11         2.5634   -2.6244   -4.4837 H         1 <0>         0.1050
     41 H12         4.1410   -2.6244   -3.6594 H         1 <0>         0.0615
     42 H13         1.6092   -4.4021    0.1391 H         1 <0>         0.1312
     43 H14         0.8900   -6.7544    0.1446 H         1 <0>         0.1279
     44 H15        -1.4994   -7.3153   -0.0223 H         1 <0>         0.1280
     45 H16        -3.1834   -5.5292   -0.1833 H         1 <0>         0.1322
     46 H17        -2.4856   -3.1705   -0.1778 H         1 <0>         0.1315
@<TRIPOS>BOND
     1    1    2 1
     2    1   31 1
     3    1   32 1
     4    1   33 1
     5    2    9 am
     6    2    3 1
     7    3   16 1
     8    3    4 2
     9    4    5 1
    10    4   11 1
    11    5    6 2
    12    5    7 am
    13    7    8 1
    14    7    9 am
    15    9   10 2
    16   11   15 1
    17   11   12 1
    18   12   13 2
    19   12   34 1
    20   13   14 1
    21   13   25 1
    22   14   15 1
    23   14   17 1
    24   15   16 2
    25   17   22 ar
    26   17   18 ar
    27   18   19 ar
    28   18   35 1
    29   19   20 ar
    30   19   36 1
    31   20   21 ar
    32   20   37 1
    33   21   22 ar
    34   21   38 1
    35   22   23 1
    36   23   24 1
    37   24   39 1
    38   24   40 1
    39   24   41 1
    40   25   30 ar
    41   25   26 ar
    42   26   27 ar
    43   26   42 1
    44   27   28 ar
    45   27   43 1
    46   28   29 ar
    47   28   44 1
    48   29   30 ar
    49   29   45 1
    50   30   46 1
@<TRIPOS>MOLECULE
ZINC00602803
   57    59     0     0     0
SMALL
USER_CHARGES

@<TRIPOS>ATOM
      1 C1         -1.3402   -4.8618    1.2145 C.3       1 <0>        -0.1534
      2 C2         -0.8181   -3.6495    0.4408 C.3       1 <0>         0.0511
      3 O1         -0.7742   -2.5142    1.3074 O.3       1 <0>        -0.3148
      4 C3         -0.3304   -1.3470    0.7727 C.ar      1 <0>         0.1525
      5 C4          0.0498   -1.3049   -0.5488 C.ar      1 <0>        -0.1831
      6 C5          0.5092   -0.1023   -1.1071 C.ar      1 <0>         0.1876
      7 C6          0.5748    1.0570   -0.2965 C.ar      1 <0>        -0.1304
      8 C7          0.1883    0.9932    1.0499 C.ar      1 <0>        -0.0592
      9 C8         -0.2650   -0.1967    1.5740 C.ar      1 <0>         0.1185
     10 N1         -0.6575   -0.2608    2.9161 N.am      1 <0>        -0.6449
     11 C9         -0.1566    0.6173    3.8075 C.2       1 <0>         0.5328
     12 O2          0.7152    1.3957    3.4703 O.2       1 <0>        -0.5071
     13 C10        -0.6641    0.6344    5.1877 C.2       1 <0>        -0.1271
     14 C11        -0.1697    1.5011    6.0673 C.2       1 <0>        -0.1492
     15 C12        -0.6897    1.5186    7.4817 C.3       1 <0>         0.0302
     16 C13         1.3312    2.5206    8.3617 C.3       1 <0>        -0.0486
     17 C14        -0.0528    1.1357    9.7861 C.3       1 <0>        -0.0433
     18 C15         1.0386    2.2666   -0.8642 C.ar      1 <0>         0.2844
     19 C16         1.4144    2.2536   -2.2161 C.ar      1 <0>        -0.1029
     20 C17         1.3165    1.0573   -2.9447 C.ar      1 <0>         0.2010
     21 N2          0.8834   -0.0478   -2.3940 N.ar      1 <0>        -0.4743
     22 C18         1.8922    3.4476   -2.8459 C.1       1 <0>         0.2469
     23 N3          2.2712    4.3948   -3.3456 N.1       1 <0>        -0.3851
     24 N4          1.1194    3.4219   -0.1130 N.pl3     1 <0>        -0.6979
     25 C19         2.3677    3.9814    0.1773 C.ar      1 <0>         0.1846
     26 C20         3.4715    3.1592    0.3659 C.ar      1 <0>        -0.1231
     27 C21         4.7048    3.7137    0.6463 C.ar      1 <0>        -0.1069
     28 C22         4.8398    5.0877    0.7520 C.ar      1 <0>         0.0844
     29 C23         3.7394    5.9099    0.5700 C.ar      1 <0>        -0.0407
     30 C24         2.5044    5.3592    0.2831 C.ar      1 <0>        -0.1222
     31 Cl1         3.9119    7.6322    0.7020 Cl        1 <0>        -0.0373
     32 F1          6.0462    5.6274    1.0324 F         1 <0>        -0.1244
     33 H1         -2.3423   -4.6506    1.5877 H         1 <0>         0.0676
     34 H2         -1.3737   -5.7279    0.5535 H         1 <0>         0.0859
     35 H3         -0.6765   -5.0706    2.0536 H         1 <0>         0.0665
     36 H4         -1.4818   -3.4407   -0.3983 H         1 <0>         0.0727
     37 H5          0.1840   -3.8607    0.0676 H         1 <0>         0.0719
     38 H6         -0.0049   -2.1965   -1.1558 H         1 <0>         0.1557
     39 H7          0.2375    1.8756    1.6707 H         1 <0>         0.1646
     40 H8         -1.2900   -0.9373    3.2047 H         1 <0>         0.4221
     41 H9         -1.4381   -0.0567    5.4870 H         1 <0>         0.1454
     42 H10         0.6043    2.1922    5.7680 H         1 <0>         0.1533
     43 H11        -1.1915    2.4672    7.6726 H         1 <0>         0.1468
     44 H12        -1.3959    0.6999    7.6193 H         1 <0>         0.1366
     45 H13         0.7789    3.4221    8.6269 H         1 <0>         0.1257
     46 H14         2.1523    2.3777    9.0642 H         1 <0>         0.1250
     47 H15         1.7302    2.6227    7.3524 H         1 <0>         0.1232
     48 H16        -0.6601    0.2309    9.8124 H         1 <0>         0.1226
     49 H17         0.7976    1.0222   10.4584 H         1 <0>         0.1252
     50 H18        -0.6553    1.9870   10.1029 H         1 <0>         0.1250
     51 H19         1.6056    1.0492   -3.9853 H         1 <0>         0.1765
     52 H20         0.3102    3.8456    0.2136 H         1 <0>         0.4201
     53 H21         3.3660    2.0871    0.2888 H         1 <0>         0.1375
     54 H22         5.5639    3.0747    0.7881 H         1 <0>         0.1500
     55 H23         1.6466    6.0000    0.1416 H         1 <0>         0.1457
     56 N5          0.4465    1.3376    8.4096 N.4       1 <0>        -0.3970
     57 H24         0.9816    0.5092    8.1241 H         1 <0>         0.4334
@<TRIPOS>BOND
     1    1    2 1
     2    1   33 1
     3    1   34 1
     4    1   35 1
     5    2    3 1
     6    2   36 1
     7    2   37 1
     8    3    4 1
     9    4    9 ar
    10    4    5 ar
    11    5    6 ar
    12    5   38 1
    13    6   21 ar
    14    6    7 ar
    15    7    8 ar
    16    7   18 ar
    17    8    9 ar
    18    8   39 1
    19    9   10 1
    20   10   11 am
    21   10   40 1
    22   11   12 2
    23   11   13 1
    24   13   14 2
    25   13   41 1
    26   14   15 1
    27   14   42 1
    28   15   43 1
    29   15   44 1
    30   15   56 1
    31   16   45 1
    32   16   46 1
    33   16   47 1
    34   16   56 1
    35   17   48 1
    36   17   49 1
    37   17   50 1
    38   17   56 1
    39   18   19 ar
    40   18   24 1
    41   19   20 ar
    42   19   22 1
    43   20   21 ar
    44   20   51 1
    45   22   23 3
    46   24   25 1
    47   24   52 1
    48   25   30 ar
    49   25   26 ar
    50   26   27 ar
    51   26   53 1
    52   27   28 ar
    53   27   54 1
    54   28   29 ar
    55   28   32 1
    56   29   30 ar
    57   29   31 1
    58   30   55 1
    59   56   57 1
@<TRIPOS>MOLECULE
ZINC19632614
   55    58     0     0     0
SMALL
USER_CHARGES

@<TRIPOS>ATOM
      1 C1         -0.7374    1.4118    0.5253 C.3       1 <0>         0.0199
      2 O1         -0.7263   -0.0171    0.5247 O.3       1 <0>        -0.2961
      3 C2          0.0734   -0.6280    1.4373 C.ar      1 <0>         0.1647
      4 C3          0.8188    0.1348    2.3090 C.ar      1 <0>        -0.1833
      5 C4          1.6420   -0.4976    3.2485 C.ar      1 <0>         0.2017
      6 C5          1.6952   -1.9130    3.2874 C.ar      1 <0>        -0.1805
      7 C6          0.9277   -2.6653    2.3903 C.ar      1 <0>        -0.1504
      8 C7          0.1268   -2.0280    1.4855 C.ar      1 <0>         0.1167
      9 O2         -0.6229   -2.7597    0.6185 O.3       1 <0>        -0.2957
     10 C8         -0.5255   -4.1819    0.7171 C.3       1 <0>         0.0569
     11 C9         -1.4334   -4.8292   -0.3307 C.3       1 <0>        -0.1162
     12 C10        -1.3291   -6.3519   -0.2252 C.3       1 <0>         0.0590
     13 N1         -2.2008   -6.9733   -1.2311 N.3       1 <0>        -0.5361
     14 C11        -3.6165   -6.7053   -0.9393 C.3       1 <0>         0.0126
     15 C12        -4.4841   -7.3184   -2.0416 C.3       1 <0>         0.0623
     16 O3         -4.2065   -8.7181   -2.1368 O.3       1 <0>        -0.3850
     17 C13        -2.8368   -9.0154   -2.4209 C.3       1 <0>         0.0626
     18 C14        -1.9524   -8.4195   -1.3224 C.3       1 <0>         0.0175
     19 C15         2.5361   -2.5234    4.2482 C.ar      1 <0>         0.4639
     20 N2          3.2308   -1.7396    5.0625 N.ar      1 <0>        -0.5813
     21 C16         3.1493   -0.4206    4.9892 C.ar      1 <0>         0.3427
     22 N3          2.3876    0.1999    4.1200 N.ar      1 <0>        -0.5394
     23 N4          2.6306   -3.8977    4.3362 N.pl3     1 <0>        -0.6396
     24 C17         3.3713   -4.4833    5.3684 C.ar      1 <0>         0.1586
     25 C18         3.4039   -3.8902    6.6240 C.ar      1 <0>        -0.0764
     26 C19         4.1353   -4.4698    7.6421 C.ar      1 <0>        -0.1191
     27 C20         4.8362   -5.6416    7.4124 C.ar      1 <0>         0.0961
     28 C21         4.8054   -6.2354    6.1608 C.ar      1 <0>        -0.0542
     29 C22         4.0703   -5.6613    5.1406 C.ar      1 <0>        -0.1133
     30 Cl1         5.6852   -7.7046    5.8756 Cl        1 <0>        -0.0422
     31 F1          5.5513   -6.2065    8.4097 F         1 <0>        -0.1250
     32 H1          0.2683    1.7831    0.3285 H         1 <0>         0.0625
     33 H2         -1.4151    1.7702   -0.2495 H         1 <0>         0.1078
     34 H3         -1.0740    1.7722    1.4974 H         1 <0>         0.0624
     35 H4          0.7687    1.2128    2.2678 H         1 <0>         0.1567
     36 H5          0.9651   -3.7443    2.4164 H         1 <0>         0.1382
     37 H6          0.5060   -4.4884    0.5431 H         1 <0>         0.0655
     38 H7         -0.8359   -4.4993    1.7126 H         1 <0>         0.0633
     39 H8         -2.4649   -4.5227   -0.1568 H         1 <0>         0.0772
     40 H9         -1.1230   -4.5118   -1.3262 H         1 <0>         0.0870
     41 H10        -0.2976   -6.6584   -0.3991 H         1 <0>         0.0806
     42 H11        -1.6394   -6.6693    0.7704 H         1 <0>         0.0394
     43 H12        -3.8805   -7.1489    0.0207 H         1 <0>         0.0445
     44 H13        -3.7829   -5.6288   -0.9016 H         1 <0>         0.0906
     45 H14        -5.5369   -7.1717   -1.8001 H         1 <0>         0.0996
     46 H15        -4.2579   -6.8370   -2.9930 H         1 <0>         0.0614
     47 H16        -2.6980  -10.0960   -2.4536 H         1 <0>         0.0999
     48 H17        -2.5626   -8.5833   -3.3833 H         1 <0>         0.0613
     49 H18        -0.9041   -8.5942   -1.5643 H         1 <0>         0.0880
     50 H19        -2.1898   -8.8905   -0.3685 H         1 <0>         0.0446
     51 H20         3.7361    0.1714    5.6759 H         1 <0>         0.1991
     52 H21         2.1833   -4.4574    3.6823 H         1 <0>         0.4215
     53 H22         2.8578   -2.9760    6.8040 H         1 <0>         0.1516
     54 H23         4.1608   -4.0084    8.6183 H         1 <0>         0.1509
     55 H24         4.0430   -6.1262    4.1662 H         1 <0>         0.1452
@<TRIPOS>BOND
     1    1    2 1
     2    1   32 1
     3    1   33 1
     4    1   34 1
     5    2    3 1
     6    3    8 ar
     7    3    4 ar
     8    4    5 ar
     9    4   35 1
    10    5   22 ar
    11    5    6 ar
    12    6    7 ar
    13    6   19 ar
    14    7    8 ar
    15    7   36 1
    16    8    9 1
    17    9   10 1
    18   10   11 1
    19   10   37 1
    20   10   38 1
    21   11   12 1
    22   11   39 1
    23   11   40 1
    24   12   13 1
    25   12   41 1
    26   12   42 1
    27   13   18 1
    28   13   14 1
    29   14   15 1
    30   14   43 1
    31   14   44 1
    32   15   16 1
    33   15   45 1
    34   15   46 1
    35   16   17 1
    36   17   18 1
    37   17   47 1
    38   17   48 1
    39   18   49 1
    40   18   50 1
    41   19   20 ar
    42   19   23 1
    43   20   21 ar
    44   21   22 ar
    45   21   51 1
    46   23   24 1
    47   23   52 1
    48   24   29 ar
    49   24   25 ar
    50   25   26 ar
    51   25   53 1
    52   26   27 ar
    53   26   54 1
    54   27   28 ar
    55   27   31 1
    56   28   29 ar
    57   28   30 1
    58   29   55 1
@<TRIPOS>MOLECULE
ZINC19632614
   57    60     0     0     0
SMALL
USER_CHARGES

@<TRIPOS>ATOM
      1 C1          0.4957    0.6763   -1.2292 C.3       1 <0>         0.0097
      2 O1          0.3708   -0.6717   -0.7717 O.3       1 <0>        -0.2780
      3 C2         -0.8861   -1.1806   -0.6878 C.ar      1 <0>         0.2175
      4 C3         -1.9704   -0.3964   -1.0449 C.ar      1 <0>        -0.2163
      5 C4         -3.2517   -0.9159   -0.9595 C.ar      1 <0>         0.2109
      6 C5         -3.4429   -2.2355   -0.5110 C.ar      1 <0>        -0.1696
      7 C6         -2.3484   -3.0191   -0.1533 C.ar      1 <0>        -0.1343
      8 C7         -1.0748   -2.4922   -0.2475 C.ar      1 <0>         0.1172
      9 O2         -0.0002   -3.2528    0.0951 O.3       1 <0>        -0.2792
     10 C8         -0.2516   -4.6209    0.4223 C.3       1 <0>         0.0522
     11 C9          1.0783   -5.3474    0.6333 C.3       1 <0>        -0.1519
     12 C10         0.8148   -6.8369    0.8638 C.3       1 <0>        -0.0151
     13 N1          2.0946   -7.5463    0.9928 N.4       1 <0>        -0.3820
     14 C11         2.8253   -7.4743   -0.2800 C.3       1 <0>        -0.0514
     15 C12         4.1584   -8.2140   -0.1429 C.3       1 <0>         0.0361
     16 O3          3.9086   -9.5683    0.2435 O.3       1 <0>        -0.3530
     17 C13         3.1775   -9.6905    1.4668 C.3       1 <0>         0.0362
     18 C14         1.8426   -8.9535    1.3327 C.3       1 <0>        -0.0460
     19 C15        -4.8247   -2.7457   -0.4360 C.cat     1 <0>         0.5319
     20 N2         -5.0725   -3.9771   -0.0222 N.pl3     1 <0>        -0.5604
     21 C16        -4.2014   -4.6012    0.8249 C.ar      1 <0>         0.0974
     22 C17        -3.7272   -3.9360    1.9592 C.ar      1 <0>        -0.0816
     23 C18        -2.8483   -4.5713    2.8111 C.ar      1 <0>        -0.1175
     24 C19        -2.4343   -5.8665    2.5448 C.ar      1 <0>         0.1198
     25 C20        -2.9002   -6.5323    1.4212 C.ar      1 <0>        -0.0716
     26 C21        -3.7851   -5.9094    0.5642 C.ar      1 <0>        -0.0825
     27 Cl1        -2.3754   -8.1547    1.0956 Cl        1 <0>        -0.0183
     28 F1         -1.5728   -6.4831    3.3830 F         1 <0>        -0.1112
     29 N3         -5.8317   -1.9199   -0.8014 N.2       1 <0>        -0.5495
     30 C22        -5.6076   -0.7054   -1.2106 C.2       1 <0>         0.4712
     31 N4         -4.3672   -0.1695   -1.3053 N.pl3     1 <0>        -0.5812
     32 H1         -4.2589    0.7427   -1.6168 H         1 <0>         0.4503
     33 H2          1.5487    0.9571   -1.2491 H         1 <0>         0.1245
     34 H3          0.0784    0.7596   -2.2327 H         1 <0>         0.0727
     35 H4         -0.0447    1.3405   -0.5547 H         1 <0>         0.0731
     36 H5         -1.8176    0.6161   -1.3882 H         1 <0>         0.1754
     37 H6         -2.4939   -4.0322    0.1915 H         1 <0>         0.1665
     38 H7         -0.8431   -4.6731    1.3364 H         1 <0>         0.0710
     39 H8         -0.7992   -5.0947   -0.3924 H         1 <0>         0.0775
     40 H9          1.7051   -5.2217   -0.2495 H         1 <0>         0.1094
     41 H10         1.5867   -4.9297    1.5023 H         1 <0>         0.1099
     42 H11         0.2340   -6.9660    1.7771 H         1 <0>         0.1336
     43 H12         0.2581   -7.2423    0.0189 H         1 <0>         0.1350
     44 H13         2.2311   -7.9385   -1.0671 H         1 <0>         0.1411
     45 H14         3.0128   -6.4308   -0.5330 H         1 <0>         0.1444
     46 H15         4.6829   -8.1989   -1.0982 H         1 <0>         0.1447
     47 H16         4.7692   -7.7256    0.6163 H         1 <0>         0.0840
     48 H17         2.9923  -10.7439    1.6765 H         1 <0>         0.1456
     49 H18         3.7548   -9.2526    2.2811 H         1 <0>         0.0847
     50 H19         1.3007   -9.0081    2.2769 H         1 <0>         0.1448
     51 H20         1.2488   -9.4172    0.5450 H         1 <0>         0.1398
     52 H21        -4.0484   -2.9261    2.1679 H         1 <0>         0.1559
     53 H22        -2.4815   -4.0580    3.6876 H         1 <0>         0.1719
     54 H23        -4.1514   -6.4303   -0.3081 H         1 <0>         0.1696
     55 H24        -6.4530   -0.0939   -1.4891 H         1 <0>         0.2492
     56 H25        -5.8728   -4.4370   -0.3202 H         1 <0>         0.4487
     57 H26         2.6450   -7.1175    1.7216 H         1 <0>         0.4269
@<TRIPOS>BOND
     1    1    2 1
     2    1   33 1
     3    1   34 1
     4    1   35 1
     5    2    3 1
     6    3    8 ar
     7    3    4 ar
     8    4    5 ar
     9    4   36 1
    10    5   31 1
    11    5    6 ar
    12    6    7 ar
    13    6   19 1
    14    7    8 ar
    15    7   37 1
    16    8    9 1
    17    9   10 1
    18   10   11 1
    19   10   38 1
    20   10   39 1
    21   11   12 1
    22   11   40 1
    23   11   41 1
    24   12   13 1
    25   12   42 1
    26   12   43 1
    27   13   18 1
    28   13   14 1
    29   13   57 1
    30   14   15 1
    31   14   44 1
    32   14   45 1
    33   15   16 1
    34   15   46 1
    35   15   47 1
    36   16   17 1
    37   17   18 1
    38   17   48 1
    39   17   49 1
    40   18   50 1
    41   18   51 1
    42   19   20 2
    43   19   29 1
    44   20   21 1
    45   20   56 1
    46   21   26 ar
    47   21   22 ar
    48   22   23 ar
    49   22   52 1
    50   23   24 ar
    51   23   53 1
    52   24   25 ar
    53   24   28 1
    54   25   26 ar
    55   25   27 1
    56   26   54 1
    57   29   30 2
    58   30   31 1
    59   30   55 1
    60   31   32 1
