@<TRIPOS>MOLECULE
ZINC02169415
   51    53     0     0     0
SMALL
USER_CHARGES

@<TRIPOS>ATOM
      1 C1          0.1211    1.2205   -3.1182 C.3       1 <0>        -0.1554
      2 C2          0.1212   -0.2930   -2.8943 C.3       1 <0>        -0.1522
      3 C3          0.5756   -0.5972   -1.4653 C.3       1 <0>        -0.0201
      4 N1          0.5307   -2.0474   -1.2355 N.4       1 <0>        -0.3814
      5 C4         -0.8598   -2.5136   -1.3189 C.3       1 <0>        -0.0169
      6 C5         -1.6744   -1.8943   -0.1814 C.3       1 <0>        -0.0968
      7 C6         -3.0637   -2.4784   -0.1827 C.ar      1 <0>        -0.1073
      8 C7         -4.0648   -1.8787   -0.9236 C.ar      1 <0>        -0.1097
      9 C8         -5.3392   -2.4144   -0.9248 C.ar      1 <0>        -0.1136
     10 C9         -5.6122   -3.5500   -0.1855 C.ar      1 <0>        -0.1044
     11 C10        -4.6108   -4.1503    0.5547 C.ar      1 <0>        -0.1137
     12 C11        -3.3354   -3.6170    0.5525 C.ar      1 <0>        -0.1108
     13 C12         1.3381   -2.7300   -2.2553 C.3       1 <0>         0.0202
     14 H1          0.9446   -2.5044   -3.2465 H         1 <0>         0.1445
     15 C13         2.7949   -2.2617   -2.1593 C.3       1 <0>        -0.1386
     16 C14         3.5541   -2.7985   -3.3710 C.3       1 <0>        -0.0685
     17 C15         3.3324   -4.2809   -3.5206 C.ar      1 <0>        -0.1100
     18 C16         2.2929   -4.9405   -2.9056 C.ar      1 <0>        -0.0755
     19 C17         2.1397   -6.3086   -3.0915 C.ar      1 <0>        -0.1201
     20 C18         3.0232   -7.0147   -3.8823 C.ar      1 <0>        -0.0943
     21 C19         4.0710   -6.3578   -4.4975 C.ar      1 <0>        -0.1328
     22 C20         4.2258   -4.9935   -4.3180 C.ar      1 <0>         0.1136
     23 O1          5.2555   -4.3454   -4.9234 O.3       1 <0>        -0.4942
     24 C21         1.2991   -4.2382   -2.0176 C.3       1 <0>        -0.0918
     25 H2         -0.5617    1.6923   -2.4116 H         1 <0>         0.0668
     26 H3          1.1276    1.6103   -2.9662 H         1 <0>         0.0672
     27 H4         -0.2026    1.4372   -4.1362 H         1 <0>         0.0768
     28 H5         -0.8853   -0.6828   -3.0463 H         1 <0>         0.0858
     29 H6          0.8041   -0.7648   -3.6009 H         1 <0>         0.0873
     30 H7          1.5950   -0.2382   -1.3241 H         1 <0>         0.1334
     31 H8         -0.0869   -0.0967   -0.7591 H         1 <0>         0.1340
     32 H9         -1.2865   -2.2144   -2.2762 H         1 <0>         0.1340
     33 H10        -0.8845   -3.6000   -1.2338 H         1 <0>         0.1338
     34 H11        -1.1906   -2.1099    0.7712 H         1 <0>         0.0938
     35 H12        -1.7338   -0.8152   -0.3228 H         1 <0>         0.0953
     36 H13        -3.8515   -0.9914   -1.5013 H         1 <0>         0.1234
     37 H14        -6.1215   -1.9455   -1.5031 H         1 <0>         0.1293
     38 H15        -6.6080   -3.9682   -0.1859 H         1 <0>         0.1296
     39 H16        -4.8242   -5.0373    1.1326 H         1 <0>         0.1293
     40 H17        -2.5522   -4.0881    1.1278 H         1 <0>         0.1236
     41 H18         2.8309   -1.1723   -2.1566 H         1 <0>         0.0944
     42 H19         3.2447   -2.6466   -1.2441 H         1 <0>         0.0924
     43 H20         3.2032   -2.2902   -4.2691 H         1 <0>         0.0891
     44 H21         4.6191   -2.6055   -3.2423 H         1 <0>         0.0953
     45 H22         1.3212   -6.8249   -2.6121 H         1 <0>         0.1287
     46 H23         2.8959   -8.0784   -4.0194 H         1 <0>         0.1355
     47 H24         4.7668   -6.9060   -5.1155 H         1 <0>         0.1369
     48 H25         6.0632   -4.3085   -4.3930 H         1 <0>         0.3953
     49 H26         1.5412   -4.4440   -0.9749 H         1 <0>         0.0972
     50 H27         0.2976   -4.6103   -2.2335 H         1 <0>         0.0996
     51 H28         0.9005   -2.2543   -0.3198 H         1 <0>         0.4223
@<TRIPOS>BOND
     1    1    2 1
     2    1   25 1
     3    1   26 1
     4    1   27 1
     5    2    3 1
     6    2   28 1
     7    2   29 1
     8    3    4 1
     9    3   30 1
    10    3   31 1
    11    4    5 1
    12    4   13 1
    13    4   51 1
    14    5    6 1
    15    5   32 1
    16    5   33 1
    17    6    7 1
    18    6   34 1
    19    6   35 1
    20    7   12 ar
    21    7    8 ar
    22    8    9 ar
    23    8   36 1
    24    9   10 ar
    25    9   37 1
    26   10   11 ar
    27   10   38 1
    28   11   12 ar
    29   11   39 1
    30   12   40 1
    31   13   14 1
    32   13   24 1
    33   13   15 1
    34   15   16 1
    35   15   41 1
    36   15   42 1
    37   16   17 1
    38   16   43 1
    39   16   44 1
    40   17   22 ar
    41   17   18 ar
    42   18   19 ar
    43   18   24 1
    44   19   20 ar
    45   19   45 1
    46   20   21 ar
    47   20   46 1
    48   21   22 ar
    49   21   47 1
    50   22   23 1
    51   23   48 1
    52   24   49 1
    53   24   50 1
@<TRIPOS>MOLECULE
ZINC02169418
   51    53     0     0     0
SMALL
USER_CHARGES

@<TRIPOS>ATOM
      1 C1         -0.1570    1.5040   -0.0065 C.3       1 <0>        -0.1558
      2 C2         -0.1131   -0.0252   -0.0294 C.3       1 <0>        -0.1485
      3 C3          0.6431   -0.4951   -1.2737 C.3       1 <0>        -0.0231
      4 N1          0.8044   -1.9545   -1.2266 N.4       1 <0>        -0.3815
      5 C4         -0.5154   -2.5956   -1.2986 C.3       1 <0>        -0.0142
      6 C5         -1.1513   -2.3024   -2.6589 C.3       1 <0>        -0.0995
      7 C6         -2.5572   -2.8446   -2.6836 C.ar      1 <0>        -0.1068
      8 C7         -2.7912   -4.1397   -3.1064 C.ar      1 <0>        -0.1099
      9 C8         -4.0807   -4.6371   -3.1290 C.ar      1 <0>        -0.1131
     10 C9         -5.1363   -3.8394   -2.7283 C.ar      1 <0>        -0.1045
     11 C10        -4.9022   -2.5446   -2.3046 C.ar      1 <0>        -0.1133
     12 C11        -3.6121   -2.0487   -2.2780 C.ar      1 <0>        -0.1110
     13 C12         1.6246   -2.3934   -2.3635 C.3       1 <0>         0.0189
     14 H1          1.1134   -2.1588   -3.2971 H         1 <0>         0.1441
     15 C13         1.8663   -3.9047   -2.2728 C.3       1 <0>        -0.1380
     16 C14         2.5094   -4.3686   -3.5782 C.3       1 <0>        -0.0721
     17 C15         3.7047   -3.5150   -3.9122 C.ar      1 <0>        -0.1100
     18 C16         3.9158   -2.2801   -3.3428 C.ar      1 <0>        -0.0758
     19 C17         5.0353   -1.5394   -3.7004 C.ar      1 <0>        -0.1203
     20 C18         5.9413   -2.0317   -4.6175 C.ar      1 <0>        -0.0943
     21 C19         5.7364   -3.2728   -5.1880 C.ar      1 <0>        -0.1328
     22 C20         4.6204   -4.0137   -4.8367 C.ar      1 <0>         0.1139
     23 O1          4.4168   -5.2348   -5.3974 O.3       1 <0>        -0.4943
     24 C21         2.9772   -1.6850   -2.3257 C.3       1 <0>        -0.0918
     25 H2          0.8596    1.8964    0.0164 H         1 <0>         0.0669
     26 H3         -0.6663    1.8663   -0.8995 H         1 <0>         0.0668
     27 H4         -0.6957    1.8388    0.8800 H         1 <0>         0.0774
     28 H5          0.3962   -0.3874    0.8637 H         1 <0>         0.0854
     29 H6         -1.1298   -0.4176   -0.0523 H         1 <0>         0.0867
     30 H7          0.0806   -0.2203   -2.1660 H         1 <0>         0.1320
     31 H8          1.6245   -0.0218   -1.3028 H         1 <0>         0.1335
     32 H9         -0.4033   -3.6727   -1.1745 H         1 <0>         0.1341
     33 H10        -1.1536   -2.2031   -0.5070 H         1 <0>         0.1358
     34 H11        -1.1743   -1.2253   -2.8247 H         1 <0>         0.0938
     35 H12        -0.5645   -2.7784   -3.4445 H         1 <0>         0.0952
     36 H13        -1.9665   -4.7629   -3.4194 H         1 <0>         0.1234
     37 H14        -4.2636   -5.6487   -3.4600 H         1 <0>         0.1294
     38 H15        -6.1439   -4.2278   -2.7467 H         1 <0>         0.1296
     39 H16        -5.7269   -1.9213   -1.9919 H         1 <0>         0.1292
     40 H17        -3.4288   -1.0383   -1.9434 H         1 <0>         0.1226
     41 H18         2.5331   -4.1205   -1.4380 H         1 <0>         0.0933
     42 H19         0.9169   -4.4203   -2.1278 H         1 <0>         0.0937
     43 H20         2.8266   -5.4062   -3.4738 H         1 <0>         0.1023
     44 H21         1.7793   -4.2959   -4.3843 H         1 <0>         0.0849
     45 H22         5.1980   -0.5685   -3.2564 H         1 <0>         0.1287
     46 H23         6.8084   -1.4477   -4.8889 H         1 <0>         0.1355
     47 H24         6.4431   -3.6637   -5.9050 H         1 <0>         0.1368
     48 H25         3.9013   -5.2111   -6.2152 H         1 <0>         0.3956
     49 H26         2.8347   -0.6265   -2.5431 H         1 <0>         0.1001
     50 H27         3.4111   -1.7918   -1.3315 H         1 <0>         0.0973
     51 H28         1.2583   -2.2150   -0.3640 H         1 <0>         0.4235
@<TRIPOS>BOND
     1    1    2 1
     2    1   25 1
     3    1   26 1
     4    1   27 1
     5    2    3 1
     6    2   28 1
     7    2   29 1
     8    3    4 1
     9    3   30 1
    10    3   31 1
    11    4    5 1
    12    4   13 1
    13    4   51 1
    14    5    6 1
    15    5   32 1
    16    5   33 1
    17    6    7 1
    18    6   34 1
    19    6   35 1
    20    7   12 ar
    21    7    8 ar
    22    8    9 ar
    23    8   36 1
    24    9   10 ar
    25    9   37 1
    26   10   11 ar
    27   10   38 1
    28   11   12 ar
    29   11   39 1
    30   12   40 1
    31   13   14 1
    32   13   24 1
    33   13   15 1
    34   15   16 1
    35   15   41 1
    36   15   42 1
    37   16   17 1
    38   16   43 1
    39   16   44 1
    40   17   22 ar
    41   17   18 ar
    42   18   19 ar
    43   18   24 1
    44   19   20 ar
    45   19   45 1
    46   20   21 ar
    47   20   46 1
    48   21   22 ar
    49   21   47 1
    50   22   23 1
    51   23   48 1
    52   24   49 1
    53   24   50 1
@<TRIPOS>MOLECULE
ZINC00004028
   48    50     0     0     0
SMALL
USER_CHARGES

@<TRIPOS>ATOM
      1 C1          2.6184    1.2327    1.6979 C.3       1 <0>        -0.1554
      2 C2          2.4485   -0.2812    1.5557 C.3       1 <0>        -0.1529
      3 C3          0.9894   -0.6020    1.2256 C.3       1 <0>        -0.0212
      4 N1          0.8360   -2.0514    1.0424 N.4       1 <0>        -0.3812
      5 C4          1.6121   -2.4819   -0.1282 C.3       1 <0>        -0.0188
      6 C5          1.0259   -1.8464   -1.3906 C.3       1 <0>        -0.0477
      7 C6          1.7319   -2.3952   -2.6036 C.2       1 <0>        -0.1917
      8 C7          1.4198   -3.4790   -3.3554 C.2       1 <0>        -0.1225
      9 C8          2.2198   -3.7976   -4.4367 C.2       1 <0>        -0.1695
     10 C9          3.2928   -3.0169   -4.7132 C.2       1 <0>        -0.1431
     11 S1          3.1920   -1.7820   -3.4279 S.3       1 <0>         0.0577
     12 C10         1.3251   -2.7506    2.2382 C.3       1 <0>         0.0204
     13 H1          2.3765   -2.5120    2.3985 H         1 <0>         0.1452
     14 C11         0.5055   -2.3190    3.4600 C.3       1 <0>        -0.1385
     15 C12         1.1825   -2.8706    4.7131 C.3       1 <0>        -0.0686
     16 C13         1.4456   -4.3464    4.5666 C.ar      1 <0>        -0.1099
     17 C14         1.4438   -4.9820    3.3461 C.ar      1 <0>        -0.0756
     18 C15         1.7023   -6.3452    3.2794 C.ar      1 <0>        -0.1201
     19 C16         1.9552   -7.0706    4.4259 C.ar      1 <0>        -0.0943
     20 C17         1.9532   -6.4380    5.6538 C.ar      1 <0>        -0.1326
     21 C18         1.6995   -5.0785    5.7249 C.ar      1 <0>         0.1136
     22 O1          1.6981   -4.4542    6.9321 O.3       1 <0>        -0.4942
     23 C19         1.1618   -4.2581    2.0553 C.3       1 <0>        -0.0920
     24 H2          1.9760    1.5966    2.4997 H         1 <0>         0.0674
     25 H3          3.6579    1.4612    1.9330 H         1 <0>         0.0772
     26 H4          2.3422    1.7187    0.7621 H         1 <0>         0.0670
     27 H5          3.0909   -0.6452    0.7538 H         1 <0>         0.0859
     28 H6          2.7247   -0.7673    2.4914 H         1 <0>         0.0880
     29 H7          0.3503   -0.2695    2.0436 H         1 <0>         0.1350
     30 H8          0.7028   -0.0875    0.3084 H         1 <0>         0.1340
     31 H9          2.6495   -2.1682   -0.0117 H         1 <0>         0.1360
     32 H10         1.5682   -3.5676   -0.2140 H         1 <0>         0.1367
     33 H11        -0.0374   -2.0776   -1.4535 H         1 <0>         0.1051
     34 H12         1.1609   -0.7656   -1.3495 H         1 <0>         0.1008
     35 H13         0.5591   -4.0847   -3.1131 H         1 <0>         0.1354
     36 H14         1.9935   -4.6560   -5.0518 H         1 <0>         0.1421
     37 H15         4.0181   -3.1143   -5.5075 H         1 <0>         0.1932
     38 H16         0.4685   -1.2308    3.5115 H         1 <0>         0.0948
     39 H17        -0.5059   -2.7180    3.3832 H         1 <0>         0.0927
     40 H18         2.1277   -2.3508    4.8694 H         1 <0>         0.0894
     41 H19         0.5350   -2.7046    5.5741 H         1 <0>         0.0955
     42 H20         1.7050   -6.8425    2.3207 H         1 <0>         0.1286
     43 H21         2.1539   -8.1303    4.3632 H         1 <0>         0.1354
     44 H22         2.1482   -7.0012    6.5544 H         1 <0>         0.1369
     45 H23         0.8341   -4.4392    7.3661 H         1 <0>         0.3954
     46 H24         0.1413   -4.4732    1.7385 H         1 <0>         0.0975
     47 H25         1.8558   -4.6044    1.2895 H         1 <0>         0.0997
     48 H26        -0.1383   -2.2711    0.8992 H         1 <0>         0.4230
@<TRIPOS>BOND
     1    1    2 1
     2    1   24 1
     3    1   25 1
     4    1   26 1
     5    2    3 1
     6    2   27 1
     7    2   28 1
     8    3    4 1
     9    3   29 1
    10    3   30 1
    11    4    5 1
    12    4   12 1
    13    4   48 1
    14    5    6 1
    15    5   31 1
    16    5   32 1
    17    6    7 1
    18    6   33 1
    19    6   34 1
    20    7   11 1
    21    7    8 2
    22    8    9 1
    23    8   35 1
    24    9   10 2
    25    9   36 1
    26   10   11 1
    27   10   37 1
    28   12   13 1
    29   12   23 1
    30   12   14 1
    31   14   15 1
    32   14   38 1
    33   14   39 1
    34   15   16 1
    35   15   40 1
    36   15   41 1
    37   16   21 ar
    38   16   17 ar
    39   17   18 ar
    40   17   23 1
    41   18   19 ar
    42   18   42 1
    43   19   20 ar
    44   19   43 1
    45   20   21 ar
    46   20   44 1
    47   21   22 1
    48   22   45 1
    49   23   46 1
    50   23   47 1
@<TRIPOS>MOLECULE
ZINC13759806
   26    27     0     0     0
SMALL
USER_CHARGES
(3R)-3-aminotetralin-6-ol
@<TRIPOS>ATOM
      1 C1          1.1590    3.1662    0.0083 C.ar      1 <0>        -0.1316
      2 C2         -0.0486    3.8312    0.0267 C.ar      1 <0>        -0.0951
      3 C3         -1.2451    3.1253    0.0356 C.ar      1 <0>        -0.0954
      4 C4         -1.2267    1.7480    0.0174 C.ar      1 <0>        -0.0764
      5 C5         -0.0126    1.0758    0.0080 C.ar      1 <0>        -0.1401
      6 C6          1.1802    1.7792    0.0003 C.ar      1 <0>         0.1183
      7 O1          2.3652    1.1142   -0.0144 O.3       1 <0>        -0.4960
      8 C7         -2.4855    0.9206    0.0161 C.3       1 <0>        -0.0960
      9 C8         -3.6812    1.7583    0.4645 C.3       1 <0>         0.0308
     10 H1         -3.5820    2.0031    1.5221 H         1 <0>         0.1486
     11 C9         -3.7058    3.0482   -0.3639 C.3       1 <0>        -0.1409
     12 C10        -2.5257    3.9183    0.0637 C.3       1 <0>        -0.0773
     13 H2          2.0845    3.7227    0.0006 H         1 <0>         0.1377
     14 H3         -0.0646    4.9110    0.0346 H         1 <0>         0.1340
     15 H4          0.0021   -0.0041    0.0020 H         1 <0>         0.1325
     16 H5          2.6998    0.9264   -0.9020 H         1 <0>         0.3991
     17 H6         -2.3640    0.0758    0.6941 H         1 <0>         0.1008
     18 H7         -2.6656    0.5482   -0.9924 H         1 <0>         0.0979
     19 H8         -4.6392    3.5819   -0.1846 H         1 <0>         0.0948
     20 H9         -3.6189    2.8065   -1.4232 H         1 <0>         0.0933
     21 H10        -2.6984    4.2863    1.0750 H         1 <0>         0.0902
     22 H11        -2.4390    4.7651   -0.6171 H         1 <0>         0.0980
     23 H12        -4.9284    0.1515    0.7822 H         1 <0>         0.4393
     24 H13        -5.7315    1.5714    0.4587 H         1 <0>         0.4402
     25 N1         -4.9216    1.0012    0.2205 N.4       1 <0>        -0.6443
     26 H14        -4.9717    0.7466   -0.7729 H         1 <0>         0.4377
@<TRIPOS>BOND
     1    1    6 ar
     2    1    2 ar
     3    1   13 1
     4    2    3 ar
     5    2   14 1
     6    3   12 1
     7    3    4 ar
     8    4    5 ar
     9    4    8 1
    10    5    6 ar
    11    5   15 1
    12    6    7 1
    13    7   16 1
    14    8    9 1
    15    8   17 1
    16    8   18 1
    17    9   10 1
    18    9   11 1
    19    9   25 1
    20   11   12 1
    21   11   19 1
    22   11   20 1
    23   12   21 1
    24   12   22 1
    25   23   25 1
    26   24   25 1
    27   25   26 1
@<TRIPOS>MOLECULE
ZINC13759807
   26    27     0     0     0
SMALL
USER_CHARGES
(3S)-3-aminotetralin-6-ol
@<TRIPOS>ATOM
      1 C1          1.8648    1.8234    1.1934 C.ar      1 <0>        -0.1316
      2 C2          3.1199    2.3940    1.1734 C.ar      1 <0>        -0.0951
      3 C3          3.7432    2.6905   -0.0321 C.ar      1 <0>        -0.0957
      4 C4          3.1032    2.4122   -1.2198 C.ar      1 <0>        -0.0760
      5 C5          1.8432    1.8305   -1.2029 C.ar      1 <0>        -0.1402
      6 C6          1.2228    1.5324   -0.0014 C.ar      1 <0>         0.1184
      7 O1         -0.0110    0.9628    0.0073 O.3       1 <0>        -0.4960
      8 C7          3.7134    2.7226   -2.5616 C.3       1 <0>        -0.0930
      9 C8          5.2190    2.9428   -2.4293 C.3       1 <0>         0.0309
     10 H1          5.7075    2.0014   -2.1778 H         1 <0>         0.1452
     11 C9          5.4623    3.9651   -1.3128 C.3       1 <0>        -0.1413
     12 C10         5.1148    3.3112    0.0230 C.3       1 <0>        -0.0771
     13 H2          1.3854    1.6003    2.1350 H         1 <0>         0.1378
     14 H3          3.6215    2.6159    2.1037 H         1 <0>         0.1340
     15 H4          1.3430    1.6084   -2.1339 H         1 <0>         0.1326
     16 H5          0.0021   -0.0041    0.0020 H         1 <0>         0.3990
     17 H6          3.5303    1.8901   -3.2409 H         1 <0>         0.1002
     18 H7          3.2526    3.6238   -2.9661 H         1 <0>         0.0984
     19 H8          4.8288    4.8381   -1.4700 H         1 <0>         0.0938
     20 H9          6.5097    4.2668   -1.3125 H         1 <0>         0.0946
     21 H10         5.1365    4.0660    0.8091 H         1 <0>         0.0981
     22 H11         5.8504    2.5384    0.2464 H         1 <0>         0.0897
     23 H12         5.6073    2.7979   -4.4459 H         1 <0>         0.4391
     24 H13         5.3586    4.3559   -3.9199 H         1 <0>         0.4361
     25 N1          5.7815    3.4582   -3.6900 N.4       1 <0>        -0.6445
     26 H14         6.7948    3.5832   -3.5812 H         1 <0>         0.4426
@<TRIPOS>BOND
     1    1    6 ar
     2    1    2 ar
     3    1   13 1
     4    2    3 ar
     5    2   14 1
     6    3   12 1
     7    3    4 ar
     8    4    5 ar
     9    4    8 1
    10    5    6 ar
    11    5   15 1
    12    6    7 1
    13    7   16 1
    14    8    9 1
    15    8   17 1
    16    8   18 1
    17    9   10 1
    18    9   11 1
    19    9   25 1
    20   11   12 1
    21   11   19 1
    22   11   20 1
    23   12   21 1
    24   12   22 1
    25   23   25 1
    26   24   25 1
    27   25   26 1
@<TRIPOS>MOLECULE
ZINC03870310
   44    45     0     0     0
SMALL
USER_CHARGES

@<TRIPOS>ATOM
      1 C1         -0.1561    1.5042   -0.0060 C.3       1 <0>        -0.1561
      2 C2         -0.1125   -0.0251   -0.0290 C.3       1 <0>        -0.1479
      3 C3          0.6430   -0.4951   -1.2737 C.3       1 <0>        -0.0224
      4 N1          0.8041   -1.9545   -1.2267 N.4       1 <0>        -0.3817
      5 C4         -0.5158   -2.5953   -1.2980 C.3       1 <0>        -0.0190
      6 C5         -1.1525   -2.3019   -2.6580 C.3       1 <0>        -0.1511
      7 C6         -2.5799   -2.8521   -2.6822 C.3       1 <0>        -0.1558
      8 C7          1.6236   -2.3935   -2.3641 C.3       1 <0>         0.0204
      9 H1          1.1119   -2.1588   -3.2975 H         1 <0>         0.1446
     10 C8          1.8651   -3.9048   -2.2736 C.3       1 <0>        -0.1386
     11 C9          2.5070   -4.3692   -3.5793 C.3       1 <0>        -0.0752
     12 C10         3.7030   -3.5165   -3.9141 C.ar      1 <0>        -0.0939
     13 C11         4.6148   -4.0165   -4.8358 C.ar      1 <0>        -0.0950
     14 C12         5.7275   -3.2846   -5.1906 C.ar      1 <0>        -0.1324
     15 C13         5.9392   -2.0362   -4.6230 C.ar      1 <0>         0.1179
     16 C14         5.0320   -1.5393   -3.7031 C.ar      1 <0>        -0.1404
     17 C15         3.9141   -2.2804   -3.3449 C.ar      1 <0>        -0.0729
     18 C16         2.9763   -1.6853   -2.3270 C.3       1 <0>        -0.0926
     19 O1          7.0318   -1.3053   -4.9681 O.3       1 <0>        -0.4960
     20 H2          0.8606    1.8964    0.0163 H         1 <0>         0.0668
     21 H3         -0.6658    1.8665   -0.8988 H         1 <0>         0.0668
     22 H4         -0.6943    1.8390    0.8807 H         1 <0>         0.0775
     23 H5          0.3972   -0.3874    0.8638 H         1 <0>         0.0849
     24 H6         -1.1292   -0.4173   -0.0514 H         1 <0>         0.0866
     25 H7          0.0802   -0.2202   -2.1657 H         1 <0>         0.1321
     26 H8          1.6245   -0.0220   -1.3032 H         1 <0>         0.1323
     27 H9         -0.4039   -3.6724   -1.1740 H         1 <0>         0.1324
     28 H10        -1.1536   -2.2028   -0.5060 H         1 <0>         0.1338
     29 H11        -1.1754   -1.2248   -2.8236 H         1 <0>         0.0850
     30 H12        -0.5662   -2.7780   -3.4439 H         1 <0>         0.0872
     31 H13        -2.5570   -3.9292   -2.5165 H         1 <0>         0.0675
     32 H14        -3.1662   -2.3760   -1.8963 H         1 <0>         0.0665
     33 H15        -3.0335   -2.6430   -3.6511 H         1 <0>         0.0768
     34 H16         2.5325   -4.1206   -1.4393 H         1 <0>         0.0930
     35 H17         0.9157   -4.4202   -2.1276 H         1 <0>         0.0937
     36 H18         2.8234   -5.4071   -3.4750 H         1 <0>         0.0979
     37 H19         1.7765   -4.2960   -4.3849 H         1 <0>         0.0882
     38 H20         4.4502   -4.9880   -5.2780 H         1 <0>         0.1335
     39 H21         6.4317   -3.6811   -5.9070 H         1 <0>         0.1372
     40 H22         5.1953   -0.5679   -3.2603 H         1 <0>         0.1318
     41 H23         2.8338   -0.6268   -2.5443 H         1 <0>         0.0988
     42 H24         3.4108   -1.7923   -1.3331 H         1 <0>         0.0969
     43 H25         6.8898   -0.7182   -5.7232 H         1 <0>         0.3983
     44 H26         1.2584   -2.2151   -0.3644 H         1 <0>         0.4226
@<TRIPOS>BOND
     1    1    2 1
     2    1   20 1
     3    1   21 1
     4    1   22 1
     5    2    3 1
     6    2   23 1
     7    2   24 1
     8    3    4 1
     9    3   25 1
    10    3   26 1
    11    4    5 1
    12    4    8 1
    13    4   44 1
    14    5    6 1
    15    5   27 1
    16    5   28 1
    17    6    7 1
    18    6   29 1
    19    6   30 1
    20    7   31 1
    21    7   32 1
    22    7   33 1
    23    8    9 1
    24    8   18 1
    25    8   10 1
    26   10   11 1
    27   10   34 1
    28   10   35 1
    29   11   12 1
    30   11   36 1
    31   11   37 1
    32   12   17 ar
    33   12   13 ar
    34   13   14 ar
    35   13   38 1
    36   14   15 ar
    37   14   39 1
    38   15   16 ar
    39   15   19 1
    40   16   17 ar
    41   16   40 1
    42   17   18 1
    43   18   41 1
    44   18   42 1
    45   19   43 1
@<TRIPOS>MOLECULE
ZINC13759798
   35    36     0     0     0
SMALL
USER_CHARGES
(2R)-2-propylaminotetralin-5-ol
@<TRIPOS>ATOM
      1 C1          6.8963    1.7154   -6.9175 C.3       1 <0>        -0.1571
      2 C2          5.5867    2.4268   -6.5715 C.3       1 <0>        -0.1514
      3 C3          5.0274    1.8589   -5.2655 C.3       1 <0>        -0.0075
      4 C4          3.2028    2.0214   -3.6822 C.3       1 <0>         0.0284
      5 H1          3.4150    0.9556   -3.5978 H         1 <0>         0.1432
      6 C5          1.6865    2.2487   -3.6688 C.3       1 <0>        -0.1384
      7 C6          1.0965    1.4912   -2.4810 C.3       1 <0>        -0.0734
      8 C7          1.8398    1.8291   -1.2152 C.ar      1 <0>        -0.1110
      9 C8          3.0887    2.4071   -1.2208 C.ar      1 <0>        -0.0780
     10 C9          3.7241    2.6851   -0.0172 C.ar      1 <0>        -0.1202
     11 C10         3.1136    2.3918    1.1852 C.ar      1 <0>        -0.0942
     12 C11         1.8565    1.8195    1.1960 C.ar      1 <0>        -0.1321
     13 C12         1.2228    1.5324   -0.0014 C.ar      1 <0>         0.1139
     14 O1         -0.0110    0.9628    0.0073 O.3       1 <0>        -0.4943
     15 C13         3.8114    2.7628   -2.4937 C.3       1 <0>        -0.0910
     16 H2          7.6175    1.8714   -6.1152 H         1 <0>         0.0671
     17 H3          6.7097    0.6481   -7.0358 H         1 <0>         0.0671
     18 H4          7.2947    2.1200   -7.8479 H         1 <0>         0.0778
     19 H5          4.8655    2.2708   -7.3738 H         1 <0>         0.0864
     20 H6          5.7733    3.4942   -6.4531 H         1 <0>         0.0863
     21 H7          5.7486    2.0149   -4.4632 H         1 <0>         0.1300
     22 H8          4.8409    0.7916   -5.3838 H         1 <0>         0.1308
     23 H9          1.2510    1.8749   -4.5955 H         1 <0>         0.0943
     24 H10         1.4751    3.3131   -3.5670 H         1 <0>         0.0936
     25 H11         1.1701    0.4195   -2.6658 H         1 <0>         0.0861
     26 H12         0.0476    1.7643   -2.3656 H         1 <0>         0.1027
     27 H13         4.7056    3.1356   -0.0225 H         1 <0>         0.1290
     28 H14         3.6157    2.6129    2.1154 H         1 <0>         0.1359
     29 H15         1.3716    1.5931    2.1341 H         1 <0>         0.1374
     30 H16         0.0021   -0.0041    0.0020 H         1 <0>         0.3962
     31 H17         4.8622    2.4887   -2.3990 H         1 <0>         0.0989
     32 H18         3.7346    3.8369   -2.6625 H         1 <0>         0.0981
     33 N1          3.7656    2.5497   -4.9392 N.4       1 <0>        -0.5179
     34 H19         3.0921    2.4023   -5.7001 H         1 <0>         0.4328
     35 H20         3.9473    3.5547   -4.8329 H         1 <0>         0.4307
@<TRIPOS>BOND
     1    1    2 1
     2    1   16 1
     3    1   17 1
     4    1   18 1
     5    2    3 1
     6    2   19 1
     7    2   20 1
     8    3   21 1
     9    3   22 1
    10    3   33 1
    11    4    5 1
    12    4   15 1
    13    4    6 1
    14    4   33 1
    15    6    7 1
    16    6   23 1
    17    6   24 1
    18    7    8 1
    19    7   25 1
    20    7   26 1
    21    8   13 ar
    22    8    9 ar
    23    9   10 ar
    24    9   15 1
    25   10   11 ar
    26   10   27 1
    27   11   12 ar
    28   11   28 1
    29   12   13 ar
    30   12   29 1
    31   13   14 1
    32   14   30 1
    33   15   31 1
    34   15   32 1
    35   33   34 1
    36   33   35 1
@<TRIPOS>MOLECULE
ZINC13759799
   35    36     0     0     0
SMALL
USER_CHARGES
(2S)-2-propylaminotetralin-5-ol
@<TRIPOS>ATOM
      1 C1         -0.0366    1.0992   -2.4903 C.3       1 <0>        -0.1572
      2 C2         -0.7527    1.5927   -1.2315 C.3       1 <0>        -0.1512
      3 C3         -0.0127    1.0858    0.0080 C.3       1 <0>        -0.0078
      4 C4         -0.0162    1.0911    2.4293 C.3       1 <0>         0.0280
      5 H1          1.0591    1.0571    2.2542 H         1 <0>         0.1438
      6 C5         -0.3202    2.0415    3.5935 C.3       1 <0>        -0.1391
      7 C6          0.5854    1.6717    4.7664 C.3       1 <0>        -0.0699
      8 C7          0.4976    0.1968    5.0594 C.ar      1 <0>        -0.1107
      9 C8         -0.0038   -0.7101    4.1540 C.ar      1 <0>        -0.0781
     10 C9         -0.0494   -2.0588    4.4835 C.ar      1 <0>        -0.1201
     11 C10         0.3991   -2.4986    5.7123 C.ar      1 <0>        -0.0942
     12 C11         0.8987   -1.5915    6.6264 C.ar      1 <0>        -0.1321
     13 C12         0.9483   -0.2463    6.3014 C.ar      1 <0>         0.1137
     14 O1          1.4405    0.6474    7.1992 O.3       1 <0>        -0.4942
     15 C13        -0.5222   -0.3015    2.7999 C.3       1 <0>        -0.0907
     16 H2         -0.5637    1.4603   -3.3734 H         1 <0>         0.0778
     17 H3          0.9860    1.4765   -2.4981 H         1 <0>         0.0672
     18 H4         -0.0218    0.0093   -2.4963 H         1 <0>         0.0671
     19 H5         -1.7753    1.2154   -1.2238 H         1 <0>         0.0861
     20 H6         -0.7675    2.6825   -1.2255 H         1 <0>         0.0863
     21 H7          0.0021   -0.0041    0.0020 H         1 <0>         0.1301
     22 H8          1.0099    1.4631    0.0003 H         1 <0>         0.1311
     23 H9         -0.1247    3.0696    3.2887 H         1 <0>         0.0943
     24 H10        -1.3642    1.9379    3.8889 H         1 <0>         0.0929
     25 H11         1.6157    1.9284    4.5199 H         1 <0>         0.0904
     26 H12         0.2774    2.2324    5.6490 H         1 <0>         0.0958
     27 H13        -0.4394   -2.7704    3.7708 H         1 <0>         0.1290
     28 H14         0.3592   -3.5494    5.9588 H         1 <0>         0.1360
     29 H15         1.2494   -1.9299    7.5901 H         1 <0>         0.1374
     30 H16         0.7726    1.0172    7.7927 H         1 <0>         0.3958
     31 H17        -1.6120   -0.2947    2.8192 H         1 <0>         0.0981
     32 H18        -0.1810   -1.0185    2.0531 H         1 <0>         0.0989
     33 N1         -0.7091    1.5657    1.2166 N.4       1 <0>        -0.5177
     34 H19        -1.6724    1.2103    1.2160 H         1 <0>         0.4304
     35 H20        -0.7230    2.5923    1.2143 H         1 <0>         0.4327
@<TRIPOS>BOND
     1    1    2 1
     2    1   16 1
     3    1   17 1
     4    1   18 1
     5    2    3 1
     6    2   19 1
     7    2   20 1
     8    3   21 1
     9    3   22 1
    10    3   33 1
    11    4    5 1
    12    4   15 1
    13    4    6 1
    14    4   33 1
    15    6    7 1
    16    6   23 1
    17    6   24 1
    18    7    8 1
    19    7   25 1
    20    7   26 1
    21    8   13 ar
    22    8    9 ar
    23    9   10 ar
    24    9   15 1
    25   10   11 ar
    26   10   27 1
    27   11   12 ar
    28   11   28 1
    29   12   13 ar
    30   12   29 1
    31   13   14 1
    32   14   30 1
    33   15   31 1
    34   15   32 1
    35   33   34 1
    36   33   35 1
@<TRIPOS>MOLECULE
ZINC05833412
   48    50     0     0     0
SMALL
USER_CHARGES
6-[propyl-[2-(3-thienyl)ethyl]amino]tetralin-1-ol
@<TRIPOS>ATOM
      1 C1         -3.2411    1.0503   -1.2685 C.3       1 <0>        -0.1554
      2 C2         -2.9013   -0.4308   -1.0900 C.3       1 <0>        -0.1488
      3 C3         -1.7577   -0.5741   -0.0838 C.3       1 <0>        -0.0135
      4 C4         -0.9040   -2.6338   -1.0280 C.3       1 <0>        -0.0109
      5 C5          0.5656   -2.2251   -1.1475 C.3       1 <0>        -0.0826
      6 C6          1.1484   -2.8088   -2.4088 C.2       1 <0>        -0.1381
      7 C7          1.0990   -2.1032   -3.5963 C.2       1 <0>        -0.1665
      8 C8          1.6324   -2.6569   -4.7126 C.2       1 <0>        -0.1593
      9 S1          2.2302   -4.2231   -4.0985 S.3       1 <0>         0.0807
     10 C9          1.7337   -4.0313   -2.3944 C.2       1 <0>        -0.1698
     11 C10        -2.7170   -2.6972    0.5756 C.3       1 <0>         0.0270
     12 H1         -3.4289   -2.7158   -0.2496 H         1 <0>         0.1442
     13 C11        -3.3385   -1.9763    1.7777 C.3       1 <0>        -0.1400
     14 C12        -4.7199   -2.5740    2.0365 C.3       1 <0>        -0.0722
     15 C13        -4.6408   -4.0760    2.1181 C.ar      1 <0>        -0.1099
     16 C14        -3.5685   -4.7891    1.6330 C.ar      1 <0>        -0.0758
     17 C15        -3.5613   -6.1746    1.7320 C.ar      1 <0>        -0.1202
     18 C16        -4.6170   -6.8439    2.3169 C.ar      1 <0>        -0.0944
     19 C17        -5.6934   -6.1321    2.8097 C.ar      1 <0>        -0.1328
     20 C18        -5.7062   -4.7510    2.7107 C.ar      1 <0>         0.1139
     21 O1         -6.7648   -4.0493    3.1944 O.3       1 <0>        -0.4943
     22 C19        -2.3762   -4.1259    0.9944 C.3       1 <0>        -0.0926
     23 H2         -4.0558    1.1524   -1.9853 H         1 <0>         0.0767
     24 H3         -3.5453    1.4713   -0.3102 H         1 <0>         0.0668
     25 H4         -2.3640    1.5824   -1.6371 H         1 <0>         0.0669
     26 H5         -3.7784   -0.9629   -0.7214 H         1 <0>         0.0858
     27 H6         -2.5971   -0.8518   -2.0483 H         1 <0>         0.0851
     28 H7         -0.8606   -0.1013   -0.4837 H         1 <0>         0.1308
     29 H8         -2.0356   -0.0918    0.8533 H         1 <0>         0.1315
     30 H9         -0.9731   -3.7174   -0.9324 H         1 <0>         0.1315
     31 H10        -1.4440   -2.3125   -1.9187 H         1 <0>         0.1340
     32 H11         0.6387   -1.1381   -1.1827 H         1 <0>         0.0924
     33 H12         1.1179   -2.5987   -0.2853 H         1 <0>         0.0944
     34 H13         0.6426   -1.1251   -3.6341 H         1 <0>         0.1350
     35 H14         1.6825   -2.2552   -5.7139 H         1 <0>         0.1914
     36 H15         1.8648   -4.7129   -1.5670 H         1 <0>         0.1883
     37 H16        -2.7078   -2.1158    2.6556 H         1 <0>         0.0925
     38 H17        -3.4332   -0.9127    1.5591 H         1 <0>         0.0954
     39 H18        -5.1103   -2.1832    2.9762 H         1 <0>         0.1020
     40 H19        -5.3909   -2.2931    1.2247 H         1 <0>         0.0848
     41 H20        -2.7213   -6.7338    1.3471 H         1 <0>         0.1286
     42 H21        -4.6018   -7.9214    2.3887 H         1 <0>         0.1355
     43 H22        -6.5215   -6.6506    3.2700 H         1 <0>         0.1369
     44 H23        -7.4701   -3.9063    2.5486 H         1 <0>         0.3956
     45 H24        -2.0756   -4.6961    0.1154 H         1 <0>         0.0991
     46 H25        -1.5519   -4.1045    1.7073 H         1 <0>         0.0972
     47 N1         -1.4749   -2.0008    0.1795 N.4       1 <0>        -0.3929
     48 H26        -0.7948   -2.0701    0.9456 H         1 <0>         0.4262
@<TRIPOS>BOND
     1    1    2 1
     2    1   23 1
     3    1   24 1
     4    1   25 1
     5    2    3 1
     6    2   26 1
     7    2   27 1
     8    3   28 1
     9    3   29 1
    10    3   47 1
    11    4    5 1
    12    4   30 1
    13    4   31 1
    14    4   47 1
    15    5    6 1
    16    5   32 1
    17    5   33 1
    18    6   10 2
    19    6    7 1
    20    7    8 2
    21    7   34 1
    22    8    9 1
    23    8   35 1
    24    9   10 1
    25   10   36 1
    26   11   12 1
    27   11   22 1
    28   11   13 1
    29   11   47 1
    30   13   14 1
    31   13   37 1
    32   13   38 1
    33   14   15 1
    34   14   39 1
    35   14   40 1
    36   15   20 ar
    37   15   16 ar
    38   16   17 ar
    39   16   22 1
    40   17   18 ar
    41   17   41 1
    42   18   19 ar
    43   18   42 1
    44   19   20 ar
    45   19   43 1
    46   20   21 1
    47   21   44 1
    48   22   45 1
    49   22   46 1
    50   47   48 1
@<TRIPOS>MOLECULE
ZINC05833419
   48    50     0     0     0
SMALL
USER_CHARGES
6-[propyl-[2-(3-thienyl)ethyl]amino]tetralin-1-ol
@<TRIPOS>ATOM
      1 C1          1.2986    4.0731   -7.6646 C.3       1 <0>        -0.1553
      2 C2          1.9870    4.0603   -6.2983 C.3       1 <0>        -0.1482
      3 C3          2.9642    2.8850   -6.2305 C.3       1 <0>        -0.0155
      4 C4          4.5731    4.0766   -4.8688 C.3       1 <0>        -0.0098
      5 C5          5.6408    3.9716   -5.9596 C.3       1 <0>        -0.0821
      6 C6          6.6342    5.0934   -5.7997 C.2       1 <0>        -0.1385
      7 C7          7.7579    4.9283   -5.0119 C.2       1 <0>        -0.1669
      8 C8          8.6317    5.9573   -4.8892 C.2       1 <0>        -0.1592
      9 S1          7.8704    7.2115   -5.9063 S.3       1 <0>         0.0808
     10 C9          6.4421    6.2776   -6.4308 C.2       1 <0>        -0.1696
     11 C10         2.7349    2.9001   -3.8202 C.3       1 <0>         0.0270
     12 H1          2.1076    3.7908   -3.8549 H         1 <0>         0.1446
     13 C11         1.8567    1.6456   -3.8979 C.3       1 <0>        -0.1399
     14 C12         0.7389    1.7751   -2.8652 C.3       1 <0>        -0.0685
     15 C13         1.3047    2.1188   -1.5122 C.ar      1 <0>        -0.1101
     16 C14         2.5725    2.6277   -1.3465 C.ar      1 <0>        -0.0757
     17 C15         3.0287    2.9385   -0.0718 C.ar      1 <0>        -0.1202
     18 C16         2.2248    2.7376    1.0318 C.ar      1 <0>        -0.0944
     19 C17         0.9513    2.2274    0.8705 C.ar      1 <0>        -0.1327
     20 C18         0.4933    1.9133   -0.3980 C.ar      1 <0>         0.1135
     21 O1         -0.7575    1.4066   -0.5579 O.3       1 <0>        -0.4943
     22 C19         3.5076    2.8662   -2.5032 C.3       1 <0>        -0.0927
     23 H2          0.6024    4.9104   -7.7129 H         1 <0>         0.0768
     24 H3          2.0488    4.1787   -8.4484 H         1 <0>         0.0664
     25 H4          0.7543    3.1394   -7.8060 H         1 <0>         0.0671
     26 H5          1.2368    3.9547   -5.5145 H         1 <0>         0.0861
     27 H6          2.5313    4.9940   -6.1568 H         1 <0>         0.0843
     28 H7          3.6822    2.9619   -7.0470 H         1 <0>         0.1322
     29 H8          2.4131    1.9487   -6.3184 H         1 <0>         0.1310
     30 H9          3.9961    4.9902   -5.0118 H         1 <0>         0.1335
     31 H10         5.0538    4.0998   -3.8909 H         1 <0>         0.1316
     32 H11         6.1559    3.0149   -5.8730 H         1 <0>         0.0926
     33 H12         5.1677    4.0421   -6.9391 H         1 <0>         0.0945
     34 H13         7.9369    3.9935   -4.5015 H         1 <0>         0.1355
     35 H14         9.5499    6.0059   -4.3227 H         1 <0>         0.1914
     36 H15         5.6341    6.5784   -7.0812 H         1 <0>         0.1877
     37 H16         1.4264    1.5600   -4.8957 H         1 <0>         0.0943
     38 H17         2.4578    0.7627   -3.6804 H         1 <0>         0.0919
     39 H18         0.1991    0.8305   -2.7995 H         1 <0>         0.0951
     40 H19         0.0507    2.5607   -3.1771 H         1 <0>         0.0892
     41 H20         4.0225    3.3410    0.0569 H         1 <0>         0.1285
     42 H21         2.5888    2.9830    2.0185 H         1 <0>         0.1354
     43 H22         0.3170    2.0705    1.7305 H         1 <0>         0.1369
     44 H23        -0.7984    0.4411   -0.5214 H         1 <0>         0.3954
     45 H24         4.0188    3.8185   -2.3618 H         1 <0>         0.0993
     46 H25         4.2456    2.0648   -2.5399 H         1 <0>         0.0967
     47 N1          3.6937    2.8910   -4.9450 N.4       1 <0>        -0.3924
     48 H26         4.2704    2.0436   -4.8849 H         1 <0>         0.4261
@<TRIPOS>BOND
     1    1    2 1
     2    1   23 1
     3    1   24 1
     4    1   25 1
     5    2    3 1
     6    2   26 1
     7    2   27 1
     8    3   28 1
     9    3   29 1
    10    3   47 1
    11    4    5 1
    12    4   30 1
    13    4   31 1
    14    4   47 1
    15    5    6 1
    16    5   32 1
    17    5   33 1
    18    6   10 2
    19    6    7 1
    20    7    8 2
    21    7   34 1
    22    8    9 1
    23    8   35 1
    24    9   10 1
    25   10   36 1
    26   11   12 1
    27   11   22 1
    28   11   13 1
    29   11   47 1
    30   13   14 1
    31   13   37 1
    32   13   38 1
    33   14   15 1
    34   14   39 1
    35   14   40 1
    36   15   20 ar
    37   15   16 ar
    38   16   17 ar
    39   16   22 1
    40   17   18 ar
    41   17   41 1
    42   18   19 ar
    43   18   42 1
    44   19   20 ar
    45   19   43 1
    46   20   21 1
    47   21   44 1
    48   22   45 1
    49   22   46 1
    50   47   48 1
