@<TRIPOS>MOLECULE
ZINC01550477
   67    71     0     0     0
SMALL
USER_CHARGES
N-[3-chloro-4-[(3-fluorophenyl)methoxy]phenyl]-6-[5-(2-methylsulfonylethylaminomethyl)-2-furyl]-quinazolin-4-amine
@<TRIPOS>ATOM
      1 C1         -7.2164   11.0372    3.0195 C.3       1 <0>        -0.6448
      2 S1         -6.7571   10.7093    1.2955 S.o2      1 <0>         2.4326
      3 O1         -5.7431   11.6303    0.9175 O.2       1 <0>        -0.9163
      4 O2         -7.9456   10.6335    0.5203 O.2       1 <0>        -0.9157
      5 C2         -6.0233    9.0527    1.3844 C.3       1 <0>        -0.6787
      6 C3         -5.5746    8.6180   -0.0122 C.3       1 <0>         0.0096
      7 C4         -4.5371    6.8253   -1.2661 C.3       1 <0>         0.0949
      8 C5         -3.9345    5.4487   -1.1526 C.2       1 <0>        -0.1220
      9 C6         -4.6045    4.2857   -1.2709 C.2       1 <0>        -0.1227
     10 C7         -3.6659    3.2489   -1.0969 C.2       1 <0>        -0.2041
     11 C8         -2.4620    3.8428   -0.8796 C.2       1 <0>         0.0998
     12 O3         -2.6414    5.1774   -0.9104 O.3       1 <0>        -0.1656
     13 C9         -1.1810    3.1454   -0.6443 C.ar      1 <0>        -0.0604
     14 C10        -1.1417    1.7409   -0.6382 C.ar      1 <0>        -0.0521
     15 C11         0.0237    1.0763   -0.4177 C.ar      1 <0>        -0.0937
     16 C12         1.2099    1.7947   -0.2040 C.ar      1 <0>         0.2083
     17 C13         1.1822    3.2116   -0.2139 C.ar      1 <0>        -0.1977
     18 C14        -0.0232    3.8817   -0.4358 C.ar      1 <0>        -0.0338
     19 C15         2.3978    3.9066    0.0047 C.ar      1 <0>         0.4722
     20 N1          3.4987    3.1947    0.2074 N.ar      1 <0>        -0.5774
     21 C16         3.4754    1.8717    0.2076 C.ar      1 <0>         0.3649
     22 N2          2.3802    1.1762    0.0109 N.ar      1 <0>        -0.5439
     23 N3          2.4351    5.2852    0.0073 N.pl3     1 <0>        -0.6315
     24 C17         3.6620    5.9520    0.1043 C.ar      1 <0>         0.1153
     25 C18         3.7486    7.1497    0.8022 C.ar      1 <0>        -0.0952
     26 C19         4.9602    7.8046    0.9022 C.ar      1 <0>        -0.1798
     27 C20         6.0888    7.2728    0.2963 C.ar      1 <0>         0.1358
     28 C21         6.0027    6.0786   -0.4059 C.ar      1 <0>        -0.0497
     29 C22         4.7920    5.4192   -0.5019 C.ar      1 <0>        -0.0586
     30 Cl1         7.4158    5.4135   -1.1639 Cl        1 <0>        -0.0401
     31 O4          7.2805    7.9214    0.3906 O.3       1 <0>        -0.2928
     32 C23         7.2964    9.1452    1.1283 C.3       1 <0>         0.1010
     33 C24         8.6911    9.7160    1.1245 C.ar      1 <0>        -0.0726
     34 C25         9.0796   10.5846    0.1214 C.ar      1 <0>        -0.1044
     35 C26        10.3585   11.1089    0.1166 C.ar      1 <0>        -0.0912
     36 C27        11.2506   10.7653    1.1149 C.ar      1 <0>        -0.1400
     37 C28        10.8628    9.8957    2.1198 C.ar      1 <0>         0.0987
     38 C29         9.5794    9.3754    2.1266 C.ar      1 <0>        -0.1290
     39 F1         11.7337    9.5594    3.0963 F         1 <0>        -0.1351
     40 H1         -6.3247   11.0049    3.6455 H         1 <0>         0.1345
     41 H2         -7.6757   12.0230    3.0919 H         1 <0>         0.1448
     42 H3         -7.9248   10.2806    3.3569 H         1 <0>         0.1349
     43 H4         -6.7627    8.3477    1.7643 H         1 <0>         0.1573
     44 H5         -5.1626    9.0720    2.0529 H         1 <0>         0.1564
     45 H6         -4.8352    9.3230   -0.3922 H         1 <0>         0.1496
     46 H7         -6.4354    8.5988   -0.6807 H         1 <0>         0.1509
     47 H8         -3.7904    7.5178   -1.6547 H         1 <0>         0.1492
     48 H9         -5.3906    6.7936   -1.9433 H         1 <0>         0.1621
     49 H10        -5.6609    4.1699   -1.4629 H         1 <0>         0.1659
     50 H11        -3.8645    2.1878   -1.1292 H         1 <0>         0.1672
     51 H12        -2.0502    1.1817   -0.8068 H         1 <0>         0.1429
     52 H13         0.0373   -0.0036   -0.4115 H         1 <0>         0.1546
     53 H14        -0.0537    4.9612   -0.4455 H         1 <0>         0.1311
     54 H15         4.3999    1.3401    0.3779 H         1 <0>         0.2050
     55 H16         1.6111    5.7928   -0.0582 H         1 <0>         0.4195
     56 H17         2.8691    7.5668    1.2701 H         1 <0>         0.1330
     57 H18         5.0280    8.7339    1.4483 H         1 <0>         0.1439
     58 H19         4.7246    4.4902   -1.0485 H         1 <0>         0.1514
     59 H20         6.6114    9.8566    0.6669 H         1 <0>         0.0789
     60 H21         6.9846    8.9545    2.1552 H         1 <0>         0.0774
     61 H22         8.3831   10.8540   -0.6588 H         1 <0>         0.1323
     62 H23        10.6608   11.7876   -0.6673 H         1 <0>         0.1388
     63 H24        12.2497   11.1753    1.1111 H         1 <0>         0.1403
     64 H25         9.2743    8.7004    2.9126 H         1 <0>         0.1379
     65 N4         -4.9794    7.2708    0.0688 N.4       1 <0>        -0.5165
     66 H26        -5.6793    6.6125    0.4308 H         1 <0>         0.4365
     67 H27        -4.1720    7.2947    0.7026 H         1 <0>         0.4363
@<TRIPOS>BOND
     1    1    2 1
     2    1   40 1
     3    1   41 1
     4    1   42 1
     5    2    3 2
     6    2    4 2
     7    2    5 1
     8    5    6 1
     9    5   43 1
    10    5   44 1
    11    6   45 1
    12    6   46 1
    13    6   65 1
    14    7    8 1
    15    7   47 1
    16    7   48 1
    17    7   65 1
    18    8   12 1
    19    8    9 2
    20    9   10 1
    21    9   49 1
    22   10   11 2
    23   10   50 1
    24   11   12 1
    25   11   13 1
    26   13   18 ar
    27   13   14 ar
    28   14   15 ar
    29   14   51 1
    30   15   16 ar
    31   15   52 1
    32   16   22 ar
    33   16   17 ar
    34   17   18 ar
    35   17   19 ar
    36   18   53 1
    37   19   20 ar
    38   19   23 1
    39   20   21 ar
    40   21   22 ar
    41   21   54 1
    42   23   24 1
    43   23   55 1
    44   24   29 ar
    45   24   25 ar
    46   25   26 ar
    47   25   56 1
    48   26   27 ar
    49   26   57 1
    50   27   28 ar
    51   27   31 1
    52   28   29 ar
    53   28   30 1
    54   29   58 1
    55   31   32 1
    56   32   33 1
    57   32   59 1
    58   32   60 1
    59   33   38 ar
    60   33   34 ar
    61   34   35 ar
    62   34   61 1
    63   35   36 ar
    64   35   62 1
    65   36   37 ar
    66   36   63 1
    67   37   38 ar
    68   37   39 1
    69   38   64 1
    70   65   66 1
    71   65   67 1
@<TRIPOS>MOLECULE
ZINC01546066
   52    54     0     0     0
SMALL
USER_CHARGES

@<TRIPOS>ATOM
      1 C1          1.3190    1.4185    0.8998 C.3       1 <0>         0.0308
      2 O1          1.1221    0.0121    0.7412 O.3       1 <0>        -0.3842
      3 C2          1.6336   -0.7719    1.8209 C.3       1 <0>         0.0626
      4 C3          1.3686   -2.2534    1.5456 C.3       1 <0>         0.0560
      5 O2          2.1105   -2.6643    0.3955 O.3       1 <0>        -0.2877
      6 C4          1.9861   -3.9631    0.0122 C.ar      1 <0>         0.1163
      7 C5          1.1727   -4.8014    0.7206 C.ar      1 <0>        -0.1508
      8 C6          1.0439   -6.1386    0.3269 C.ar      1 <0>        -0.1822
      9 C7          1.7562   -6.6146   -0.8018 C.ar      1 <0>         0.2018
     10 C8          2.5842   -5.7378   -1.5132 C.ar      1 <0>        -0.1867
     11 C9          2.6894   -4.4253   -1.1088 C.ar      1 <0>         0.1692
     12 O3          3.4878   -3.5711   -1.8004 O.3       1 <0>        -0.2847
     13 C10         4.1782   -4.1019   -2.9333 C.3       1 <0>         0.0544
     14 C11         5.0210   -3.0002   -3.5791 C.3       1 <0>         0.0626
     15 O4          6.0448   -2.5894   -2.6708 O.3       1 <0>        -0.3848
     16 C12         6.8933   -1.5581   -3.1792 C.3       1 <0>         0.0309
     17 N1          1.6146   -7.9009   -1.1583 N.ar      1 <0>        -0.5426
     18 C13         0.8310   -8.6986   -0.4725 C.ar      1 <0>         0.3422
     19 N2          0.1465   -8.2987    0.5874 N.ar      1 <0>        -0.5807
     20 C14         0.2146   -7.0483    1.0253 C.ar      1 <0>         0.4641
     21 N3         -0.5043   -6.6451    2.1328 N.pl3     1 <0>        -0.6417
     22 C15        -1.2223   -7.5837    2.8797 C.ar      1 <0>         0.1534
     23 C16        -2.4417   -7.2339    3.4483 C.ar      1 <0>        -0.1365
     24 C17        -3.1548   -8.1581    4.1879 C.ar      1 <0>        -0.0976
     25 C18        -2.6612   -9.4349    4.3666 C.ar      1 <0>        -0.1098
     26 C19        -1.4382   -9.7960    3.7995 C.ar      1 <0>         0.0290
     27 C20        -0.7210   -8.8652    3.0488 C.ar      1 <0>        -0.0846
     28 C21        -0.9239  -11.1197    3.9839 C.1       1 <0>        -0.1518
     29 C22        -0.5023  -12.2049    4.1351 C.1       1 <0>        -0.1689
     30 H1          2.3858    1.6300    0.9737 H         1 <0>         0.0438
     31 H2          0.9034    1.9430    0.0394 H         1 <0>         0.0882
     32 H3          0.8182    1.7554    1.8074 H         1 <0>         0.0421
     33 H4          2.7069   -0.6059    1.9138 H         1 <0>         0.0642
     34 H5          1.1392   -0.4804    2.7476 H         1 <0>         0.0738
     35 H6          1.6782   -2.8442    2.4078 H         1 <0>         0.0797
     36 H7          0.3045   -2.4047    1.3647 H         1 <0>         0.0731
     37 H8          0.6320   -4.4344    1.5804 H         1 <0>         0.1376
     38 H9          3.1329   -6.0870   -2.3754 H         1 <0>         0.1546
     39 H10         4.8282   -4.9164   -2.6138 H         1 <0>         0.0783
     40 H11         3.4545   -4.4770   -3.6569 H         1 <0>         0.0849
     41 H12         5.4773   -3.3804   -4.4931 H         1 <0>         0.0752
     42 H13         4.3841   -2.1485   -3.8181 H         1 <0>         0.0638
     43 H14         6.2953   -0.6764   -3.4098 H         1 <0>         0.0434
     44 H15         7.6433   -1.3027   -2.4306 H         1 <0>         0.0879
     45 H16         7.3884   -1.9084   -4.0848 H         1 <0>         0.0424
     46 H17         0.7401   -9.7278   -0.7869 H         1 <0>         0.1966
     47 H18        -0.5113   -5.7106    2.3927 H         1 <0>         0.4197
     48 H19        -2.8329   -6.2365    3.3119 H         1 <0>         0.1281
     49 H20        -4.1012   -7.8805    4.6278 H         1 <0>         0.1331
     50 H21        -3.2213  -10.1542    4.9456 H         1 <0>         0.1284
     51 H22         0.2239   -9.1405    2.6039 H         1 <0>         0.1386
     52 H23        -0.1252  -13.1754    4.2703 H         1 <0>         0.2249
@<TRIPOS>BOND
     1    1    2 1
     2    1   30 1
     3    1   31 1
     4    1   32 1
     5    2    3 1
     6    3    4 1
     7    3   33 1
     8    3   34 1
     9    4    5 1
    10    4   35 1
    11    4   36 1
    12    5    6 1
    13    6   11 ar
    14    6    7 ar
    15    7    8 ar
    16    7   37 1
    17    8   20 ar
    18    8    9 ar
    19    9   10 ar
    20    9   17 ar
    21   10   11 ar
    22   10   38 1
    23   11   12 1
    24   12   13 1
    25   13   14 1
    26   13   39 1
    27   13   40 1
    28   14   15 1
    29   14   41 1
    30   14   42 1
    31   15   16 1
    32   16   43 1
    33   16   44 1
    34   16   45 1
    35   17   18 ar
    36   18   19 ar
    37   18   46 1
    38   19   20 ar
    39   20   21 1
    40   21   22 1
    41   21   47 1
    42   22   27 ar
    43   22   23 ar
    44   23   24 ar
    45   23   48 1
    46   24   25 ar
    47   24   49 1
    48   25   26 ar
    49   25   50 1
    50   26   27 ar
    51   26   28 1
    52   27   51 1
    53   28   29 3
    54   29   52 1
@<TRIPOS>MOLECULE
ZINC49792055
   85    86     0     0     0
SMALL
USER_CHARGES

@<TRIPOS>ATOM
      1 C1         -1.2800    1.7819   -0.9304 C.3       1 <0>        -0.1391
      2 C2         -0.9342    0.2901   -1.0056 C.3       1 <0>        -0.1018
      3 H1         -1.7564   -0.2918   -0.6095 H         1 <0>         0.0901
      4 C3         -0.6725   -0.0847   -2.4661 C.3       1 <0>        -0.1300
      5 C4         -1.9444   -0.4896   -3.1987 C.3       1 <0>         0.1043
      6 H2         -2.1341    0.2297   -4.0017 H         1 <0>         0.0908
      7 C5         -1.7814   -1.8802   -3.8197 C.3       1 <0>         0.0765
      8 H3         -1.8067   -2.6341   -3.0359 H         1 <0>         0.0685
      9 C6         -2.9237   -2.1388   -4.8110 C.3       1 <0>        -0.0878
     10 H4         -3.4940   -1.2245   -4.9340 H         1 <0>         0.0888
     11 C7         -3.7772   -3.2720   -4.3216 C.2       1 <0>        -0.1476
     12 C8         -5.0549   -3.1792   -4.0657 C.2       1 <0>        -0.1043
     13 C9         -5.7902   -4.3986   -3.5505 C.3       1 <0>         0.1378
     14 H5         -5.5244   -5.2590   -4.1609 H         1 <0>         0.0978
     15 C10        -5.3940   -4.6630   -2.0950 C.3       1 <0>         0.1047
     16 H6         -4.9838   -5.6742   -2.0162 H         1 <0>         0.0918
     17 C11        -6.5918   -4.5383   -1.1944 C.2       1 <0>        -0.1246
     18 C12        -6.4935   -4.0910    0.0581 C.2       1 <0>        -0.1225
     19 C13        -5.2151   -3.7314    0.6390 C.2       1 <0>        -0.0260
     20 C14        -5.0502   -2.6929    1.4839 C.2       1 <0>        -0.1720
     21 C15        -3.6922   -2.4189    1.9679 C.2       1 <0>         0.5236
     22 O1         -2.8544   -3.2892    1.7711 O.2       1 <0>        -0.4923
     23 N1         -3.3563   -1.3225    2.6091 N.2       1 <0>        -0.5245
     24 C16        -2.2518   -0.6353    2.4375 C.2       1 <0>         0.2771
     25 C17        -2.0167    0.4867    3.2672 C.2       1 <0>        -0.2432
     26 C18        -0.9035    1.2487    3.1110 C.2       1 <0>         0.1735
     27 O2         -0.7219    2.3251    3.9094 O.3       1 <0>        -0.4523
     28 C19         0.1168    0.9303    2.1051 C.2       1 <0>         0.1840
     29 C20         0.0444   -0.2995    1.2586 C.3       1 <0>        -0.0682
     30 C21         0.3419    0.0300   -0.1968 C.3       1 <0>        -0.1009
     31 C22        -1.2687   -1.0085    1.3983 C.2       1 <0>         0.3476
     32 O3         -1.5103   -1.9075    0.6284 O.2       1 <0>        -0.3765
     33 N2          1.1166    1.7362    1.9613 N.2       1 <0>        -0.4419
     34 C23         1.2343    2.9178    2.8193 C.3       1 <0>         0.0612
     35 C24         2.4711    3.6917    2.4416 C.2       1 <0>        -0.1455
     36 C25         2.3795    4.9602    2.1276 C.2       1 <0>        -0.1802
     37 C26        -6.2079   -1.8390    1.9141 C.3       1 <0>        -0.1050
     38 O4         -4.3861   -3.7198   -1.7241 O.3       1 <0>        -0.3410
     39 C27        -3.1206   -4.3104   -1.4211 C.3       1 <0>        -0.0053
     40 O5         -7.1943   -4.1617   -3.6400 O.3       1 <0>        -0.3452
     41 C28        -7.8034   -4.5233   -4.7850 C.2       1 <0>         0.6481
     42 O6         -7.1585   -5.0265   -5.6835 O.2       1 <0>        -0.5685
     43 N3         -9.1284   -4.3271   -4.9345 N.am      1 <0>        -0.8257
     44 C29        -5.8184   -1.8968   -4.2741 C.3       1 <0>        -0.1100
     45 C30        -2.3152   -2.5259   -6.1659 C.3       1 <0>        -0.1433
     46 O7         -0.5351   -1.9529   -4.5160 O.3       1 <0>        -0.5576
     47 O8         -3.0643   -0.4966   -2.3149 O.3       1 <0>        -0.3726
     48 C31        -3.2649   -1.7405   -1.6407 C.3       1 <0>        -0.0203
     49 H7         -0.4204    2.3707   -1.2508 H         1 <0>         0.0528
     50 H8         -2.1276    1.9917   -1.5828 H         1 <0>         0.0599
     51 H9         -1.5377    2.0438    0.0957 H         1 <0>         0.0411
     52 H10        -0.2233    0.7745   -2.9737 H         1 <0>         0.0672
     53 H11         0.0426   -0.9105   -2.4915 H         1 <0>         0.0738
     54 H12        -3.3053   -4.2486   -4.1710 H         1 <0>         0.0985
     55 H13        -7.5735   -4.8361   -1.5580 H         1 <0>         0.1335
     56 H14        -7.4011   -4.0076    0.6520 H         1 <0>         0.1247
     57 H15        -4.3384   -4.3398    0.4155 H         1 <0>         0.1332
     58 H16        -2.7358    0.7290    4.0358 H         1 <0>         0.1563
     59 H17         0.8886   -0.8029   -0.6547 H         1 <0>         0.0793
     60 H18         0.9797    0.9195   -0.2536 H         1 <0>         0.0950
     61 H19         0.8324   -0.9904    1.6041 H         1 <0>         0.1364
     62 H20         0.3561    3.5503    2.6892 H         1 <0>         0.0937
     63 H21         1.3055    2.6048    3.8609 H         1 <0>         0.1001
     64 H22         3.4328    3.2005    2.4299 H         1 <0>         0.1136
     65 H23         3.2659    5.5148    1.8569 H         1 <0>         0.1026
     66 H24         1.4178    5.4514    2.1393 H         1 <0>         0.0959
     67 H25        -6.6517   -2.2570    2.8177 H         1 <0>         0.0684
     68 H26        -5.8576   -0.8268    2.1161 H         1 <0>         0.0684
     69 H27        -6.9550   -1.8134    1.1208 H         1 <0>         0.0657
     70 H28        -2.4578   -3.5539   -1.0011 H         1 <0>         0.1118
     71 H29        -3.2586   -5.1144   -0.6981 H         1 <0>         0.0517
     72 H30        -2.6802   -4.7135   -2.3330 H         1 <0>         0.0438
     73 H31        -9.6432   -3.9254   -4.2172 H         1 <0>         0.4089
     74 H32        -9.5672   -4.5876   -5.7594 H         1 <0>         0.4267
     75 H33        -6.2807   -1.9055   -5.2612 H         1 <0>         0.0581
     76 H34        -6.5918   -1.8064   -3.5114 H         1 <0>         0.0673
     77 H35        -5.1349   -1.0510   -4.2004 H         1 <0>         0.0719
     78 H36        -1.7129   -3.4268   -6.0496 H         1 <0>         0.0524
     79 H37        -3.1146   -2.7133   -6.8829 H         1 <0>         0.0573
     80 H38        -1.6862   -1.7124   -6.5274 H         1 <0>         0.0690
     81 H39        -0.3676   -2.8085   -4.9342 H         1 <0>         0.3786
     82 H40        -2.4593   -1.8993   -0.9239 H         1 <0>         0.0630
     83 H41        -4.2197   -1.7191   -1.1153 H         1 <0>         0.0839
     84 H42        -3.2688   -2.5518   -2.3686 H         1 <0>         0.0998
     85 H43        -1.4327    2.4639    4.5502 H         1 <0>         0.4053
@<TRIPOS>BOND
     1    1    2 1
     2    1   49 1
     3    1   50 1
     4    1   51 1
     5    2    3 1
     6    2   30 1
     7    2    4 1
     8    4    5 1
     9    4   52 1
    10    4   53 1
    11    5    6 1
    12    5    7 1
    13    5   47 1
    14    7    8 1
    15    7    9 1
    16    7   46 1
    17    9   10 1
    18    9   11 1
    19    9   45 1
    20   11   12 2
    21   11   54 1
    22   12   13 1
    23   12   44 1
    24   13   14 1
    25   13   15 1
    26   13   40 1
    27   15   16 1
    28   15   17 1
    29   15   38 1
    30   17   18 2
    31   17   55 1
    32   18   19 1
    33   18   56 1
    34   19   20 2
    35   19   57 1
    36   20   21 1
    37   20   37 1
    38   21   22 2
    39   21   23 1
    40   23   24 2
    41   24   31 1
    42   24   25 1
    43   25   26 2
    44   25   58 1
    45   26   27 1
    46   26   28 1
    47   27   85 1
    48   28   33 2
    49   28   29 1
    50   29   30 1
    51   29   31 1
    52   29   61 1
    53   30   59 1
    54   30   60 1
    55   31   32 2
    56   33   34 1
    57   34   35 1
    58   34   62 1
    59   34   63 1
    60   35   36 2
    61   35   64 1
    62   36   65 1
    63   36   66 1
    64   37   67 1
    65   37   68 1
    66   37   69 1
    67   38   39 1
    68   39   70 1
    69   39   71 1
    70   39   72 1
    71   40   41 1
    72   41   42 2
    73   41   43 am
    74   43   73 1
    75   43   74 1
    76   44   75 1
    77   44   76 1
    78   44   77 1
    79   45   78 1
    80   45   79 1
    81   45   80 1
    82   46   81 1
    83   47   48 1
    84   48   82 1
    85   48   83 1
    86   48   84 1
@<TRIPOS>MOLECULE
ZINC53293729
   43    45     0     0     0
SMALL
USER_CHARGES

@<TRIPOS>ATOM
      1 C1         -0.0184    1.5028    0.0103 C.3       1 <0>        -0.0831
      2 C2          0.0021   -0.0041    0.0020 C.2       1 <0>         0.2863
      3 N1          0.0080   -0.7588   -1.0626 N.2       1 <0>        -0.4762
      4 C3          0.0278   -2.0475   -0.6911 C.2       1 <0>         0.1147
      5 C4          0.0345   -2.0930    0.6548 C.2       1 <0>        -0.0115
      6 N2          0.0232   -0.7970    1.0950 N.pl3     1 <0>        -0.4345
      7 C5          0.0296   -0.3529    2.4911 C.3       1 <0>         0.0912
      8 C6         -1.4104   -0.2188    2.9902 C.3       1 <0>         0.0589
      9 O1         -1.4042    0.2143    4.3519 O.3       1 <0>        -0.3430
     10 C7         -2.6036    0.3830    4.9467 C.2       1 <0>         0.5087
     11 O2         -3.6266    0.1678    4.3245 O.2       1 <0>        -0.5098
     12 C8         -2.6716    0.8110    6.2965 C.2       1 <0>        -0.2160
     13 C9         -3.8738    0.9801    6.8925 C.2       1 <0>         0.0236
     14 C10        -3.9441    1.4230    8.2892 C.ar      1 <0>        -0.0860
     15 C11        -2.7829    1.6792    9.0135 C.ar      1 <0>        -0.0730
     16 C12        -2.8538    2.0979   10.3339 C.ar      1 <0>        -0.1281
     17 C13        -4.0454    2.2742   10.9694 C.ar      1 <0>        -0.0770
     18 C14        -5.2578    2.0350   10.3006 C.ar      1 <0>        -0.0599
     19 C15        -5.2360    1.6109    8.9495 C.ar      1 <0>        -0.0258
     20 C16        -6.4412    1.3764    8.2784 C.ar      1 <0>        -0.1163
     21 C17        -7.6236    1.5638    8.9312 C.ar      1 <0>        -0.1021
     22 C18        -7.6490    1.9863   10.2580 C.ar      1 <0>        -0.1178
     23 C19        -6.4947    2.2124   10.9442 C.ar      1 <0>        -0.0989
     24 N3          0.0554   -3.3107    1.4964 N.pl3     1 <0>         0.0718
     25 O3          0.0690   -4.4031    0.9788 O.2       1 <0>        -0.1262
     26 O4          0.0589   -3.2126    2.7014 O.3       1 <0>        -0.1682
     27 H1          1.0042    1.8801    0.0026 H         1 <0>         0.1006
     28 H2         -0.5455    1.8639   -0.8728 H         1 <0>         0.1090
     29 H3         -0.5286    1.8543    0.9071 H         1 <0>         0.0857
     30 H4          0.0365   -2.8993   -1.3550 H         1 <0>         0.2046
     31 H5          0.5594   -1.0836    3.1023 H         1 <0>         0.1267
     32 H6          0.5305    0.6125    2.5630 H         1 <0>         0.1204
     33 H7         -1.9402    0.5119    2.3790 H         1 <0>         0.0772
     34 H8         -1.9113   -1.1842    2.9182 H         1 <0>         0.0765
     35 H9         -1.7634    1.0021    6.8488 H         1 <0>         0.1450
     36 H10        -4.7820    0.7890    6.3402 H         1 <0>         0.1410
     37 H11        -1.8192    1.5506    8.5434 H         1 <0>         0.1342
     38 H12        -1.9381    2.2891   10.8736 H         1 <0>         0.1302
     39 H13        -4.0587    2.6011   11.9986 H         1 <0>         0.1314
     40 H14        -6.4350    1.0492    7.2492 H         1 <0>         0.1298
     41 H15        -8.5531    1.3825    8.4121 H         1 <0>         0.1277
     42 H16        -8.5984    2.1279   10.7530 H         1 <0>         0.1271
     43 H17        -6.5297    2.5390   11.9730 H         1 <0>         0.1312
@<TRIPOS>BOND
     1    1    2 1
     2    1   27 1
     3    1   28 1
     4    1   29 1
     5    2    6 1
     6    2    3 2
     7    3    4 1
     8    4    5 2
     9    4   30 1
    10    5    6 1
    11    5   24 1
    12    6    7 1
    13    7    8 1
    14    7   31 1
    15    7   32 1
    16    8    9 1
    17    8   33 1
    18    8   34 1
    19    9   10 1
    20   10   11 2
    21   10   12 1
    22   12   13 2
    23   12   35 1
    24   13   14 1
    25   13   36 1
    26   14   19 ar
    27   14   15 ar
    28   15   16 ar
    29   15   37 1
    30   16   17 ar
    31   16   38 1
    32   17   18 ar
    33   17   39 1
    34   18   23 ar
    35   18   19 ar
    36   19   20 ar
    37   20   21 ar
    38   20   40 1
    39   21   22 ar
    40   21   41 1
    41   22   23 ar
    42   22   42 1
    43   23   43 1
    44   24   25 2
    45   24   26 1
@<TRIPOS>MOLECULE
ZINC53296444
   37    38     0     0     0
SMALL
USER_CHARGES

@<TRIPOS>ATOM
      1 C1         -0.0184    1.5028    0.0103 C.3       1 <0>        -0.0831
      2 C2          0.0021   -0.0041    0.0020 C.2       1 <0>         0.2865
      3 N1          0.0080   -0.7588   -1.0626 N.2       1 <0>        -0.4760
      4 C3          0.0278   -2.0475   -0.6911 C.2       1 <0>         0.1150
      5 C4          0.0345   -2.0930    0.6548 C.2       1 <0>        -0.0117
      6 N2          0.0232   -0.7970    1.0950 N.pl3     1 <0>        -0.4348
      7 C5          0.0296   -0.3529    2.4911 C.3       1 <0>         0.0913
      8 C6         -1.4104   -0.2188    2.9902 C.3       1 <0>         0.0584
      9 O1         -1.4042    0.2143    4.3519 O.3       1 <0>        -0.3411
     10 C7         -2.6035    0.3830    4.9466 C.2       1 <0>         0.5035
     11 O2         -3.6263    0.1678    4.3245 O.2       1 <0>        -0.5052
     12 C8         -2.6736    0.8242    6.3380 C.2       1 <0>        -0.1986
     13 C9         -3.8736    0.9930    6.9330 C.2       1 <0>         0.0079
     14 C10        -3.9441    1.4370    8.3333 C.ar      1 <0>        -0.0987
     15 C11        -2.7695    1.6909    9.0499 C.ar      1 <0>        -0.0652
     16 C12        -2.8426    2.1066   10.3615 C.ar      1 <0>        -0.1564
     17 C13        -4.0770    2.2735   10.9715 C.ar      1 <0>         0.1188
     18 C14        -5.2451    2.0231   10.2670 C.ar      1 <0>        -0.1571
     19 C15        -5.1862    1.6129    8.9530 C.ar      1 <0>        -0.0575
     20 F1         -4.1418    2.6813   12.2578 F         1 <0>        -0.1332
     21 N3          0.0554   -3.3107    1.4964 N.pl3     1 <0>         0.0718
     22 O3          0.0690   -4.4031    0.9788 O.2       1 <0>        -0.1258
     23 O4          0.0589   -3.2126    2.7014 O.3       1 <0>        -0.1684
     24 H1          1.0042    1.8801    0.0026 H         1 <0>         0.1007
     25 H2         -0.5455    1.8639   -0.8728 H         1 <0>         0.1091
     26 H3         -0.5286    1.8543    0.9071 H         1 <0>         0.0856
     27 H4          0.0365   -2.8993   -1.3550 H         1 <0>         0.2048
     28 H5          0.5594   -1.0836    3.1023 H         1 <0>         0.1269
     29 H6          0.5305    0.6125    2.5630 H         1 <0>         0.1206
     30 H7         -1.9402    0.5119    2.3790 H         1 <0>         0.0778
     31 H8         -1.9113   -1.1842    2.9182 H         1 <0>         0.0770
     32 H9         -1.7653    1.0153    6.8903 H         1 <0>         0.1461
     33 H10        -4.7818    0.8019    6.3807 H         1 <0>         0.1422
     34 H11        -1.8077    1.5611    8.5762 H         1 <0>         0.1416
     35 H12        -1.9368    2.3026   10.9159 H         1 <0>         0.1427
     36 H13        -6.2031    2.1542   10.7481 H         1 <0>         0.1429
     37 H14        -6.0967    1.4232    8.4039 H         1 <0>         0.1418
@<TRIPOS>BOND
     1    1    2 1
     2    1   24 1
     3    1   25 1
     4    1   26 1
     5    2    6 1
     6    2    3 2
     7    3    4 1
     8    4    5 2
     9    4   27 1
    10    5    6 1
    11    5   21 1
    12    6    7 1
    13    7    8 1
    14    7   28 1
    15    7   29 1
    16    8    9 1
    17    8   30 1
    18    8   31 1
    19    9   10 1
    20   10   11 2
    21   10   12 1
    22   12   13 2
    23   12   32 1
    24   13   14 1
    25   13   33 1
    26   14   19 ar
    27   14   15 ar
    28   15   16 ar
    29   15   34 1
    30   16   17 ar
    31   16   35 1
    32   17   18 ar
    33   17   20 1
    34   18   19 ar
    35   18   36 1
    36   19   37 1
    37   21   22 2
    38   21   23 1
@<TRIPOS>MOLECULE
ZINC53230062
   37    38     0     0     0
SMALL
USER_CHARGES

@<TRIPOS>ATOM
      1 C1         -0.0184    1.5028    0.0103 C.3       1 <0>        -0.0831
      2 C2          0.0021   -0.0041    0.0020 C.2       1 <0>         0.2865
      3 N1          0.0080   -0.7588   -1.0626 N.2       1 <0>        -0.4760
      4 C3          0.0278   -2.0475   -0.6911 C.2       1 <0>         0.1151
      5 C4          0.0345   -2.0930    0.6548 C.2       1 <0>        -0.0117
      6 N2          0.0232   -0.7970    1.0950 N.pl3     1 <0>        -0.4349
      7 C5          0.0296   -0.3529    2.4911 C.3       1 <0>         0.0913
      8 C6         -1.4104   -0.2188    2.9902 C.3       1 <0>         0.0583
      9 O1         -1.4042    0.2143    4.3519 O.3       1 <0>        -0.3407
     10 C7         -2.6034    0.3830    4.9465 C.2       1 <0>         0.5033
     11 O2         -3.6262    0.1678    4.3245 O.2       1 <0>        -0.5044
     12 C8         -2.6735    0.8243    6.3384 C.2       1 <0>        -0.1946
     13 C9         -3.8732    0.9930    6.9332 C.2       1 <0>         0.0043
     14 C10        -3.9437    1.4372    8.3340 C.ar      1 <0>        -0.0823
     15 C11        -2.7696    1.6913    9.0507 C.ar      1 <0>        -0.0828
     16 C12        -2.8433    2.1076   10.3626 C.ar      1 <0>        -0.1128
     17 C13        -4.0766    2.2746   10.9716 C.ar      1 <0>        -0.0191
     18 C14        -5.2437    2.0244   10.2680 C.ar      1 <0>        -0.1135
     19 C15        -5.1854    1.6131    8.9538 C.ar      1 <0>        -0.0751
     20 Cl1        -4.1599    2.7993   12.6243 Cl        1 <0>        -0.0599
     21 N3          0.0554   -3.3107    1.4964 N.pl3     1 <0>         0.0718
     22 O3          0.0690   -4.4031    0.9788 O.2       1 <0>        -0.1257
     23 O4          0.0589   -3.2126    2.7014 O.3       1 <0>        -0.1685
     24 H1          1.0042    1.8801    0.0026 H         1 <0>         0.1007
     25 H2         -0.5455    1.8639   -0.8728 H         1 <0>         0.1091
     26 H3         -0.5286    1.8543    0.9071 H         1 <0>         0.0855
     27 H4          0.0365   -2.8993   -1.3550 H         1 <0>         0.2048
     28 H5          0.5594   -1.0836    3.1023 H         1 <0>         0.1269
     29 H6          0.5305    0.6125    2.5630 H         1 <0>         0.1207
     30 H7         -1.9402    0.5119    2.3790 H         1 <0>         0.0779
     31 H8         -1.9113   -1.1842    2.9182 H         1 <0>         0.0771
     32 H9         -1.7653    1.0154    6.8907 H         1 <0>         0.1466
     33 H10        -4.7814    0.8019    6.3809 H         1 <0>         0.1425
     34 H11        -1.8076    1.5611    8.5774 H         1 <0>         0.1407
     35 H12        -1.9377    2.3037   10.9172 H         1 <0>         0.1405
     36 H13        -6.2016    2.1564   10.7492 H         1 <0>         0.1407
     37 H14        -6.0961    1.4231    8.4051 H         1 <0>         0.1409
@<TRIPOS>BOND
     1    1    2 1
     2    1   24 1
     3    1   25 1
     4    1   26 1
     5    2    6 1
     6    2    3 2
     7    3    4 1
     8    4    5 2
     9    4   27 1
    10    5    6 1
    11    5   21 1
    12    6    7 1
    13    7    8 1
    14    7   28 1
    15    7   29 1
    16    8    9 1
    17    8   30 1
    18    8   31 1
    19    9   10 1
    20   10   11 2
    21   10   12 1
    22   12   13 2
    23   12   32 1
    24   13   14 1
    25   13   33 1
    26   14   19 ar
    27   14   15 ar
    28   15   16 ar
    29   15   34 1
    30   16   17 ar
    31   16   35 1
    32   17   18 ar
    33   17   20 1
    34   18   19 ar
    35   18   36 1
    36   19   37 1
    37   21   22 2
    38   21   23 1
@<TRIPOS>MOLECULE
ZINC53312872
   40    41     0     0     0
SMALL
USER_CHARGES

@<TRIPOS>ATOM
      1 C1         -0.0184    1.5028    0.0103 C.3       1 <0>        -0.1217
      2 C2          0.0021   -0.0041    0.0020 C.ar      1 <0>        -0.0644
      3 C3          0.0056   -0.6858   -1.2025 C.ar      1 <0>        -0.1258
      4 C4          0.0238   -2.0645   -1.2184 C.ar      1 <0>        -0.0823
      5 C5          0.0392   -2.7739   -0.0132 C.ar      1 <0>        -0.0961
      6 C6          0.0359   -2.0776    1.1997 C.ar      1 <0>        -0.0888
      7 C7          0.0229   -0.6988    1.1989 C.ar      1 <0>        -0.1252
      8 C8          0.0582   -4.2455   -0.0213 C.2       1 <0>         0.0106
      9 C9          0.0729   -4.9263    1.1433 C.2       1 <0>        -0.2042
     10 C10         0.0918   -6.3886    1.1353 C.2       1 <0>         0.5040
     11 O1          0.0942   -6.9909    0.0787 O.2       1 <0>        -0.5071
     12 O2          0.1065   -7.0694    2.2999 O.3       1 <0>        -0.3414
     13 C11         0.1246   -8.4959    2.2172 C.3       1 <0>         0.0590
     14 C12         0.1394   -9.0883    3.6278 C.3       1 <0>         0.0911
     15 N1          0.1579  -10.5507    3.5431 N.pl3     1 <0>        -0.4344
     16 C13        -0.9189  -11.3644    3.4969 C.2       1 <0>         0.2862
     17 N2         -0.5065  -12.6004    3.4249 N.2       1 <0>        -0.4763
     18 C14         0.8346  -12.6199    3.4227 C.2       1 <0>         0.1150
     19 C15         1.2698  -11.3473    3.4900 C.2       1 <0>        -0.0118
     20 N3          2.6798  -10.8966    3.5067 N.pl3     1 <0>         0.0718
     21 O3          2.9366   -9.7170    3.5729 O.2       1 <0>        -0.1683
     22 O4          3.5745  -11.7080    3.4542 O.3       1 <0>        -0.1260
     23 C16        -2.3583  -10.9188    3.5239 C.3       1 <0>        -0.0831
     24 H1          1.0042    1.8801    0.0026 H         1 <0>         0.0756
     25 H2         -0.5455    1.8639   -0.8728 H         1 <0>         0.0700
     26 H3         -0.5286    1.8543    0.9071 H         1 <0>         0.0700
     27 H4         -0.0062   -0.1366   -2.1323 H         1 <0>         0.1287
     28 H5          0.0259   -2.5951   -2.1591 H         1 <0>         0.1303
     29 H6          0.0474   -2.6184    2.1345 H         1 <0>         0.1307
     30 H7          0.0248   -0.1596    2.1347 H         1 <0>         0.1285
     31 H8          0.0603   -4.7803   -0.9596 H         1 <0>         0.1390
     32 H9          0.0708   -4.3915    2.0816 H         1 <0>         0.1451
     33 H10        -0.7638   -8.8404    1.6878 H         1 <0>         0.0776
     34 H11         1.0160   -8.8174    1.6787 H         1 <0>         0.0763
     35 H12         1.0278   -8.7438    4.1572 H         1 <0>         0.1268
     36 H13        -0.7520   -8.7668    4.1663 H         1 <0>         0.1204
     37 H14         1.4564  -13.5014    3.3711 H         1 <0>         0.2048
     38 H15        -2.7062  -10.7520    2.5045 H         1 <0>         0.0988
     39 H16        -2.9685  -11.6897    3.9945 H         1 <0>         0.1089
     40 H17        -2.4412   -9.9924    4.0923 H         1 <0>         0.0877
@<TRIPOS>BOND
     1    1    2 1
     2    1   24 1
     3    1   25 1
     4    1   26 1
     5    2    7 ar
     6    2    3 ar
     7    3    4 ar
     8    3   27 1
     9    4    5 ar
    10    4   28 1
    11    5    6 ar
    12    5    8 1
    13    6    7 ar
    14    6   29 1
    15    7   30 1
    16    8    9 2
    17    8   31 1
    18    9   10 1
    19    9   32 1
    20   10   11 2
    21   10   12 1
    22   12   13 1
    23   13   14 1
    24   13   33 1
    25   13   34 1
    26   14   15 1
    27   14   35 1
    28   14   36 1
    29   15   19 1
    30   15   16 1
    31   16   17 2
    32   16   23 1
    33   17   18 1
    34   18   19 2
    35   18   37 1
    36   19   20 1
    37   20   21 2
    38   20   22 1
    39   23   38 1
    40   23   39 1
    41   23   40 1
@<TRIPOS>MOLECULE
ZINC03976838
   60    63     0     0     0
SMALL
USER_CHARGES

@<TRIPOS>ATOM
      1 C1         -1.9632    0.5811   -0.8871 C.3       1 <0>        -0.0541
      2 N1         -1.2418   -0.6813   -0.6777 N.4       1 <0>        -0.3862
      3 C2         -0.5135   -1.0381   -1.9025 C.3       1 <0>        -0.0483
      4 C3         -0.2896   -0.5233    0.4297 C.3       1 <0>         0.0253
      5 C4         -1.0449   -0.2786    1.7106 C.2       1 <0>        -0.1480
      6 C5         -0.8380   -1.0627    2.7650 C.2       1 <0>        -0.1269
      7 C6         -1.5751   -0.8238    4.0150 C.2       1 <0>         0.5354
      8 O1         -2.3740    0.0907    4.0846 O.2       1 <0>        -0.5170
      9 N2         -1.3654   -1.6183    5.0833 N.am      1 <0>        -0.6423
     10 C7         -1.9724   -1.3183    6.3085 C.ar      1 <0>         0.1042
     11 C8         -2.3372   -0.0200    6.5905 C.ar      1 <0>        -0.0446
     12 C9         -2.9443    0.2759    7.8163 C.ar      1 <0>        -0.2030
     13 C10        -3.1793   -0.7577    8.7569 C.ar      1 <0>         0.2217
     14 C11        -2.8007   -2.0703    8.4501 C.ar      1 <0>        -0.1923
     15 C12        -2.2096   -2.3436    7.2372 C.ar      1 <0>         0.1598
     16 O2         -1.8472   -3.6181    6.9382 O.3       1 <0>        -0.2978
     17 C13        -2.2209   -4.6345    7.8706 C.3       1 <0>         0.0451
     18 H1         -3.0942   -4.3281    8.4464 H         1 <0>         0.1041
     19 C14        -2.4828   -5.9819    7.1439 C.3       1 <0>        -0.1516
     20 C15        -2.1433   -6.9930    8.2678 C.3       1 <0>         0.0499
     21 O3         -1.0381   -6.4095    8.9760 O.3       1 <0>        -0.3716
     22 C16        -1.0420   -4.9840    8.8042 C.3       1 <0>         0.0341
     23 N3         -3.7636   -0.4455    9.9245 N.ar      1 <0>        -0.5454
     24 C17        -4.1086    0.7928   10.1858 C.ar      1 <0>         0.3609
     25 N4         -3.9094    1.7898    9.3385 N.ar      1 <0>        -0.5826
     26 C18        -3.3394    1.5917    8.1570 C.ar      1 <0>         0.4746
     27 N5         -3.1368    2.6409    7.2833 N.pl3     1 <0>        -0.6348
     28 C19        -3.4314    3.9493    7.6812 C.ar      1 <0>         0.1502
     29 C20        -3.9344    4.8596    6.7605 C.ar      1 <0>        -0.1114
     30 C21        -4.2251    6.1508    7.1549 C.ar      1 <0>        -0.1205
     31 C22        -4.0152    6.5390    8.4673 C.ar      1 <0>         0.0995
     32 C23        -3.5130    5.6332    9.3878 C.ar      1 <0>        -0.0547
     33 C24        -3.2266    4.3381    8.9983 C.ar      1 <0>        -0.0740
     34 Cl1        -3.2497    6.1230   11.0323 Cl        1 <0>        -0.0359
     35 F1         -4.2999    7.8028    8.8508 F         1 <0>        -0.1227
     36 H2         -1.2516    1.3703   -1.1296 H         1 <0>         0.1249
     37 H3         -2.6697    0.4638   -1.7088 H         1 <0>         0.1268
     38 H4         -2.5036    0.8458    0.0218 H         1 <0>         0.1250
     39 H5          0.1981   -0.2489   -2.1450 H         1 <0>         0.1242
     40 H6          0.0218   -1.9749   -1.7471 H         1 <0>         0.1248
     41 H7         -1.2200   -1.1554   -2.7242 H         1 <0>         0.1272
     42 H8          0.3075   -1.4299    0.5276 H         1 <0>         0.1385
     43 H9          0.3661    0.3235    0.2271 H         1 <0>         0.1462
     44 H10        -1.7543    0.5335    1.7725 H         1 <0>         0.1537
     45 H11        -0.1287   -1.8747    2.7031 H         1 <0>         0.1460
     46 H12        -0.7939   -2.3979    5.0032 H         1 <0>         0.4221
     47 H13        -2.1557    0.7642    5.8705 H         1 <0>         0.1571
     48 H14        -2.9753   -2.8653    9.1599 H         1 <0>         0.1559
     49 H15        -3.5261   -6.0680    6.8400 H         1 <0>         0.0956
     50 H16        -1.8157   -6.1042    6.2907 H         1 <0>         0.0928
     51 H17        -2.9964   -7.1180    8.9347 H         1 <0>         0.0709
     52 H18        -1.8537   -7.9523    7.8389 H         1 <0>         0.0979
     53 H19        -0.1038   -4.6642    8.3507 H         1 <0>         0.0839
     54 H20        -1.1750   -4.4919    9.7677 H         1 <0>         0.0824
     55 H21        -4.5766    1.0084   11.1350 H         1 <0>         0.2031
     56 H22        -2.7903    2.4709    6.3934 H         1 <0>         0.4241
     57 H23        -4.0978    4.5578    5.7364 H         1 <0>         0.1411
     58 H24        -4.6163    6.8585    6.4390 H         1 <0>         0.1517
     59 H25        -2.8398    3.6306    9.7168 H         1 <0>         0.1561
     60 H26        -1.9005   -1.4119   -0.4532 H         1 <0>         0.4291
@<TRIPOS>BOND
     1    1    2 1
     2    1   36 1
     3    1   37 1
     4    1   38 1
     5    2    3 1
     6    2    4 1
     7    2   60 1
     8    3   39 1
     9    3   40 1
    10    3   41 1
    11    4    5 1
    12    4   42 1
    13    4   43 1
    14    5    6 2
    15    5   44 1
    16    6    7 1
    17    6   45 1
    18    7    8 2
    19    7    9 am
    20    9   10 1
    21    9   46 1
    22   10   15 ar
    23   10   11 ar
    24   11   12 ar
    25   11   47 1
    26   12   26 ar
    27   12   13 ar
    28   13   14 ar
    29   13   23 ar
    30   14   15 ar
    31   14   48 1
    32   15   16 1
    33   16   17 1
    34   17   18 1
    35   17   22 1
    36   17   19 1
    37   19   20 1
    38   19   49 1
    39   19   50 1
    40   20   21 1
    41   20   51 1
    42   20   52 1
    43   21   22 1
    44   22   53 1
    45   22   54 1
    46   23   24 ar
    47   24   25 ar
    48   24   55 1
    49   25   26 ar
    50   26   27 1
    51   27   28 1
    52   27   56 1
    53   28   33 ar
    54   28   29 ar
    55   29   30 ar
    56   29   57 1
    57   30   31 ar
    58   30   58 1
    59   31   32 ar
    60   31   35 1
    61   32   33 ar
    62   32   34 1
    63   33   59 1
@<TRIPOS>MOLECULE
ZINC03976838
   59    62     0     0     0
SMALL
USER_CHARGES

@<TRIPOS>ATOM
      1 C1          1.8571    0.6514   -1.0957 C.3       1 <0>         0.0159
      2 N1          1.2921   -0.6268   -0.6430 N.3       1 <0>        -0.5438
      3 C2          1.9320   -1.0740    0.6014 C.3       1 <0>         0.0224
      4 C3         -0.1647   -0.5303   -0.4806 C.3       1 <0>         0.0693
      5 C4         -0.8068   -0.3111   -1.8262 C.2       1 <0>        -0.0384
      6 C5         -1.7604   -1.1357   -2.2504 C.2       1 <0>        -0.2153
      7 C6         -2.3869   -0.9218   -3.5636 C.2       1 <0>         0.5517
      8 O1         -2.0332    0.0093   -4.2618 O.2       1 <0>        -0.5302
      9 N2         -3.3531   -1.7573   -3.9934 N.am      1 <0>        -0.6558
     10 C7         -4.0351   -1.4847   -5.1851 C.ar      1 <0>         0.1223
     11 C8         -4.1172   -0.1882   -5.6441 C.ar      1 <0>        -0.0555
     12 C9         -4.7995    0.0803   -6.8362 C.ar      1 <0>        -0.1969
     13 C10        -5.3997   -0.9788   -7.5616 C.ar      1 <0>         0.2138
     14 C11        -5.3044   -2.2890   -7.0772 C.ar      1 <0>        -0.1958
     15 C12        -4.6247   -2.5350   -5.9055 C.ar      1 <0>         0.1578
     16 O2         -4.5282   -3.8071   -5.4390 O.3       1 <0>        -0.2944
     17 C13        -5.0444   -4.8453   -6.2743 C.3       1 <0>         0.0455
     18 H1         -5.0407   -4.5375   -7.3199 H         1 <0>         0.1025
     19 C14        -4.2403   -6.1601   -6.0825 C.3       1 <0>        -0.1530
     20 C15        -5.3163   -7.2173   -6.4366 C.3       1 <0>         0.0510
     21 O3         -6.5478   -6.6858   -5.9223 O.3       1 <0>        -0.3738
     22 C16        -6.4640   -5.2555   -5.8272 C.3       1 <0>         0.0341
     23 N3         -6.0474   -0.6924   -8.7020 N.ar      1 <0>        -0.5459
     24 C17        -6.1211    0.5443   -9.1330 C.ar      1 <0>         0.3515
     25 N4         -5.5760    1.5645   -8.4898 N.ar      1 <0>        -0.5857
     26 C18        -4.9137    1.3931   -7.3532 C.ar      1 <0>         0.4731
     27 N5         -4.3510    2.4663   -6.6923 N.pl3     1 <0>        -0.6358
     28 C19        -4.5687    3.7671   -7.1585 C.ar      1 <0>         0.1564
     29 C20        -3.5639    4.7206   -7.0541 C.ar      1 <0>        -0.1114
     30 C21        -3.7803    6.0043   -7.5152 C.ar      1 <0>        -0.1197
     31 C22        -4.9980    6.3420   -8.0812 C.ar      1 <0>         0.0946
     32 C23        -6.0022    5.3930   -8.1862 C.ar      1 <0>        -0.0544
     33 C24        -5.7874    4.1054   -7.7314 C.ar      1 <0>        -0.0756
     34 Cl1        -7.5284    5.8195   -8.8952 Cl        1 <0>        -0.0418
     35 F1         -5.2075    7.5985   -8.5312 F         1 <0>        -0.1256
     36 H2          2.9256    0.5331   -1.2752 H         1 <0>         0.0727
     37 H3          1.3655    0.9594   -2.0185 H         1 <0>         0.0718
     38 H4          1.6992    1.4102   -0.3292 H         1 <0>         0.0297
     39 H5          1.7155   -0.3618    1.3976 H         1 <0>         0.0290
     40 H6          1.5453   -2.0552    0.8765 H         1 <0>         0.0711
     41 H7          3.0101   -1.1368    0.4533 H         1 <0>         0.0732
     42 H8         -0.5435   -1.4542   -0.0435 H         1 <0>         0.0883
     43 H9         -0.4025    0.3065    0.1761 H         1 <0>         0.0580
     44 H10        -0.4927    0.5156   -2.4461 H         1 <0>         0.1298
     45 H11        -2.0745   -1.9624   -1.6305 H         1 <0>         0.1328
     46 H12        -3.5760   -2.5476   -3.4770 H         1 <0>         0.4199
     47 H13        -3.6583    0.6155   -5.0874 H         1 <0>         0.1594
     48 H14        -5.7582   -3.1033   -7.6224 H         1 <0>         0.1529
     49 H15        -3.3984   -6.2100   -6.7730 H         1 <0>         0.0956
     50 H16        -3.9067   -6.2696   -5.0506 H         1 <0>         0.0948
     51 H17        -5.3810   -7.3440   -7.5173 H         1 <0>         0.0687
     52 H18        -5.0849   -8.1681   -5.9566 H         1 <0>         0.0964
     53 H19        -6.6315   -4.9437   -4.7963 H         1 <0>         0.0847
     54 H20        -7.2050   -4.7937   -6.4796 H         1 <0>         0.0810
     55 H21        -6.6500    0.7387  -10.0544 H         1 <0>         0.1992
     56 H22        -3.8045    2.3184   -5.9046 H         1 <0>         0.4273
     57 H23        -2.6141    4.4582   -6.6122 H         1 <0>         0.1435
     58 H24        -2.9990    6.7455   -7.4340 H         1 <0>         0.1509
     59 H25        -6.5684    3.3644   -7.8177 H         1 <0>         0.1561
@<TRIPOS>BOND
     1    1    2 1
     2    1   36 1
     3    1   37 1
     4    1   38 1
     5    2    3 1
     6    2    4 1
     7    3   39 1
     8    3   40 1
     9    3   41 1
    10    4    5 1
    11    4   42 1
    12    4   43 1
    13    5    6 2
    14    5   44 1
    15    6    7 1
    16    6   45 1
    17    7    8 2
    18    7    9 am
    19    9   10 1
    20    9   46 1
    21   10   15 ar
    22   10   11 ar
    23   11   12 ar
    24   11   47 1
    25   12   26 ar
    26   12   13 ar
    27   13   14 ar
    28   13   23 ar
    29   14   15 ar
    30   14   48 1
    31   15   16 1
    32   16   17 1
    33   17   18 1
    34   17   22 1
    35   17   19 1
    36   19   20 1
    37   19   49 1
    38   19   50 1
    39   20   21 1
    40   20   51 1
    41   20   52 1
    42   21   22 1
    43   22   53 1
    44   22   54 1
    45   23   24 ar
    46   24   25 ar
    47   24   55 1
    48   25   26 ar
    49   26   27 1
    50   27   28 1
    51   27   56 1
    52   28   33 ar
    53   28   29 ar
    54   29   30 ar
    55   29   57 1
    56   30   31 ar
    57   30   58 1
    58   31   32 ar
    59   31   35 1
    60   32   33 ar
    61   32   34 1
    62   33   59 1
@<TRIPOS>MOLECULE
ZINC21982951
   60    63     0     0     0
SMALL
USER_CHARGES

@<TRIPOS>ATOM
      1 C1         -2.0700    1.6928    0.2333 C.3       1 <0>        -0.1170
      2 C2         -1.6482    0.2604    0.0301 C.ar      1 <0>        -0.0813
      3 C3         -1.8479   -0.3525   -1.1919 C.ar      1 <0>        -0.1034
      4 C4         -1.4615   -1.6665   -1.3798 C.ar      1 <0>        -0.0990
      5 C5         -0.8738   -2.3725   -0.3459 C.ar      1 <0>        -0.1046
      6 C6         -0.6714   -1.7660    0.8791 C.ar      1 <0>        -0.0220
      7 C7         -1.0534   -0.4428    1.0688 C.ar      1 <0>         0.1347
      8 N1         -0.8441    0.1769    2.3055 N.am      1 <0>        -0.6659
      9 C8         -1.2819   -0.4110    3.4365 C.2       1 <0>         0.6018
     10 O1         -1.7689   -1.5261    3.3939 O.2       1 <0>        -0.4722
     11 C9         -1.1720    0.2905    4.7149 C.2       1 <0>        -0.2635
     12 C10        -1.5472   -0.1201    5.9866 C.2       1 <0>         0.1512
     13 N2         -1.3262    0.7270    6.9599 N.2       1 <0>        -0.5510
     14 C11        -0.7756    1.9070    6.7361 C.2       1 <0>         0.2513
     15 S1         -0.5107    1.9100    5.0742 S.3       1 <0>         0.2445
     16 N3         -0.4817    2.8997    7.6498 N.pl3     1 <0>        -0.5870
     17 C12        -0.6908    2.6801    9.0050 C.ar      1 <0>         0.4543
     18 C13        -1.0534    1.4192    9.4679 C.ar      1 <0>        -0.2926
     19 C14        -1.2512    1.2508   10.8352 C.ar      1 <0>         0.4935
     20 N4         -1.0875    2.2952   11.6453 N.ar      1 <0>        -0.5328
     21 C15        -0.7435    3.4737   11.1677 C.ar      1 <0>         0.4541
     22 N5         -0.5417    3.6719    9.8809 N.ar      1 <0>        -0.5672
     23 C16        -0.5694    4.6273   12.1217 C.3       1 <0>        -0.1251
     24 N6         -1.6138    0.0143   11.3464 N.pl3     1 <0>        -0.5370
     25 C17        -2.0559   -0.1253   12.7422 C.3       1 <0>         0.1090
     26 C18        -3.3866   -0.8852   12.7576 C.3       1 <0>         0.0383
     27 N7         -3.2335   -2.1493   12.0251 N.3       1 <0>        -0.5289
     28 C19        -2.9165   -1.9105   10.6107 C.3       1 <0>         0.0343
     29 C20        -1.5725   -1.1917   10.5056 C.3       1 <0>         0.1057
     30 C21        -4.4334   -2.9856   12.1619 C.3       1 <0>         0.0545
     31 C22        -4.1483   -4.3816   11.6043 C.3       1 <0>         0.0776
     32 O2         -3.1500   -5.0191   12.4038 O.3       1 <0>        -0.5606
     33 Cl1         0.0658   -2.6526    2.1768 Cl        1 <0>        -0.0453
     34 H1         -1.2464    2.3553   -0.0328 H         1 <0>         0.0773
     35 H2         -2.9308    1.9112   -0.3987 H         1 <0>         0.0785
     36 H3         -2.3379    1.8478    1.2784 H         1 <0>         0.0640
     37 H4         -2.3069    0.1956   -2.0014 H         1 <0>         0.1372
     38 H5         -1.6193   -2.1430   -2.3361 H         1 <0>         0.1391
     39 H6         -0.5731   -3.3989   -0.4959 H         1 <0>         0.1403
     40 H7         -0.3838    1.0296    2.3489 H         1 <0>         0.4083
     41 H8         -1.9972   -1.0858    6.1634 H         1 <0>         0.2027
     42 H9         -0.1293    3.7505    7.3451 H         1 <0>         0.4460
     43 H10        -1.1784    0.5927    8.7841 H         1 <0>         0.2218
     44 H11         0.4644    4.6619   12.4652 H         1 <0>         0.1245
     45 H12        -0.8146    5.5596   11.6130 H         1 <0>         0.1071
     46 H13        -1.2322    4.4948   12.9768 H         1 <0>         0.1273
     47 H14        -1.3096   -0.6823   13.3087 H         1 <0>         0.0989
     48 H15        -2.1929    0.8619   13.1834 H         1 <0>         0.1094
     49 H16        -3.6740   -1.0944   13.7880 H         1 <0>         0.1036
     50 H17        -4.1569   -0.2794   12.2806 H         1 <0>         0.0428
     51 H18        -2.8631   -2.8634   10.0841 H         1 <0>         0.1043
     52 H19        -3.6935   -1.2904   10.1636 H         1 <0>         0.0450
     53 H20        -1.3900   -0.9091    9.4688 H         1 <0>         0.1029
     54 H21        -0.7788   -1.8532   10.8529 H         1 <0>         0.1042
     55 H22        -4.7041   -3.0633   13.2149 H         1 <0>         0.0912
     56 H23        -5.2561   -2.5340   11.6075 H         1 <0>         0.0533
     57 H24        -5.0627   -4.9745   11.6240 H         1 <0>         0.0547
     58 H25        -3.7921   -4.2970   10.5776 H         1 <0>         0.0454
     59 H26        -2.9188   -5.9101   12.1076 H         1 <0>         0.3805
     60 H27        -0.2852    4.5531    9.5669 H         1 <0>         0.4414
@<TRIPOS>BOND
     1    1    2 1
     2    1   34 1
     3    1   35 1
     4    1   36 1
     5    2    7 ar
     6    2    3 ar
     7    3    4 ar
     8    3   37 1
     9    4    5 ar
    10    4   38 1
    11    5    6 ar
    12    5   39 1
    13    6    7 ar
    14    6   33 1
    15    7    8 1
    16    8    9 am
    17    8   40 1
    18    9   10 2
    19    9   11 1
    20   11   15 1
    21   11   12 2
    22   12   13 1
    23   12   41 1
    24   13   14 2
    25   14   15 1
    26   14   16 1
    27   16   17 1
    28   16   42 1
    29   17   22 ar
    30   17   18 ar
    31   18   19 ar
    32   18   43 1
    33   19   20 ar
    34   19   24 1
    35   20   21 ar
    36   21   22 ar
    37   21   23 1
    38   22   60 1
    39   23   44 1
    40   23   45 1
    41   23   46 1
    42   24   29 1
    43   24   25 1
    44   25   26 1
    45   25   47 1
    46   25   48 1
    47   26   27 1
    48   26   49 1
    49   26   50 1
    50   27   28 1
    51   27   30 1
    52   28   29 1
    53   28   51 1
    54   28   52 1
    55   29   53 1
    56   29   54 1
    57   30   31 1
    58   30   55 1
    59   30   56 1
    60   31   32 1
    61   31   57 1
    62   31   58 1
    63   32   59 1
@<TRIPOS>MOLECULE
ZINC21982951
   60    63     0     0     0
SMALL
USER_CHARGES

@<TRIPOS>ATOM
      1 C1          3.2739    6.6585    1.8418 C.3       1 <0>        -0.1168
      2 C2          2.5810    7.9910    1.9663 C.ar      1 <0>        -0.0823
      3 C3          2.8983    9.0189    1.0995 C.ar      1 <0>        -0.1038
      4 C4          2.2635   10.2419    1.2126 C.ar      1 <0>        -0.1008
      5 C5          1.3088   10.4411    2.1933 C.ar      1 <0>        -0.1049
      6 C6          0.9869    9.4175    3.0639 C.ar      1 <0>        -0.0226
      7 C7          1.6192    8.1849    2.9486 C.ar      1 <0>         0.1373
      8 N1          1.2913    7.1440    3.8238 N.am      1 <0>        -0.6678
      9 C8          1.3128    7.3511    5.1554 C.2       1 <0>         0.6036
     10 O1          1.5184    8.4680    5.5945 O.2       1 <0>        -0.4759
     11 C9          1.0891    6.2346    6.0728 C.2       1 <0>        -0.2694
     12 C10         1.0619    6.2190    7.4604 C.2       1 <0>         0.1522
     13 N2          0.8357    5.0596    8.0247 N.2       1 <0>        -0.5060
     14 C11         0.6446    3.9678    7.3056 C.2       1 <0>         0.2464
     15 S1          0.7674    4.5141    5.7185 S.3       1 <0>         0.2029
     16 N3          0.3973    2.6842    7.7505 N.pl3     1 <0>        -0.5650
     17 C12         0.2197    2.4414    9.1063 C.ar      1 <0>         0.4999
     18 C13        -0.1342    1.1736    9.5555 C.ar      1 <0>        -0.3181
     19 C14        -0.3003    0.9817   10.9244 C.ar      1 <0>         0.4940
     20 N4         -0.1157    2.0114   11.7481 N.ar      1 <0>        -0.5712
     21 C15         0.2193    3.1978   11.2829 C.ar      1 <0>         0.4509
     22 N5          0.3911    3.4178    9.9956 N.ar      1 <0>        -0.4879
     23 C16         0.4179    4.3344   12.2523 C.3       1 <0>        -0.1253
     24 N6         -0.6531   -0.2629   11.4224 N.pl3     1 <0>        -0.5744
     25 C17        -0.9639   -0.4449   12.8484 C.3       1 <0>         0.1013
     26 C18        -2.3114   -1.1652   12.9649 C.3       1 <0>         0.0387
     27 N7         -2.2712   -2.4031   12.1749 N.3       1 <0>        -0.5277
     28 C19        -2.0835   -2.1176   10.7462 C.3       1 <0>         0.0305
     29 C20        -0.7325   -1.4351   10.5377 C.3       1 <0>         0.1149
     30 C21        -3.4796   -3.2085   12.3965 C.3       1 <0>         0.0543
     31 C22        -3.2958   -4.5889   11.7629 C.3       1 <0>         0.0774
     32 O2         -2.2472   -5.2869   12.4378 O.3       1 <0>        -0.5615
     33 Cl1        -0.2110    9.6681    4.2952 Cl        1 <0>        -0.0453
     34 H1          2.7121    6.0191    1.1609 H         1 <0>         0.0767
     35 H2          4.2810    6.8077    1.4524 H         1 <0>         0.0779
     36 H3          3.3298    6.1850    2.8220 H         1 <0>         0.0648
     37 H4          3.6435    8.8670    0.3327 H         1 <0>         0.1365
     38 H5          2.5139   11.0437    0.5337 H         1 <0>         0.1383
     39 H6          0.8148   11.3976    2.2790 H         1 <0>         0.1396
     40 H7          1.0484    6.2731    3.4723 H         1 <0>         0.4083
     41 H8          1.2191    7.1147    8.0430 H         1 <0>         0.1979
     42 H9          0.3477    1.9521    7.1161 H         1 <0>         0.4525
     43 H10        -0.2767    0.3593    8.8606 H         1 <0>         0.1835
     44 H11         1.4596    4.3615   12.5720 H         1 <0>         0.1250
     45 H12         0.1626    5.2758   11.7656 H         1 <0>         0.1301
     46 H13        -0.2249    4.1881   13.1203 H         1 <0>         0.1049
     47 H14        -0.1857   -1.0458   13.3190 H         1 <0>         0.1119
     48 H15        -1.0251    0.5276   13.3369 H         1 <0>         0.0843
     49 H16        -2.5057   -1.4068   14.0099 H         1 <0>         0.1076
     50 H17        -3.1034   -0.5184   12.5874 H         1 <0>         0.0465
     51 H18        -2.1124   -3.0499   10.1822 H         1 <0>         0.1076
     52 H19        -2.8786   -1.4576   10.3996 H         1 <0>         0.0467
     53 H20        -0.6409   -1.1170    9.4992 H         1 <0>         0.1034
     54 H21         0.0684   -2.1330   10.7819 H         1 <0>         0.1075
     55 H22        -3.6507   -3.3200   13.4672 H         1 <0>         0.0925
     56 H23        -4.3362   -2.7111   11.9416 H         1 <0>         0.0553
     57 H24        -4.2233   -5.1548   11.8494 H         1 <0>         0.0565
     58 H25        -3.0370   -4.4741   10.7103 H         1 <0>         0.0456
     59 H26        -2.0752   -6.1719   12.0881 H         1 <0>         0.3821
     60 H27        -0.2297    1.8867   12.7033 H         1 <0>         0.4392
@<TRIPOS>BOND
     1    1    2 1
     2    1   34 1
     3    1   35 1
     4    1   36 1
     5    2    7 ar
     6    2    3 ar
     7    3    4 ar
     8    3   37 1
     9    4    5 ar
    10    4   38 1
    11    5    6 ar
    12    5   39 1
    13    6    7 ar
    14    6   33 1
    15    7    8 1
    16    8    9 am
    17    8   40 1
    18    9   10 2
    19    9   11 1
    20   11   15 1
    21   11   12 2
    22   12   13 1
    23   12   41 1
    24   13   14 2
    25   14   15 1
    26   14   16 1
    27   16   17 1
    28   16   42 1
    29   17   18 ar
    30   17   22 ar
    31   18   43 1
    32   18   19 ar
    33   19   24 1
    34   19   20 ar
    35   20   60 1
    36   20   21 ar
    37   21   23 1
    38   21   22 ar
    39   23   44 1
    40   23   45 1
    41   23   46 1
    42   24   29 1
    43   24   25 1
    44   25   26 1
    45   25   47 1
    46   25   48 1
    47   26   27 1
    48   26   49 1
    49   26   50 1
    50   27   28 1
    51   27   30 1
    52   28   29 1
    53   28   51 1
    54   28   52 1
    55   29   53 1
    56   29   54 1
    57   30   31 1
    58   30   55 1
    59   30   56 1
    60   31   32 1
    61   31   57 1
    62   31   58 1
    63   32   59 1
@<TRIPOS>MOLECULE
ZINC21982951
   59    62     0     0     0
SMALL
USER_CHARGES

@<TRIPOS>ATOM
      1 C1          3.4106    6.6420    1.8847 C.3       1 <0>        -0.1165
      2 C2          2.6976    7.9659    1.9845 C.ar      1 <0>        -0.0852
      3 C3          3.0204    8.9921    1.1176 C.ar      1 <0>        -0.1055
      4 C4          2.3672   10.2073    1.2080 C.ar      1 <0>        -0.1070
      5 C5          1.3885   10.4004    2.1660 C.ar      1 <0>        -0.1064
      6 C6          1.0609    9.3785    3.0365 C.ar      1 <0>        -0.0243
      7 C7          1.7118    8.1536    2.9438 C.ar      1 <0>         0.1460
      8 N1          1.3783    7.1144    3.8189 N.am      1 <0>        -0.6734
      9 C8          1.3676    7.3308    5.1492 C.2       1 <0>         0.6131
     10 O1          1.5489    8.4533    5.5848 O.2       1 <0>        -0.4899
     11 C9          1.1384    6.2176    6.0693 C.2       1 <0>        -0.3092
     12 C10         1.0807    6.2111    7.4561 C.2       1 <0>         0.1722
     13 N2          0.8573    5.0526    8.0233 N.2       1 <0>        -0.5180
     14 C11         0.6966    3.9535    7.3079 C.2       1 <0>         0.3121
     15 S1          0.8472    4.4907    5.7202 S.3       1 <0>         0.1340
     16 N3          0.4564    2.6698    7.7563 N.pl3     1 <0>        -0.5904
     17 C12         0.2490    2.4343    9.1091 C.ar      1 <0>         0.4412
     18 C13        -0.1036    1.1661    9.5586 C.ar      1 <0>        -0.3412
     19 C14        -0.3003    0.9817   10.9244 C.ar      1 <0>         0.4686
     20 N4         -0.1450    2.0186   11.7452 N.ar      1 <0>        -0.5923
     21 C15         0.1898    3.2050   11.2799 C.ar      1 <0>         0.3946
     22 N5          0.3901    3.4182    9.9956 N.ar      1 <0>        -0.5459
     23 C16         0.3546    4.3498   12.2460 C.3       1 <0>        -0.0834
     24 N6         -0.6531   -0.2629   11.4224 N.pl3     1 <0>        -0.5966
     25 C17        -1.0693   -0.4249   12.8237 C.3       1 <0>         0.1300
     26 C18        -2.3993   -1.1856   12.8517 C.3       1 <0>         0.0401
     27 N7         -2.2595   -2.4378   12.0965 N.3       1 <0>        -0.5276
     28 C19        -1.9688   -2.1765   10.6804 C.3       1 <0>         0.0363
     29 C20        -0.6270   -1.4554   10.5619 C.3       1 <0>         0.1269
     30 C21        -3.4565   -3.2768   12.2420 C.3       1 <0>         0.0537
     31 C22        -3.1814   -4.6636   11.6572 C.3       1 <0>         0.0792
     32 O2         -2.1684   -5.3132   12.4279 O.3       1 <0>        -0.5589
     33 Cl1        -0.1672    9.6214    4.2392 Cl        1 <0>        -0.0433
     34 H1          2.8725    5.9906    1.1961 H         1 <0>         0.0754
     35 H2          4.4240    6.8020    1.5166 H         1 <0>         0.0754
     36 H3          3.4510    6.1760    2.8692 H         1 <0>         0.0676
     37 H4          3.7844    8.8450    0.3685 H         1 <0>         0.1337
     38 H5          2.6220   11.0077    0.5292 H         1 <0>         0.1350
     39 H6          0.8801   11.3508    2.2339 H         1 <0>         0.1371
     40 H7          1.1547    6.2381    3.4683 H         1 <0>         0.4085
     41 H8          1.2132    7.1127    8.0357 H         1 <0>         0.1884
     42 H9          0.4325    1.9325    7.1264 H         1 <0>         0.4387
     43 H10        -0.2220    0.3459    8.8660 H         1 <0>         0.1413
     44 H11         1.3882    4.3890   12.5900 H         1 <0>         0.0870
     45 H12         0.1021    5.2855   11.7470 H         1 <0>         0.0890
     46 H13        -0.3072    4.2031   13.0995 H         1 <0>         0.0846
     47 H14        -0.3126   -0.9904   13.3674 H         1 <0>         0.0744
     48 H15        -1.1984    0.5551   13.2831 H         1 <0>         0.1008
     49 H16        -2.6676   -1.4113   13.8837 H         1 <0>         0.0903
     50 H17        -3.1785   -0.5727   12.3986 H         1 <0>         0.0372
     51 H18        -1.9249   -3.1208   10.1378 H         1 <0>         0.0905
     52 H19        -2.7540   -1.5497   10.2576 H         1 <0>         0.0380
     53 H20        -0.4638   -1.1563    9.5265 H         1 <0>         0.0877
     54 H21         0.1731   -2.1219   10.8840 H         1 <0>         0.0802
     55 H22        -3.7077   -3.3713   13.2985 H         1 <0>         0.0861
     56 H23        -4.2894   -2.8169   11.7102 H         1 <0>         0.0487
     57 H24        -4.0952   -5.2572   11.6843 H         1 <0>         0.0498
     58 H25        -2.8443   -4.5626   10.6256 H         1 <0>         0.0451
     59 H26        -1.9426   -6.1994   12.1134 H         1 <0>         0.3762
@<TRIPOS>BOND
     1    1    2 1
     2    1   34 1
     3    1   35 1
     4    1   36 1
     5    2    7 ar
     6    2    3 ar
     7    3    4 ar
     8    3   37 1
     9    4    5 ar
    10    4   38 1
    11    5    6 ar
    12    5   39 1
    13    6    7 ar
    14    6   33 1
    15    7    8 1
    16    8    9 am
    17    8   40 1
    18    9   10 2
    19    9   11 1
    20   11   15 1
    21   11   12 2
    22   12   13 1
    23   12   41 1
    24   13   14 2
    25   14   15 1
    26   14   16 1
    27   16   17 1
    28   16   42 1
    29   17   18 ar
    30   17   22 ar
    31   18   43 1
    32   18   19 ar
    33   19   24 1
    34   19   20 ar
    35   20   21 ar
    36   21   23 1
    37   21   22 ar
    38   23   44 1
    39   23   45 1
    40   23   46 1
    41   24   29 1
    42   24   25 1
    43   25   26 1
    44   25   47 1
    45   25   48 1
    46   26   27 1
    47   26   49 1
    48   26   50 1
    49   27   28 1
    50   27   30 1
    51   28   29 1
    52   28   51 1
    53   28   52 1
    54   29   53 1
    55   29   54 1
    56   30   31 1
    57   30   55 1
    58   30   56 1
    59   31   32 1
    60   31   57 1
    61   31   58 1
    62   32   59 1
@<TRIPOS>MOLECULE
ZINC21982951
   61    64     0     0     0
SMALL
USER_CHARGES

@<TRIPOS>ATOM
      1 C1          3.2770    6.6581    1.8427 C.3       1 <0>        -0.1166
      2 C2          2.5837    7.9904    1.9667 C.ar      1 <0>        -0.0814
      3 C3          2.9012    9.0183    1.0999 C.ar      1 <0>        -0.1028
      4 C4          2.2660   10.2411    1.2125 C.ar      1 <0>        -0.0975
      5 C5          1.3108   10.4402    2.1928 C.ar      1 <0>        -0.1039
      6 C6          0.9888    9.4167    3.0634 C.ar      1 <0>        -0.0218
      7 C7          1.6215    8.1842    2.9485 C.ar      1 <0>         0.1327
      8 N1          1.2933    7.1433    3.8237 N.am      1 <0>        -0.6648
      9 C8          1.3141    7.3507    5.1552 C.2       1 <0>         0.5983
     10 O1          1.5193    8.4677    5.5943 O.2       1 <0>        -0.4690
     11 C9          1.0903    6.2342    6.0727 C.2       1 <0>        -0.2500
     12 C10         1.0624    6.2188    7.4604 C.2       1 <0>         0.1439
     13 N2          0.8362    5.0594    8.0246 N.2       1 <0>        -0.4984
     14 C11         0.6458    3.9675    7.3056 C.2       1 <0>         0.2172
     15 S1          0.7692    4.5136    5.7185 S.3       1 <0>         0.2242
     16 N3          0.3986    2.6839    7.7506 N.pl3     1 <0>        -0.5513
     17 C12         0.2203    2.4413    9.1063 C.ar      1 <0>         0.5098
     18 C13        -0.1335    1.1734    9.5556 C.ar      1 <0>        -0.3097
     19 C14        -0.3003    0.9817   10.9244 C.ar      1 <0>         0.4927
     20 N4         -0.1163    2.0116   11.7481 N.ar      1 <0>        -0.5695
     21 C15         0.2187    3.1980   11.2828 C.ar      1 <0>         0.4589
     22 N5          0.3911    3.4178    9.9956 N.ar      1 <0>        -0.4762
     23 C16         0.4165    4.3348   12.2521 C.3       1 <0>        -0.1303
     24 N6         -0.6531   -0.2629   11.4224 N.pl3     1 <0>        -0.6123
     25 C17        -0.9643   -0.4465   12.8484 C.3       1 <0>         0.0782
     26 C18        -2.3027   -1.1838   12.9625 C.3       1 <0>        -0.0204
     27 N7         -2.2406   -2.4311   12.1903 N.4       1 <0>        -0.3852
     28 C19        -2.0770   -2.1279   10.7629 C.3       1 <0>        -0.0304
     29 C20        -0.7330   -1.4363   10.5388 C.3       1 <0>         0.0932
     30 C21        -3.4827   -3.1900   12.3886 C.3       1 <0>        -0.0061
     31 C22        -3.3702   -4.5448   11.6865 C.3       1 <0>         0.0434
     32 O2         -2.3479   -5.3224   12.3128 O.3       1 <0>        -0.5819
     33 Cl1        -0.2098    9.6671    4.2940 Cl        1 <0>        -0.0466
     34 H1          2.7157    6.0184    1.1617 H         1 <0>         0.0770
     35 H2          4.2843    6.8074    1.4538 H         1 <0>         0.0791
     36 H3          3.3325    6.1847    2.8230 H         1 <0>         0.0631
     37 H4          3.6468    8.8665    0.3335 H         1 <0>         0.1380
     38 H5          2.5166   11.0428    0.5336 H         1 <0>         0.1401
     39 H6          0.8165   11.3966    2.2780 H         1 <0>         0.1410
     40 H7          1.0508    6.2723    3.4722 H         1 <0>         0.4077
     41 H8          1.2191    7.1146    8.0429 H         1 <0>         0.2016
     42 H9          0.3494    1.9517    7.1163 H         1 <0>         0.4545
     43 H10        -0.2756    0.3590    8.8607 H         1 <0>         0.1860
     44 H11         1.4581    4.3621   12.5724 H         1 <0>         0.1309
     45 H12         0.1613    5.2760   11.7653 H         1 <0>         0.1358
     46 H13        -0.2267    4.1885   13.1199 H         1 <0>         0.1083
     47 H14        -0.1795   -1.0367   13.3215 H         1 <0>         0.1249
     48 H15        -1.0392    0.5259   13.3352 H         1 <0>         0.1232
     49 H16        -2.5028   -1.4138   14.0090 H         1 <0>         0.1602
     50 H17        -3.0999   -0.5526   12.5701 H         1 <0>         0.1410
     51 H18        -2.1110   -3.0537   10.1885 H         1 <0>         0.1585
     52 H19        -2.8811   -1.4682   10.4370 H         1 <0>         0.1418
     53 H20        -0.6550   -1.1179    9.4992 H         1 <0>         0.1416
     54 H21         0.0756   -2.1281   10.7747 H         1 <0>         0.1211
     55 H22        -3.6469   -3.3459   13.4548 H         1 <0>         0.1465
     56 H23        -4.3202   -2.6321   11.9697 H         1 <0>         0.1464
     57 H24        -4.3221   -5.0710   11.7578 H         1 <0>         0.1026
     58 H25        -3.1180   -4.3904   10.6374 H         1 <0>         0.0719
     59 H26        -2.2211   -6.1961   11.9183 H         1 <0>         0.4154
     60 H27        -0.2308    1.8869   12.7032 H         1 <0>         0.4393
     61 H28        -1.4578   -2.9831   12.5075 H         1 <0>         0.4359
@<TRIPOS>BOND
     1    1    2 1
     2    1   34 1
     3    1   35 1
     4    1   36 1
     5    2    7 ar
     6    2    3 ar
     7    3    4 ar
     8    3   37 1
     9    4    5 ar
    10    4   38 1
    11    5    6 ar
    12    5   39 1
    13    6    7 ar
    14    6   33 1
    15    7    8 1
    16    8    9 am
    17    8   40 1
    18    9   10 2
    19    9   11 1
    20   11   15 1
    21   11   12 2
    22   12   13 1
    23   12   41 1
    24   13   14 2
    25   14   15 1
    26   14   16 1
    27   16   17 1
    28   16   42 1
    29   17   18 ar
    30   17   22 ar
    31   18   43 1
    32   18   19 ar
    33   19   24 1
    34   19   20 ar
    35   20   60 1
    36   20   21 ar
    37   21   23 1
    38   21   22 ar
    39   23   44 1
    40   23   45 1
    41   23   46 1
    42   24   29 1
    43   24   25 1
    44   25   26 1
    45   25   47 1
    46   25   48 1
    47   26   27 1
    48   26   49 1
    49   26   50 1
    50   27   28 1
    51   27   30 1
    52   27   61 1
    53   28   29 1
    54   28   51 1
    55   28   52 1
    56   29   53 1
    57   29   54 1
    58   30   31 1
    59   30   55 1
    60   30   56 1
    61   31   32 1
    62   31   57 1
    63   31   58 1
    64   32   59 1
@<TRIPOS>MOLECULE
ZINC13588397
   46    49     0     0     0
SMALL
USER_CHARGES
N-(4-benzyloxyphenyl)-6-methoxy-quinazolin-4-amine
@<TRIPOS>ATOM
      1 C1         -0.3317    7.8324    0.5243 C.3       1 <0>         0.0238
      2 O1         -0.5717    6.4478    0.2650 O.3       1 <0>        -0.3140
      3 C2          0.3969    5.5722    0.6429 C.ar      1 <0>         0.1177
      4 C3          1.5591    6.0480    1.2544 C.ar      1 <0>        -0.1494
      5 C4          2.5467    5.1942    1.6433 C.ar      1 <0>        -0.0649
      6 C5          2.4006    3.8167    1.4300 C.ar      1 <0>         0.1569
      7 C6          1.2265    3.3288    0.8060 C.ar      1 <0>        -0.1526
      8 C7          0.2230    4.2235    0.4188 C.ar      1 <0>        -0.1201
      9 C8          1.1048    1.9316    0.6082 C.ar      1 <0>         0.4627
     10 N1          2.1010    1.1530    1.0090 N.ar      1 <0>        -0.5771
     11 C9          3.1822    1.6551    1.5839 C.ar      1 <0>         0.3349
     12 N2          3.3470    2.9389    1.7965 N.ar      1 <0>        -0.5392
     13 N3         -0.0169    1.3957    0.0097 N.pl3     1 <0>        -0.6353
     14 C10        -0.0665    0.0284   -0.2866 C.ar      1 <0>         0.1114
     15 C11         1.0869   -0.6406   -0.6748 C.ar      1 <0>        -0.0657
     16 C12         1.0382   -1.9905   -0.9618 C.ar      1 <0>        -0.1895
     17 C13        -0.1646   -2.6759   -0.8731 C.ar      1 <0>         0.1188
     18 C14        -1.3183   -2.0071   -0.4909 C.ar      1 <0>        -0.1316
     19 C15        -1.2702   -0.6585   -0.1980 C.ar      1 <0>        -0.1026
     20 O2         -0.2127   -4.0041   -1.1605 O.3       1 <0>        -0.3085
     21 C16         1.0129   -4.6289   -1.5473 C.3       1 <0>         0.1021
     22 C17         0.7665   -6.0896   -1.8244 C.ar      1 <0>        -0.0981
     23 C18         0.8901   -7.0166   -0.8064 C.ar      1 <0>        -0.0953
     24 C19         0.6589   -8.3558   -1.0593 C.ar      1 <0>        -0.1230
     25 C20         0.3148   -8.7693   -2.3327 C.ar      1 <0>        -0.1093
     26 C21         0.1967   -7.8430   -3.3519 C.ar      1 <0>        -0.1233
     27 C22         0.4223   -6.5031   -3.0977 C.ar      1 <0>        -0.0956
     28 H1         -1.1805    8.4200    0.1745 H         1 <0>         0.1042
     29 H2         -0.2017    7.9841    1.5959 H         1 <0>         0.0584
     30 H3          0.5701    8.1492    0.0005 H         1 <0>         0.0584
     31 H4          1.6767    7.1086    1.4210 H         1 <0>         0.1415
     32 H5          3.4397    5.5777    2.1142 H         1 <0>         0.1465
     33 H6         -0.6775    3.8611   -0.0547 H         1 <0>         0.1349
     34 H7          3.9644    0.9770    1.8916 H         1 <0>         0.1963
     35 H8         -0.7696    1.9670   -0.2094 H         1 <0>         0.4210
     36 H9          2.0226   -0.1062   -0.7482 H         1 <0>         0.1378
     37 H10         1.9360   -2.5120   -1.2591 H         1 <0>         0.1312
     38 H11        -2.2543   -2.5414   -0.4221 H         1 <0>         0.1352
     39 H12        -2.1684   -0.1382    0.1002 H         1 <0>         0.1321
     40 H13         1.3976   -4.1483   -2.4469 H         1 <0>         0.0717
     41 H14         1.7412   -4.5296   -0.7425 H         1 <0>         0.0725
     42 H15         1.1633   -6.6940    0.1875 H         1 <0>         0.1246
     43 H16         0.7508   -9.0795   -0.2629 H         1 <0>         0.1258
     44 H17         0.1378   -9.8161   -2.5311 H         1 <0>         0.1247
     45 H18        -0.0722   -8.1661   -4.3468 H         1 <0>         0.1257
     46 H19         0.3301   -5.7794   -3.8940 H         1 <0>         0.1242
@<TRIPOS>BOND
     1    1    2 1
     2    1   28 1
     3    1   29 1
     4    1   30 1
     5    2    3 1
     6    3    8 ar
     7    3    4 ar
     8    4    5 ar
     9    4   31 1
    10    5    6 ar
    11    5   32 1
    12    6   12 ar
    13    6    7 ar
    14    7    8 ar
    15    7    9 ar
    16    8   33 1
    17    9   10 ar
    18    9   13 1
    19   10   11 ar
    20   11   12 ar
    21   11   34 1
    22   13   14 1
    23   13   35 1
    24   14   19 ar
    25   14   15 ar
    26   15   16 ar
    27   15   36 1
    28   16   17 ar
    29   16   37 1
    30   17   18 ar
    31   17   20 1
    32   18   19 ar
    33   18   38 1
    34   19   39 1
    35   20   21 1
    36   21   22 1
    37   21   40 1
    38   21   41 1
    39   22   27 ar
    40   22   23 ar
    41   23   24 ar
    42   23   42 1
    43   24   25 ar
    44   24   43 1
    45   25   26 ar
    46   25   44 1
    47   26   27 ar
    48   26   45 1
    49   27   46 1
@<TRIPOS>MOLECULE
ZINC06717782
   67    72     0     0     0
SMALL
USER_CHARGES
morpholin-3-ylmethyl [5-[1-[(3-fluorophenyl)methyl]indazol-5-yl]amino-7-methyl-1,2,4-triazabicyclo[4.3.0]nona-2,4,6,8-tetraen-8-yl]aminoformate
@<TRIPOS>ATOM
      1 C1          0.2962   -6.9101    4.7585 C.3       1 <0>        -0.0941
      2 C2          0.3825   -6.1089    6.0319 C.2       1 <0>        -0.1078
      3 C3          0.2931   -6.6068    7.3369 C.2       1 <0>         0.0740
      4 C4          0.4199   -5.5542    8.1951 C.2       1 <0>         0.0579
      5 N1          0.5850   -4.4193    7.4764 N.pl3     1 <0>        -0.2280
      6 C5          0.5645   -4.7431    6.1333 C.2       1 <0>        -0.0825
      7 C6          0.7204   -3.7052    5.1862 C.2       1 <0>         0.5250
      8 N2          0.8858   -2.4632    5.6110 N.2       1 <0>        -0.6045
      9 C7          0.8980   -2.1654    6.9089 C.2       1 <0>         0.3361
     10 N3          0.7597   -3.0750    7.8342 N.2       1 <0>        -0.3478
     11 N4          0.7060   -3.9852    3.8334 N.pl3     1 <0>        -0.6187
     12 C8          0.7448   -2.9408    2.9019 C.ar      1 <0>         0.1014
     13 C9          0.1166   -1.7286    3.1913 C.ar      1 <0>        -0.0501
     14 C10         0.1421   -0.6984    2.2965 C.ar      1 <0>        -0.1226
     15 C11         0.8004   -0.8477    1.0781 C.ar      1 <0>         0.1294
     16 C12         1.4375   -2.0661    0.7756 C.ar      1 <0>        -0.1631
     17 C13         1.4040   -3.1152    1.7014 C.ar      1 <0>        -0.0595
     18 C14         2.0244   -1.9047   -0.5508 C.2       1 <0>         0.0748
     19 N5          1.7415   -0.7036   -0.9680 N.2       1 <0>        -0.2412
     20 N6          0.9983   -0.0212    0.0006 N.pl3     1 <0>        -0.3992
     21 C15         0.5049    1.3530   -0.1187 C.3       1 <0>         0.1821
     22 C16         1.5352    2.3060    0.4303 C.ar      1 <0>        -0.0922
     23 C17         2.5071    2.8282   -0.4032 C.ar      1 <0>        -0.1020
     24 C18         3.4530    3.7021    0.0990 C.ar      1 <0>        -0.0908
     25 C19         3.4277    4.0556    1.4350 C.ar      1 <0>        -0.1432
     26 C20         2.4549    3.5338    2.2703 C.ar      1 <0>         0.0982
     27 C21         1.5049    2.6621    1.7650 C.ar      1 <0>        -0.1343
     28 F1          2.4295    3.8783    3.5764 F         1 <0>        -0.1366
     29 N7          0.1065   -7.9529    7.6988 N.am      1 <0>        -0.6055
     30 C22         0.0376   -8.2975    9.0000 C.2       1 <0>         0.6543
     31 O1          0.1368   -7.4450    9.8604 O.2       1 <0>        -0.5400
     32 O2         -0.1411   -9.5864    9.3466 O.3       1 <0>        -0.3809
     33 C23        -0.2057   -9.8844   10.7662 C.3       1 <0>         0.0612
     34 C24        -0.4106  -11.3878   10.9629 C.3       1 <0>         0.0017
     35 H1         -1.2925  -11.7105   10.4096 H         1 <0>         0.1613
     36 C25        -0.6035  -11.6869   12.4520 C.3       1 <0>         0.0444
     37 O3         -0.7194  -13.1002   12.6380 O.3       1 <0>        -0.3484
     38 C26         0.4139  -13.8372   12.1713 C.3       1 <0>         0.0311
     39 C27         0.6171  -13.5598   10.6795 C.3       1 <0>        -0.0388
     40 H2          1.3014   -7.1375    4.4035 H         1 <0>         0.0796
     41 H3         -0.2406   -7.8393    4.9495 H         1 <0>         0.0742
     42 H4         -0.2345   -6.3329    4.0013 H         1 <0>         0.0707
     43 H5          0.3935   -5.6164    9.2730 H         1 <0>         0.2038
     44 H6          1.0314   -1.1357    7.2061 H         1 <0>         0.2239
     45 H7          0.6689   -4.9055    3.5289 H         1 <0>         0.4221
     46 H8         -0.3958   -1.6044    4.1338 H         1 <0>         0.1431
     47 H9         -0.3480    0.2343    2.5338 H         1 <0>         0.1286
     48 H10         1.8895   -4.0538    1.4783 H         1 <0>         0.1327
     49 H11         2.5888   -2.6497   -1.0918 H         1 <0>         0.1981
     50 H12         0.3199    1.5829   -1.1680 H         1 <0>         0.1095
     51 H13        -0.4223    1.4563    0.4449 H         1 <0>         0.1030
     52 H14         2.5274    2.5528   -1.4472 H         1 <0>         0.1335
     53 H15         4.2119    4.1090   -0.5528 H         1 <0>         0.1374
     54 H16         4.1665    4.7390    1.8270 H         1 <0>         0.1385
     55 H17         0.7428    2.2578    2.4148 H         1 <0>         0.1346
     56 H18         0.0273   -8.6333    7.0121 H         1 <0>         0.4223
     57 H19         0.7249   -9.5788   11.2444 H         1 <0>         0.1031
     58 H20        -1.0390   -9.3426   11.2136 H         1 <0>         0.1258
     59 H21         0.2545  -11.3152   13.0120 H         1 <0>         0.0888
     60 H22        -1.5100  -11.1968   12.8072 H         1 <0>         0.1475
     61 H23         1.3015  -13.5280   12.7233 H         1 <0>         0.0844
     62 H24         0.2431  -14.9028   12.3241 H         1 <0>         0.1452
     63 H25         1.5132  -14.0743   10.3324 H         1 <0>         0.1479
     64 H26        -0.2477  -13.9186   10.1214 H         1 <0>         0.1424
     65 N8          0.7776  -12.1086   10.4681 N.4       1 <0>        -0.5166
     66 H27         1.6084  -11.7817   10.9752 H         1 <0>         0.4316
     67 H28         0.8939  -11.9227    9.4650 H         1 <0>         0.4432
@<TRIPOS>BOND
     1    1    2 1
     2    1   40 1
     3    1   41 1
     4    1   42 1
     5    2    6 2
     6    2    3 1
     7    3    4 2
     8    3   29 1
     9    4    5 1
    10    4   43 1
    11    5   10 1
    12    5    6 1
    13    6    7 1
    14    7    8 2
    15    7   11 1
    16    8    9 1
    17    9   10 2
    18    9   44 1
    19   11   12 1
    20   11   45 1
    21   12   17 ar
    22   12   13 ar
    23   13   14 ar
    24   13   46 1
    25   14   15 ar
    26   14   47 1
    27   15   20 1
    28   15   16 ar
    29   16   17 ar
    30   16   18 1
    31   17   48 1
    32   18   19 2
    33   18   49 1
    34   19   20 1
    35   20   21 1
    36   21   22 1
    37   21   50 1
    38   21   51 1
    39   22   27 ar
    40   22   23 ar
    41   23   24 ar
    42   23   52 1
    43   24   25 ar
    44   24   53 1
    45   25   26 ar
    46   25   54 1
    47   26   27 ar
    48   26   28 1
    49   27   55 1
    50   29   30 am
    51   29   56 1
    52   30   31 2
    53   30   32 1
    54   32   33 1
    55   33   34 1
    56   33   57 1
    57   33   58 1
    58   34   35 1
    59   34   36 1
    60   34   65 1
    61   36   37 1
    62   36   59 1
    63   36   60 1
    64   37   38 1
    65   38   39 1
    66   38   61 1
    67   38   62 1
    68   39   63 1
    69   39   64 1
    70   39   65 1
    71   65   66 1
    72   65   67 1
@<TRIPOS>MOLECULE
ZINC03916214
   70    73     0     0     0
SMALL
USER_CHARGES
N-[4-[3-chloro-4-(2-pyridylmethoxy)phenyl]amino-3-cyano-7-ethoxy-6-quinolyl]-4-dimethylamino-but-2-enamide
@<TRIPOS>ATOM
      1 C1         -1.3435   -4.8605    1.2145 C.3       1 <0>        -0.1532
      2 C2         -0.8206   -3.6485    0.4409 C.3       1 <0>         0.0512
      3 O1         -0.7762   -2.5132    1.3075 O.3       1 <0>        -0.3153
      4 C3         -0.3315   -1.3463    0.7729 C.ar      1 <0>         0.1520
      5 C4          0.0490   -1.3044   -0.5485 C.ar      1 <0>        -0.1838
      6 C5          0.5088   -0.1020   -1.1068 C.ar      1 <0>         0.1876
      7 C6          0.5745    1.0573   -0.2963 C.ar      1 <0>        -0.1321
      8 C7          0.1877    0.9938    1.0500 C.ar      1 <0>        -0.0570
      9 C8         -0.2655   -0.1960    1.5742 C.ar      1 <0>         0.1162
     10 N1         -0.6580   -0.2600    2.9164 N.am      1 <0>        -0.6450
     11 C9         -0.1570    0.6182    3.8076 C.2       1 <0>         0.5322
     12 O2          0.7147    1.3965    3.4703 O.2       1 <0>        -0.5063
     13 C10        -0.6643    0.6355    5.1879 C.2       1 <0>        -0.1303
     14 C11        -0.1699    1.5022    6.0674 C.2       1 <0>        -0.1459
     15 C12        -0.6898    1.5199    7.4818 C.3       1 <0>         0.0294
     16 C13         0.0020    1.6102    9.8004 C.3       1 <0>        -0.0430
     17 C14         1.0434    0.0331    8.2868 C.3       1 <0>        -0.0463
     18 C15         1.0388    2.2669   -0.8641 C.ar      1 <0>         0.2897
     19 C16         1.4145    2.2537   -2.2161 C.ar      1 <0>        -0.1064
     20 C17         1.3169    1.0572   -2.9444 C.ar      1 <0>         0.2013
     21 N2          0.8833   -0.0478   -2.3937 N.ar      1 <0>        -0.4767
     22 C18         1.8918    3.4477   -2.8462 C.1       1 <0>         0.2487
     23 N3          2.2704    4.3949   -3.3462 N.1       1 <0>        -0.3871
     24 N4          1.1196    3.4220   -0.1131 N.pl3     1 <0>        -0.6993
     25 C19         2.3688    3.9817    0.1775 C.ar      1 <0>         0.1577
     26 C20         3.4719    3.1589    0.3662 C.ar      1 <0>        -0.1073
     27 C21         4.7056    3.7118    0.6477 C.ar      1 <0>        -0.1633
     28 C22         4.8416    5.0880    0.7536 C.ar      1 <0>         0.1202
     29 C23         3.7391    5.9112    0.5705 C.ar      1 <0>        -0.0342
     30 C24         2.5051    5.3596    0.2830 C.ar      1 <0>        -0.1089
     31 Cl1         3.9103    7.6336    0.7032 Cl        1 <0>        -0.0454
     32 O3          6.0560    5.6312    1.0365 O.3       1 <0>        -0.3005
     33 C25         7.1469    4.7251    1.2125 C.3       1 <0>         0.1147
     34 C26         8.4015    5.5025    1.5169 C.ar      1 <0>         0.1177
     35 C27         8.3521    6.8825    1.5781 C.ar      1 <0>        -0.1480
     36 C28         9.5106    7.5879    1.8648 C.ar      1 <0>        -0.0734
     37 C29        10.6832    6.8762    2.0687 C.ar      1 <0>        -0.1686
     38 C30        10.6570    5.4971    1.9855 C.ar      1 <0>         0.1047
     39 N5          9.5347    4.8587    1.7165 N.ar      1 <0>        -0.4807
     40 H1         -1.3774   -5.7265    0.5535 H         1 <0>         0.0857
     41 H2         -0.6802   -5.0697    2.0538 H         1 <0>         0.0663
     42 H3         -2.3456   -4.6487    1.5875 H         1 <0>         0.0674
     43 H4         -1.4839   -3.4393   -0.3983 H         1 <0>         0.0725
     44 H5          0.1815   -3.8603    0.0679 H         1 <0>         0.0716
     45 H6         -0.0057   -2.1961   -1.1554 H         1 <0>         0.1549
     46 H7          0.2367    1.8763    1.6706 H         1 <0>         0.1647
     47 H8         -1.2905   -0.9364    3.2051 H         1 <0>         0.4215
     48 H9         -1.4384   -0.0556    5.4874 H         1 <0>         0.1445
     49 H10         0.6041    2.1933    5.7679 H         1 <0>         0.1539
     50 H11        -1.1916    2.4685    7.6726 H         1 <0>         0.1457
     51 H12        -1.3960    0.7011    7.6196 H         1 <0>         0.1383
     52 H13        -0.7809    0.9014   10.0703 H         1 <0>         0.1244
     53 H14         0.8513    1.4867   10.4723 H         1 <0>         0.1251
     54 H15        -0.3831    2.6264    9.8845 H         1 <0>         0.1235
     55 H16         1.4154   -0.0972    7.2706 H         1 <0>         0.1207
     56 H17         1.8706   -0.0570    8.9909 H         1 <0>         0.1251
     57 H18         0.2982   -0.7328    8.5019 H         1 <0>         0.1242
     58 H19         1.6064    1.0488   -3.9848 H         1 <0>         0.1754
     59 H20         0.3105    3.8459    0.2133 H         1 <0>         0.4181
     60 H21         3.3656    2.0869    0.2886 H         1 <0>         0.1306
     61 H22         5.5640    3.0720    0.7900 H         1 <0>         0.1425
     62 H23         1.6470    5.9998    0.1409 H         1 <0>         0.1425
     63 H24         6.9283    4.0497    2.0396 H         1 <0>         0.0862
     64 H25         7.2901    4.1471    0.2996 H         1 <0>         0.0880
     65 H26         7.4218    7.4045    1.4091 H         1 <0>         0.1448
     66 H27         9.5011    8.6662    1.9232 H         1 <0>         0.1384
     67 H28        11.6053    7.3933    2.2894 H         1 <0>         0.1394
     68 H29        11.5659    4.9355    2.1431 H         1 <0>         0.1618
     69 N6          0.4514    1.3817    8.4109 N.4       1 <0>        -0.3972
     70 H30         1.1632    2.0818    8.1712 H         1 <0>         0.4346
@<TRIPOS>BOND
     1    1    2 1
     2    1   40 1
     3    1   41 1
     4    1   42 1
     5    2    3 1
     6    2   43 1
     7    2   44 1
     8    3    4 1
     9    4    9 ar
    10    4    5 ar
    11    5    6 ar
    12    5   45 1
    13    6   21 ar
    14    6    7 ar
    15    7    8 ar
    16    7   18 ar
    17    8    9 ar
    18    8   46 1
    19    9   10 1
    20   10   11 am
    21   10   47 1
    22   11   12 2
    23   11   13 1
    24   13   14 2
    25   13   48 1
    26   14   15 1
    27   14   49 1
    28   15   50 1
    29   15   51 1
    30   15   69 1
    31   16   52 1
    32   16   53 1
    33   16   54 1
    34   16   69 1
    35   17   55 1
    36   17   56 1
    37   17   57 1
    38   17   69 1
    39   18   19 ar
    40   18   24 1
    41   19   20 ar
    42   19   22 1
    43   20   21 ar
    44   20   58 1
    45   22   23 3
    46   24   25 1
    47   24   59 1
    48   25   30 ar
    49   25   26 ar
    50   26   27 ar
    51   26   60 1
    52   27   28 ar
    53   27   61 1
    54   28   29 ar
    55   28   32 1
    56   29   30 ar
    57   29   31 1
    58   30   62 1
    59   32   33 1
    60   33   34 1
    61   33   63 1
    62   33   64 1
    63   34   39 ar
    64   34   35 ar
    65   35   36 ar
    66   35   65 1
    67   36   37 ar
    68   36   66 1
    69   37   38 ar
    70   37   67 1
    71   38   39 ar
    72   38   68 1
    73   69   70 1
@<TRIPOS>MOLECULE
ZINC13682420
   36    38     0     0     0
SMALL
USER_CHARGES

@<TRIPOS>ATOM
      1 C1          2.3641    1.4252    0.5325 C.3       1 <0>        -0.0595
      2 C2          2.3790   -0.0378    0.3708 C.1       1 <0>        -0.0563
      3 C3          2.3908   -1.2047    0.2419 C.1       1 <0>        -0.2481
      4 C4          2.4052   -2.6279    0.0846 C.2       1 <0>         0.6300
      5 O1          3.4612   -3.2125   -0.0654 O.2       1 <0>        -0.4478
      6 N1          1.2487   -3.3197    0.1029 N.am      1 <0>        -0.6522
      7 C5          1.2519   -4.6908   -0.1540 C.ar      1 <0>         0.3479
      8 C6          0.0470   -5.3665   -0.2414 C.ar      1 <0>        -0.1671
      9 C7          0.0741   -6.7385   -0.4992 C.ar      1 <0>        -0.1229
     10 C8          1.3296   -7.3791   -0.6600 C.ar      1 <0>         0.1018
     11 C9          2.4947   -6.6085   -0.5535 C.ar      1 <0>         0.1920
     12 N2          2.4112   -5.3194   -0.3149 N.ar      1 <0>        -0.4451
     13 N3          1.3485   -8.6955   -0.9076 N.ar      1 <0>        -0.5178
     14 C10         0.2348   -9.3793   -1.0000 C.ar      1 <0>         0.3375
     15 N4         -0.9700   -8.8491   -0.8620 N.ar      1 <0>        -0.5667
     16 C11        -1.1310   -7.5544   -0.6134 C.ar      1 <0>         0.4616
     17 N5         -2.3869   -7.0027   -0.4688 N.pl3     1 <0>        -0.6290
     18 C12        -3.5175   -7.8265   -0.4734 C.ar      1 <0>         0.1535
     19 C13        -3.4404   -9.1160    0.0372 C.ar      1 <0>        -0.0782
     20 C14        -4.5576   -9.9279    0.0323 C.ar      1 <0>        -0.1185
     21 C15        -5.7545   -9.4578   -0.4811 C.ar      1 <0>         0.0981
     22 C16        -5.8341   -8.1720   -0.9915 C.ar      1 <0>        -0.0544
     23 C17        -4.7196   -7.3543   -0.9832 C.ar      1 <0>        -0.1112
     24 Cl1        -7.3358   -7.5856   -1.6356 Cl        1 <0>        -0.0405
     25 F1         -6.8461  -10.2538   -0.4848 F         1 <0>        -0.1241
     26 H1          1.3362    1.7669    0.6537 H         1 <0>         0.0953
     27 H2          2.9444    1.6993    1.4136 H         1 <0>         0.0947
     28 H3          2.8008    1.8927   -0.3500 H         1 <0>         0.0960
     29 H4          0.4141   -2.8642    0.2947 H         1 <0>         0.4224
     30 H5         -0.8904   -4.8457   -0.1130 H         1 <0>         0.1417
     31 H6          3.4620   -7.0738   -0.6720 H         1 <0>         0.1861
     32 H7          0.3040  -10.4382   -1.2009 H         1 <0>         0.2017
     33 H8         -2.4861   -6.0435   -0.3639 H         1 <0>         0.4250
     34 H9         -2.5072   -9.4837    0.4375 H         1 <0>         0.1554
     35 H10        -4.4976  -10.9307    0.4290 H         1 <0>         0.1520
     36 H11        -4.7827   -6.3506   -1.3769 H         1 <0>         0.1465
@<TRIPOS>BOND
     1    1    2 1
     2    1   26 1
     3    1   27 1
     4    1   28 1
     5    2    3 3
     6    3    4 1
     7    4    5 2
     8    4    6 am
     9    6    7 1
    10    6   29 1
    11    7   12 ar
    12    7    8 ar
    13    8    9 ar
    14    8   30 1
    15    9   16 ar
    16    9   10 ar
    17   10   11 ar
    18   10   13 ar
    19   11   12 ar
    20   11   31 1
    21   13   14 ar
    22   14   15 ar
    23   14   32 1
    24   15   16 ar
    25   16   17 1
    26   17   18 1
    27   17   33 1
    28   18   23 ar
    29   18   19 ar
    30   19   20 ar
    31   19   34 1
    32   20   21 ar
    33   20   35 1
    34   21   22 ar
    35   21   25 1
    36   22   23 ar
    37   22   24 1
    38   23   36 1
@<TRIPOS>MOLECULE
ZINC16697102
   68    71     0     0     0
SMALL
USER_CHARGES

@<TRIPOS>ATOM
      1 C1          0.1414    1.0953    0.0252 C.3       1 <0>        -0.1879
      2 C2          0.0344   -0.4077    0.2904 C.3       1 <0>        -0.0179
      3 N1         -1.3805   -0.7845    0.4095 N.4       1 <0>        -0.3831
      4 C3         -1.4799   -2.1986    0.7946 C.3       1 <0>        -0.0114
      5 C4         -0.8914   -2.3887    2.1940 C.3       1 <0>        -0.1507
      6 C5         -0.9950   -3.8615    2.5951 C.3       1 <0>         0.0609
      7 O1         -0.4452   -4.0391    3.9021 O.3       1 <0>        -0.3065
      8 C6         -0.4595   -5.2979    4.4111 C.ar      1 <0>         0.1651
      9 C7         -0.9928   -6.3439    3.6526 C.ar      1 <0>        -0.2107
     10 C8         -1.0196   -7.6158    4.1389 C.ar      1 <0>        -0.0238
     11 C9         -0.5074   -7.8823    5.4144 C.ar      1 <0>        -0.2178
     12 C10         0.0354   -6.8287    6.1913 C.ar      1 <0>         0.2289
     13 C11         0.0571   -5.5307    5.6679 C.ar      1 <0>        -0.1455
     14 N2          0.5204   -7.1100    7.4103 N.ar      1 <0>        -0.5500
     15 C12         0.4909   -8.3384    7.8707 C.ar      1 <0>         0.3626
     16 N3         -0.0056   -9.3531    7.1820 N.ar      1 <0>        -0.5775
     17 C13        -0.5106   -9.1853    5.9662 C.ar      1 <0>         0.4884
     18 N4         -1.0254  -10.2523    5.2597 N.pl3     1 <0>        -0.5978
     19 C14        -1.0192  -11.5341    5.8239 C.2       1 <0>         0.2990
     20 C15        -0.5280  -11.8736    7.0950 C.2       1 <0>        -0.2355
     21 C16        -0.7031  -13.2037    7.2657 C.2       1 <0>         0.1068
     22 N5         -1.2824  -13.6919    6.1487 N.pl3     1 <0>        -0.4559
     23 H1         -1.5251  -14.6176    5.9907 H         1 <0>         0.4419
     24 N6         -1.4765  -12.6271    5.2595 N.2       1 <0>        -0.3116
     25 C17        -0.3191  -13.9996    8.4864 C.3       1 <0>        -0.0770
     26 C18        -1.4265  -13.9219    9.5056 C.2       1 <0>         0.5143
     27 O2         -2.4289  -13.2831    9.2644 O.2       1 <0>        -0.5002
     28 N7         -1.3030  -14.5622   10.6851 N.am      1 <0>        -0.6720
     29 C19        -2.2828  -14.4064   11.6717 C.ar      1 <0>         0.1711
     30 C20        -1.9219  -14.3818   13.0129 C.ar      1 <0>        -0.1532
     31 C21        -2.8902  -14.2274   13.9854 C.ar      1 <0>        -0.0700
     32 C22        -4.2191  -14.0976   13.6262 C.ar      1 <0>        -0.1667
     33 C23        -4.5833  -14.1215   12.2902 C.ar      1 <0>         0.1178
     34 C24        -3.6165  -14.2702   11.3118 C.ar      1 <0>        -0.1591
     35 F1         -5.8825  -13.9949   11.9421 F         1 <0>        -0.1354
     36 C25        -2.0519   -0.5800   -0.8810 C.3       1 <0>        -0.0098
     37 C26        -3.5535   -0.8247   -0.7191 C.3       1 <0>         0.0446
     38 O3         -4.1050    0.1610    0.1562 O.3       1 <0>        -0.5793
     39 H2          1.1903    1.3917    0.0323 H         1 <0>         0.1072
     40 H3         -0.2944    1.3246   -0.9472 H         1 <0>         0.0804
     41 H4         -0.3955    1.6404    0.8016 H         1 <0>         0.0817
     42 H5          0.4880   -0.9556   -0.5355 H         1 <0>         0.1307
     43 H6          0.5544   -0.6511    1.2170 H         1 <0>         0.1338
     44 H7         -2.5269   -2.5019    0.7965 H         1 <0>         0.1336
     45 H8         -0.9261   -2.8092    0.0814 H         1 <0>         0.1348
     46 H9          0.1556   -2.0854    2.1921 H         1 <0>         0.1011
     47 H10        -1.4452   -1.7781    2.9071 H         1 <0>         0.1012
     48 H11        -2.0419   -4.1648    2.5970 H         1 <0>         0.0752
     49 H12        -0.4411   -4.4721    1.8820 H         1 <0>         0.0757
     50 H13        -1.3888   -6.1408    2.6686 H         1 <0>         0.1349
     51 H14        -1.4346   -8.4154    3.5432 H         1 <0>         0.1334
     52 H15         0.4712   -4.7175    6.2456 H         1 <0>         0.1508
     53 H16         0.8901   -8.5298    8.8558 H         1 <0>         0.2027
     54 H17        -1.3916  -10.1149    4.3721 H         1 <0>         0.4252
     55 H18        -0.0885  -11.1933    7.8093 H         1 <0>         0.1852
     56 H19        -0.1563  -15.0401    8.2054 H         1 <0>         0.1142
     57 H20         0.5968  -13.5910    8.9133 H         1 <0>         0.1312
     58 H21        -0.5348  -15.1312   10.8499 H         1 <0>         0.4166
     59 H22        -0.8844  -14.4838   13.2950 H         1 <0>         0.1350
     60 H23        -2.6091  -14.2084   15.0280 H         1 <0>         0.1399
     61 H24        -4.9744  -13.9777   14.3888 H         1 <0>         0.1383
     62 H25        -3.8995  -14.2849   10.2696 H         1 <0>         0.1494
     63 H26        -1.8848    0.4425   -1.2196 H         1 <0>         0.1421
     64 H27        -1.6474   -1.2765   -1.6154 H         1 <0>         0.1431
     65 H28        -4.0394   -0.7588   -1.6926 H         1 <0>         0.0960
     66 H29        -3.7166   -1.8167   -0.2980 H         1 <0>         0.0707
     67 H30        -5.0389    0.0226    0.3657 H         1 <0>         0.4093
     68 H31        -1.8228   -0.2123    1.1131 H         1 <0>         0.4316
@<TRIPOS>BOND
     1    1    2 1
     2    1   39 1
     3    1   40 1
     4    1   41 1
     5    2    3 1
     6    2   42 1
     7    2   43 1
     8    3    4 1
     9    3   36 1
    10    3   68 1
    11    4    5 1
    12    4   44 1
    13    4   45 1
    14    5    6 1
    15    5   46 1
    16    5   47 1
    17    6    7 1
    18    6   48 1
    19    6   49 1
    20    7    8 1
    21    8   13 ar
    22    8    9 ar
    23    9   10 ar
    24    9   50 1
    25   10   11 ar
    26   10   51 1
    27   11   17 ar
    28   11   12 ar
    29   12   13 ar
    30   12   14 ar
    31   13   52 1
    32   14   15 ar
    33   15   16 ar
    34   15   53 1
    35   16   17 ar
    36   17   18 1
    37   18   19 1
    38   18   54 1
    39   19   24 2
    40   19   20 1
    41   20   21 2
    42   20   55 1
    43   21   22 1
    44   21   25 1
    45   22   23 1
    46   22   24 1
    47   25   26 1
    48   25   56 1
    49   25   57 1
    50   26   27 2
    51   26   28 am
    52   28   29 1
    53   28   58 1
    54   29   34 ar
    55   29   30 ar
    56   30   31 ar
    57   30   59 1
    58   31   32 ar
    59   31   60 1
    60   32   33 ar
    61   32   61 1
    62   33   34 ar
    63   33   35 1
    64   34   62 1
    65   36   37 1
    66   36   63 1
    67   36   64 1
    68   37   38 1
    69   37   65 1
    70   37   66 1
    71   38   67 1
@<TRIPOS>MOLECULE
ZINC16697102
   68    71     0     0     0
SMALL
USER_CHARGES

@<TRIPOS>ATOM
      1 C1          0.1009    1.0895    0.0671 C.3       1 <0>        -0.1880
      2 C2          0.0005   -0.4150    0.3267 C.3       1 <0>        -0.0178
      3 N1         -1.4127   -0.7982    0.4447 N.4       1 <0>        -0.3831
      4 C3         -1.5060   -2.2142    0.8244 C.3       1 <0>        -0.0114
      5 C4         -0.9163   -2.4070    2.2230 C.3       1 <0>        -0.1510
      6 C5         -1.0135   -3.8818    2.6185 C.3       1 <0>         0.0610
      7 O1         -0.4626   -4.0619    3.9247 O.3       1 <0>        -0.3058
      8 C6         -0.4714   -5.3227    4.4290 C.ar      1 <0>         0.1652
      9 C7         -1.0003   -6.3681    3.6667 C.ar      1 <0>        -0.2079
     10 C8         -1.0216   -7.6420    4.1481 C.ar      1 <0>        -0.0271
     11 C9         -0.5079   -7.9111    5.4225 C.ar      1 <0>        -0.2157
     12 C10         0.0306   -6.8581    6.2032 C.ar      1 <0>         0.2279
     13 C11         0.0466   -5.5580    5.6848 C.ar      1 <0>        -0.1434
     14 N2          0.5172   -7.1419    7.4211 N.ar      1 <0>        -0.5462
     15 C12         0.4930   -8.3722    7.8768 C.ar      1 <0>         0.3627
     16 N3          0.0007   -9.3864    7.1844 N.ar      1 <0>        -0.5729
     17 C13        -0.5054   -9.2161    5.9694 C.ar      1 <0>         0.4842
     18 N4         -1.0159  -10.2829    5.2588 N.pl3     1 <0>        -0.6133
     19 C14        -1.0041  -11.5601    5.8152 C.2       1 <0>         0.2975
     20 C15        -0.5278  -11.8985    7.0451 C.2       1 <0>        -0.2522
     21 C16        -0.7053  -13.2747    7.2096 C.2       1 <0>         0.0931
     22 N5         -1.2647  -13.7522    6.1276 N.2       1 <0>        -0.2441
     23 N6         -1.4709  -12.6946    5.2325 N.pl3     1 <0>        -0.4898
     24 H1         -1.8732  -12.7611    4.3523 H         1 <0>         0.4364
     25 C17        -0.3175  -14.0738    8.4270 C.3       1 <0>        -0.0571
     26 C18        -1.5188  -14.8275    8.9368 C.2       1 <0>         0.5153
     27 O2         -2.5849  -14.7257    8.3676 O.2       1 <0>        -0.4982
     28 N7         -1.4084  -15.6146   10.0253 N.am      1 <0>        -0.6749
     29 C19        -2.5443  -16.2321   10.5602 C.ar      1 <0>         0.1739
     30 C20        -2.6655  -16.3952   11.9344 C.ar      1 <0>        -0.1553
     31 C21        -3.7876  -17.0044   12.4607 C.ar      1 <0>        -0.0709
     32 C22        -4.7909  -17.4530   11.6216 C.ar      1 <0>        -0.1690
     33 C23        -4.6742  -17.2924   10.2511 C.ar      1 <0>         0.1173
     34 C24        -3.5547  -16.6775    9.7191 C.ar      1 <0>        -0.1594
     35 F1         -5.6558  -17.7320    9.4336 F         1 <0>        -0.1360
     36 C25        -2.0854   -0.5918   -0.8449 C.3       1 <0>        -0.0099
     37 C26        -3.5858   -0.8435   -0.6835 C.3       1 <0>         0.0446
     38 O3         -4.1414    0.1365    0.1957 O.3       1 <0>        -0.5792
     39 H2          1.1486    1.3904    0.0751 H         1 <0>         0.1074
     40 H3         -0.3361    1.3206   -0.9043 H         1 <0>         0.0805
     41 H4         -0.4380    1.6293    0.8457 H         1 <0>         0.0817
     42 H5          0.4562   -0.9578   -0.5014 H         1 <0>         0.1308
     43 H6          0.5217   -0.6596    1.2522 H         1 <0>         0.1337
     44 H7         -2.5517   -2.5220    0.8255 H         1 <0>         0.1335
     45 H8         -0.9498   -2.8197    0.1089 H         1 <0>         0.1347
     46 H9          0.1294   -2.0993    2.2220 H         1 <0>         0.1014
     47 H10        -1.4725   -1.8015    2.9385 H         1 <0>         0.1015
     48 H11        -2.0591   -4.1896    2.6196 H         1 <0>         0.0752
     49 H12        -0.4572   -4.4873    1.9030 H         1 <0>         0.0757
     50 H13        -1.3975   -6.1630    2.6836 H         1 <0>         0.1354
     51 H14        -1.4333   -8.4411    3.5496 H         1 <0>         0.1313
     52 H15         0.4574   -4.7453    6.2654 H         1 <0>         0.1520
     53 H16         0.8932   -8.5656    8.8611 H         1 <0>         0.2055
     54 H17        -1.3830  -10.1437    4.3718 H         1 <0>         0.4209
     55 H18        -0.0902  -11.2232    7.7655 H         1 <0>         0.1880
     56 H19         0.4693  -14.7803    8.1624 H         1 <0>         0.1181
     57 H20         0.0452  -13.4002    9.2034 H         1 <0>         0.1229
     58 H21        -0.5415  -15.7530   10.4378 H         1 <0>         0.4158
     59 H22        -1.8824  -16.0460   12.5909 H         1 <0>         0.1343
     60 H23        -3.8814  -17.1310   13.5291 H         1 <0>         0.1388
     61 H24        -5.6670  -17.9297   12.0358 H         1 <0>         0.1372
     62 H25        -3.4650  -16.5484    8.6506 H         1 <0>         0.1513
     63 H26        -1.9227    0.4328   -1.1796 H         1 <0>         0.1424
     64 H27        -1.6780   -1.2838   -1.5820 H         1 <0>         0.1432
     65 H28        -4.0723   -0.7760   -1.6566 H         1 <0>         0.0961
     66 H29        -3.7446   -1.8378   -0.2661 H         1 <0>         0.0704
     67 H30        -5.0746   -0.0067    0.4048 H         1 <0>         0.4093
     68 H31        -1.8573   -0.2307    1.1505 H         1 <0>         0.4316
@<TRIPOS>BOND
     1    1    2 1
     2    1   39 1
     3    1   40 1
     4    1   41 1
     5    2    3 1
     6    2   42 1
     7    2   43 1
     8    3    4 1
     9    3   36 1
    10    3   68 1
    11    4    5 1
    12    4   44 1
    13    4   45 1
    14    5    6 1
    15    5   46 1
    16    5   47 1
    17    6    7 1
    18    6   48 1
    19    6   49 1
    20    7    8 1
    21    8   13 ar
    22    8    9 ar
    23    9   10 ar
    24    9   50 1
    25   10   11 ar
    26   10   51 1
    27   11   17 ar
    28   11   12 ar
    29   12   13 ar
    30   12   14 ar
    31   13   52 1
    32   14   15 ar
    33   15   16 ar
    34   15   53 1
    35   16   17 ar
    36   17   18 1
    37   18   19 1
    38   18   54 1
    39   19   23 1
    40   19   20 2
    41   20   21 1
    42   20   55 1
    43   21   22 2
    44   21   25 1
    45   22   23 1
    46   23   24 1
    47   25   26 1
    48   25   56 1
    49   25   57 1
    50   26   27 2
    51   26   28 am
    52   28   29 1
    53   28   58 1
    54   29   34 ar
    55   29   30 ar
    56   30   31 ar
    57   30   59 1
    58   31   32 ar
    59   31   60 1
    60   32   33 ar
    61   32   61 1
    62   33   34 ar
    63   33   35 1
    64   34   62 1
    65   36   37 1
    66   36   63 1
    67   36   64 1
    68   37   38 1
    69   37   65 1
    70   37   66 1
    71   38   67 1
@<TRIPOS>MOLECULE
ZINC06448351
   18    19     0     0     0
SMALL
USER_CHARGES

@<TRIPOS>ATOM
      1 C1         -0.0168    1.3895    0.0097 C.ar      1 <0>        -0.0993
      2 C2          1.1701    2.0933    0.0021 C.ar      1 <0>        -0.0892
      3 C3          2.3780    1.4176   -0.0130 C.ar      1 <0>        -0.1059
      4 C4          2.4023    0.0336   -0.0207 C.ar      1 <0>        -0.0865
      5 C5          1.2211   -0.6796   -0.0133 C.ar      1 <0>        -0.1110
      6 C6          0.0021   -0.0041    0.0020 C.ar      1 <0>         0.0524
      7 C7         -1.2706   -0.7656    0.0106 C.2       1 <0>        -0.0224
      8 C8         -1.5393   -1.9972   -0.6413 C.2       1 <0>        -0.0393
      9 N1         -2.7977   -2.2837   -0.3471 N.2       1 <0>        -0.3071
     10 N2         -3.2708   -1.3504    0.3991 N.2       1 <0>        -0.1706
     11 N3         -2.3903   -0.4435    0.6308 N.2       1 <0>        -0.3280
     12 C9         -0.6398   -2.7666   -1.4472 C.1       1 <0>         0.3290
     13 N4          0.0738   -3.3769   -2.0866 N.1       1 <0>        -0.4697
     14 Br1         4.0007    2.3885   -0.0239 Br        1 <0>        -0.0707
     15 H1         -0.9587    1.9177    0.0260 H         1 <0>         0.1355
     16 H2          1.1565    3.1732    0.0077 H         1 <0>         0.1292
     17 H3          3.3474   -0.4889   -0.0329 H         1 <0>         0.1282
     18 H4          1.2411   -1.7594   -0.0196 H         1 <0>         0.1254
@<TRIPOS>BOND
     1    1    6 ar
     2    1    2 ar
     3    1   15 1
     4    2    3 ar
     5    2   16 1
     6    3    4 ar
     7    3   14 1
     8    4    5 ar
     9    4   17 1
    10    5    6 ar
    11    5   18 1
    12    6    7 1
    13    7    8 1
    14    7   11 2
    15    8   12 1
    16    8    9 2
    17    9   10 1
    18   10   11 1
    19   12   13 3
@<TRIPOS>MOLECULE
ZINC06448351
   19    20     0     0     0
SMALL
USER_CHARGES
5-(4-bromophenyl)-2H-triazole-4-carbonitrile
@<TRIPOS>ATOM
      1 C1         -2.9808    0.7214   -0.6796 C.ar      1 <0>        -0.0897
      2 C2         -4.3062    0.3373   -0.6698 C.ar      1 <0>        -0.0873
      3 C3         -5.2405    1.0841    0.0268 C.ar      1 <0>        -0.0778
      4 C4         -4.8504    2.2165    0.7208 C.ar      1 <0>        -0.0884
      5 C5         -3.5268    2.6065    0.7213 C.ar      1 <0>        -0.0733
      6 C6         -2.5819    1.8577    0.0219 C.ar      1 <0>        -0.0098
      7 C7         -1.1579    2.2722    0.0191 C.2       1 <0>         0.0910
      8 C8         -0.0173    1.4278    0.0099 C.2       1 <0>         0.0541
      9 N1          1.0247    2.2441    0.0015 N.pl3     1 <0>        -0.3302
     10 N2          0.5999    3.4571    0.0106 N.2       1 <0>        -0.0559
     11 H1          1.9844    1.9633   -0.0099 H         1 <0>         0.4699
     12 N3         -0.6842    3.5042    0.0246 N.2       1 <0>        -0.2344
     13 C9          0.0021   -0.0041    0.0020 C.1       1 <0>         0.2679
     14 N4          0.0175   -1.1399   -0.0042 N.1       1 <0>        -0.3518
     15 Br1        -7.0563    0.5560    0.0299 Br        1 <0>        -0.0408
     16 H2         -2.2533    0.1405   -1.2271 H         1 <0>         0.1299
     17 H3         -4.6157   -0.5452   -1.2100 H         1 <0>         0.1404
     18 H4         -5.5833    2.7960    1.2624 H         1 <0>         0.1422
     19 H5         -3.2235    3.4905    1.2625 H         1 <0>         0.1440
@<TRIPOS>BOND
     1    1    6 ar
     2    1    2 ar
     3    1   16 1
     4    2    3 ar
     5    2   17 1
     6    3    4 ar
     7    3   15 1
     8    4    5 ar
     9    4   18 1
    10    5    6 ar
    11    5   19 1
    12    6    7 1
    13    7    8 2
    14    7   12 1
    15    8   13 1
    16    8    9 1
    17    9   11 1
    18    9   10 1
    19   10   12 2
    20   13   14 3
@<TRIPOS>MOLECULE
ZINC03834198
   55    58     0     0     0
SMALL
USER_CHARGES

@<TRIPOS>ATOM
      1 C1          2.2102    1.3214   -1.5438 C.3       1 <0>        -0.0473
      2 N1          2.0302   -0.1310   -1.4177 N.4       1 <0>        -0.3861
      3 C2          2.8485   -0.8135   -2.4272 C.3       1 <0>        -0.0039
      4 C3          2.6029   -2.3220   -2.3537 C.3       1 <0>        -0.1426
      5 C4          2.9828   -2.8281   -0.9591 C.3       1 <0>        -0.0980
      6 C5          2.1768   -2.0570    0.0901 C.3       1 <0>        -0.1436
      7 C6          2.4382   -0.5583   -0.0740 C.3       1 <0>        -0.0065
      8 C7          2.6653   -4.3210   -0.8526 C.3       1 <0>         0.0553
      9 O1          3.1265   -4.8175    0.4056 O.3       1 <0>        -0.2959
     10 C8          2.9210   -6.1358    0.6612 C.ar      1 <0>         0.1621
     11 C9          2.2972   -6.9233   -0.2811 C.ar      1 <0>        -0.1791
     12 C10         2.0867   -8.2816   -0.0149 C.ar      1 <0>         0.2018
     13 C11         2.5192   -8.8246    1.2204 C.ar      1 <0>        -0.1784
     14 C12         3.1508   -8.0026    2.1612 C.ar      1 <0>        -0.1424
     15 C13         3.3512   -6.6812    1.8787 C.ar      1 <0>         0.1099
     16 O2          3.9702   -5.8850    2.7909 O.3       1 <0>        -0.3030
     17 C14         4.3854   -6.4992    4.0125 C.3       1 <0>         0.0198
     18 C15         2.2930  -10.2009    1.4605 C.ar      1 <0>         0.4667
     19 N2          1.6881  -10.9114    0.5174 N.ar      1 <0>        -0.5768
     20 C16         1.3012  -10.3606   -0.6222 C.ar      1 <0>         0.3478
     21 N3          1.4842   -9.0917   -0.8996 N.ar      1 <0>        -0.5414
     22 N4          2.6915  -10.7885    2.6441 N.pl3     1 <0>        -0.6296
     23 C17         2.5831  -12.1741    2.8088 C.ar      1 <0>         0.1376
     24 C18         2.4560  -12.9987    1.6992 C.ar      1 <0>        -0.1039
     25 C19         2.3491  -14.3660    1.8644 C.ar      1 <0>        -0.0732
     26 C20         2.3685  -14.9152    3.1341 C.ar      1 <0>        -0.0857
     27 C21         2.4949  -14.0974    4.2430 C.ar      1 <0>        -0.1007
     28 C22         2.6081  -12.7284    4.0841 C.ar      1 <0>         0.0686
     29 F1          2.7372  -11.9301    5.1664 F         1 <0>        -0.1332
     30 Br1         2.2212  -16.7875    3.3546 Br        1 <0>        -0.0295
     31 H1          3.2589    1.5727   -1.3848 H         1 <0>         0.1219
     32 H2          1.9075    1.6398   -2.5414 H         1 <0>         0.1242
     33 H3          1.5979    1.8295   -0.7989 H         1 <0>         0.1242
     34 H4          2.5792   -0.4499   -3.4189 H         1 <0>         0.1343
     35 H5          3.9024   -0.6078   -2.2397 H         1 <0>         0.1306
     36 H6          1.5493   -2.5288   -2.5414 H         1 <0>         0.0934
     37 H7          3.2127   -2.8271   -3.1028 H         1 <0>         0.1176
     38 H8          4.0478   -2.6678   -0.7908 H         1 <0>         0.1030
     39 H9          1.1143   -2.2583   -0.0469 H         1 <0>         0.0893
     40 H10         2.4820   -2.3726    1.0878 H         1 <0>         0.1210
     41 H11         3.5008   -0.3580    0.0634 H         1 <0>         0.1299
     42 H12         1.8660   -0.0063    0.6716 H         1 <0>         0.1325
     43 H13         1.5883   -4.4698   -0.9292 H         1 <0>         0.0742
     44 H14         3.1645   -4.8571   -1.6597 H         1 <0>         0.0787
     45 H15         1.9724   -6.4960   -1.2182 H         1 <0>         0.1540
     46 H16         3.4818   -8.4122    3.1042 H         1 <0>         0.1414
     47 H17         4.8638   -5.7549    4.6491 H         1 <0>         0.1093
     48 H18         3.5165   -6.9116    4.5254 H         1 <0>         0.0597
     49 H19         5.0925   -7.2996    3.7947 H         1 <0>         0.0600
     50 H20         0.8133  -10.9840   -1.3569 H         1 <0>         0.2036
     51 H21         3.0467  -10.2411    3.3618 H         1 <0>         0.4241
     52 H22         2.4404  -12.5714    0.7074 H         1 <0>         0.1818
     53 H23         2.2499  -15.0072    1.0010 H         1 <0>         0.1463
     54 H24         2.5094  -14.5289    5.2329 H         1 <0>         0.1515
     55 H25         1.0589   -0.3624   -1.5626 H         1 <0>         0.4246
@<TRIPOS>BOND
     1    1    2 1
     2    1   31 1
     3    1   32 1
     4    1   33 1
     5    2    7 1
     6    2    3 1
     7    2   55 1
     8    3    4 1
     9    3   34 1
    10    3   35 1
    11    4    5 1
    12    4   36 1
    13    4   37 1
    14    5    6 1
    15    5    8 1
    16    5   38 1
    17    6    7 1
    18    6   39 1
    19    6   40 1
    20    7   41 1
    21    7   42 1
    22    8    9 1
    23    8   43 1
    24    8   44 1
    25    9   10 1
    26   10   15 ar
    27   10   11 ar
    28   11   12 ar
    29   11   45 1
    30   12   21 ar
    31   12   13 ar
    32   13   14 ar
    33   13   18 ar
    34   14   15 ar
    35   14   46 1
    36   15   16 1
    37   16   17 1
    38   17   47 1
    39   17   48 1
    40   17   49 1
    41   18   19 ar
    42   18   22 1
    43   19   20 ar
    44   20   21 ar
    45   20   50 1
    46   22   23 1
    47   22   51 1
    48   23   28 ar
    49   23   24 ar
    50   24   25 ar
    51   24   52 1
    52   25   26 ar
    53   25   53 1
    54   26   27 ar
    55   26   30 1
    56   27   28 ar
    57   27   54 1
    58   28   29 1
@<TRIPOS>MOLECULE
ZINC01494443
   47    50     0     0     0
SMALL
USER_CHARGES

@<TRIPOS>ATOM
      1 C1         -0.9348    1.2234    1.6107 C.3       1 <0>        -0.0474
      2 N1         -0.7913   -0.2226    1.3950 N.4       1 <0>        -0.3868
      3 C2         -0.1754   -0.4615    0.0843 C.3       1 <0>        -0.0004
      4 C3         -0.0977   -1.9667   -0.1802 C.3       1 <0>        -0.1583
      5 C4          0.7484   -2.6282    0.9114 C.3       1 <0>         0.1547
      6 C5          0.1383   -2.3101    2.2795 C.3       1 <0>        -0.1626
      7 C6          0.0519   -0.7922    2.4528 C.3       1 <0>        -0.0027
      8 N2          0.7642   -4.0789    0.7073 N.pl3     1 <0>        -0.6962
      9 C7          1.8164   -4.8351    1.1948 C.ar      1 <0>         0.5501
     10 N3          2.7976   -4.2187    1.8497 N.ar      1 <0>        -0.5314
     11 C8          3.8250   -4.8826    2.3370 C.ar      1 <0>         0.2530
     12 C9          3.8696   -6.2767    2.1512 C.ar      1 <0>         0.0455
     13 C10         2.8066   -6.8938    1.4494 C.ar      1 <0>         0.0768
     14 N4          1.8049   -6.1403    0.9966 N.ar      1 <0>        -0.5342
     15 C11         2.8558   -8.2984    1.2647 C.ar      1 <0>         0.4706
     16 N5          3.8945   -8.9570    1.7593 N.ar      1 <0>        -0.5523
     17 C12         4.8647   -8.3335    2.4089 C.ar      1 <0>         0.3414
     18 N6          4.8708   -7.0364    2.6095 N.ar      1 <0>        -0.5099
     19 N7          1.8508   -8.9614    0.5896 N.pl3     1 <0>        -0.6177
     20 C13         1.8565  -10.3585    0.5232 C.ar      1 <0>         0.1463
     21 C14         2.3302  -11.1038    1.5954 C.ar      1 <0>        -0.0764
     22 C15         2.3352  -12.4832    1.5282 C.ar      1 <0>        -0.1187
     23 C16         1.8690  -13.1241    0.3928 C.ar      1 <0>         0.1033
     24 C17         1.3959  -12.3831   -0.6783 C.ar      1 <0>        -0.0554
     25 C18         1.3835  -11.0024   -0.6125 C.ar      1 <0>        -0.1069
     26 Cl1         0.8120  -13.1893   -2.1006 Cl        1 <0>        -0.0368
     27 F1          1.8757  -14.4735    0.3290 F         1 <0>        -0.1214
     28 H1          0.0481    1.6938    1.5854 H         1 <0>         0.1232
     29 H2         -1.5609    1.6475    0.8256 H         1 <0>         0.1248
     30 H3         -1.3982    1.4018    2.5810 H         1 <0>         0.1249
     31 H4         -0.7770    0.0126   -0.6912 H         1 <0>         0.1371
     32 H5          0.8292   -0.0387    0.0729 H         1 <0>         0.1334
     33 H6         -1.1019   -2.3905   -0.1693 H         1 <0>         0.0950
     34 H7          0.3615   -2.1420   -1.1531 H         1 <0>         0.1201
     35 H8          1.7667   -2.2418    0.8676 H         1 <0>         0.1093
     36 H9         -0.8609   -2.7410    2.3415 H         1 <0>         0.0893
     37 H10         0.7663   -2.7310    3.0648 H         1 <0>         0.1164
     38 H11         1.0516   -0.3624    2.3909 H         1 <0>         0.1332
     39 H12        -0.3819   -0.5622    3.4260 H         1 <0>         0.1341
     40 H13         0.0373   -4.5095    0.2307 H         1 <0>         0.4194
     41 H14         4.6144   -4.3696    2.8661 H         1 <0>         0.1967
     42 H15         5.6880   -8.9184    2.7915 H         1 <0>         0.2101
     43 H16         1.1405   -8.4584    0.1613 H         1 <0>         0.4323
     44 H17         2.6946  -10.6048    2.4812 H         1 <0>         0.1501
     45 H18         2.7035  -13.0626    2.3620 H         1 <0>         0.1534
     46 H19         1.0103  -10.4250   -1.4454 H         1 <0>         0.1463
     47 H20        -1.7014   -0.6574    1.4210 H         1 <0>         0.4249
@<TRIPOS>BOND
     1    1    2 1
     2    1   28 1
     3    1   29 1
     4    1   30 1
     5    2    7 1
     6    2    3 1
     7    2   47 1
     8    3    4 1
     9    3   31 1
    10    3   32 1
    11    4    5 1
    12    4   33 1
    13    4   34 1
    14    5    6 1
    15    5    8 1
    16    5   35 1
    17    6    7 1
    18    6   36 1
    19    6   37 1
    20    7   38 1
    21    7   39 1
    22    8    9 1
    23    8   40 1
    24    9   14 ar
    25    9   10 ar
    26   10   11 ar
    27   11   12 ar
    28   11   41 1
    29   12   18 ar
    30   12   13 ar
    31   13   14 ar
    32   13   15 ar
    33   15   16 ar
    34   15   19 1
    35   16   17 ar
    36   17   18 ar
    37   17   42 1
    38   19   20 1
    39   19   43 1
    40   20   25 ar
    41   20   21 ar
    42   21   22 ar
    43   21   44 1
    44   22   23 ar
    45   22   45 1
    46   23   24 ar
    47   23   27 1
    48   24   25 ar
    49   24   26 1
    50   25   46 1
@<TRIPOS>MOLECULE
ZINC01488208
   36    38     0     0     0
SMALL
USER_CHARGES
N-[4-(3-bromophenyl)aminoquinazolin-6-yl]prop-2-enamide
@<TRIPOS>ATOM
      1 C1          0.7775   -0.7948   -0.0705 C.2       1 <0>        -0.0776
      2 C2         -0.1901   -0.0729    0.4879 C.2       1 <0>        -0.2239
      3 C3         -0.2148    1.3867    0.3098 C.2       1 <0>         0.5453
      4 O1          0.6497    1.9338   -0.3482 O.2       1 <0>        -0.5201
      5 N1         -1.1983    2.1176    0.8710 N.am      1 <0>        -0.6711
      6 C4         -1.1650    3.5137    0.7909 C.ar      1 <0>         0.1488
      7 C5          0.0636    4.1806    0.8263 C.ar      1 <0>        -0.0728
      8 C6          0.1262    5.5383    0.7452 C.ar      1 <0>        -0.0845
      9 C7         -1.0549    6.2855    0.6352 C.ar      1 <0>         0.1769
     10 C8         -2.3031    5.6166    0.6042 C.ar      1 <0>        -0.1665
     11 C9         -2.3452    4.2208    0.6834 C.ar      1 <0>        -0.1115
     12 C10        -3.4789    6.3983    0.4921 C.ar      1 <0>         0.4609
     13 N2         -3.3505    7.7165    0.4215 N.ar      1 <0>        -0.5769
     14 C11        -2.1619    8.2977    0.4547 C.ar      1 <0>         0.3399
     15 N3         -1.0405    7.6248    0.5574 N.ar      1 <0>        -0.5362
     16 N4         -4.7242    5.8046    0.4569 N.pl3     1 <0>        -0.6385
     17 C12        -5.8763    6.5961    0.4637 C.ar      1 <0>         0.1585
     18 C13        -7.0147    6.1742   -0.2119 C.ar      1 <0>        -0.1334
     19 C14        -8.1516    6.9579   -0.2031 C.ar      1 <0>        -0.0918
     20 C15        -8.1584    8.1619    0.4772 C.ar      1 <0>        -0.1069
     21 C16        -7.0268    8.5852    1.1515 C.ar      1 <0>        -0.0706
     22 C17        -5.8872    7.8030    1.1505 C.ar      1 <0>        -0.0848
     23 Br1        -7.0416   10.2318    2.0813 Br        1 <0>        -0.0434
     24 H1          0.7956   -1.8667    0.0603 H         1 <0>         0.1209
     25 H2          1.5450   -0.3091   -0.6547 H         1 <0>         0.1170
     26 H3         -0.9577   -0.5586    1.0722 H         1 <0>         0.1316
     27 H4         -1.9293    1.6755    1.3305 H         1 <0>         0.4144
     28 H5          0.9764    3.6102    0.9149 H         1 <0>         0.1459
     29 H6          1.0830    6.0386    0.7700 H         1 <0>         0.1477
     30 H7         -3.2919    3.7016    0.6610 H         1 <0>         0.1302
     31 H8         -2.1129    9.3749    0.3942 H         1 <0>         0.1986
     32 H9         -4.8000    4.8380    0.4274 H         1 <0>         0.4219
     33 H10        -7.0104    5.2342   -0.7437 H         1 <0>         0.1312
     34 H11        -9.0368    6.6300   -0.7278 H         1 <0>         0.1371
     35 H12        -9.0489    8.7729    0.4825 H         1 <0>         0.1347
     36 H13        -5.0054    8.1316    1.6804 H         1 <0>         0.1486
@<TRIPOS>BOND
     1    1    2 2
     2    1   24 1
     3    1   25 1
     4    2    3 1
     5    2   26 1
     6    3    4 2
     7    3    5 am
     8    5    6 1
     9    5   27 1
    10    6   11 ar
    11    6    7 ar
    12    7    8 ar
    13    7   28 1
    14    8    9 ar
    15    8   29 1
    16    9   15 ar
    17    9   10 ar
    18   10   11 ar
    19   10   12 ar
    20   11   30 1
    21   12   13 ar
    22   12   16 1
    23   13   14 ar
    24   14   15 ar
    25   14   31 1
    26   16   17 1
    27   16   32 1
    28   17   22 ar
    29   17   18 ar
    30   18   19 ar
    31   18   33 1
    32   19   20 ar
    33   19   34 1
    34   20   21 ar
    35   20   35 1
    36   21   22 ar
    37   21   23 1
    38   22   36 1
@<TRIPOS>MOLECULE
ZINC00600292
   36    38     0     0     0
SMALL
USER_CHARGES

@<TRIPOS>ATOM
      1 C1         -0.7597    1.4203   -0.5114 C.3       1 <0>         0.0216
      2 O1         -0.7395   -0.0086   -0.5175 O.3       1 <0>        -0.3000
      3 C2          0.0525   -0.6108   -1.4443 C.ar      1 <0>         0.1111
      4 C3          0.7838    0.1546   -2.3077 C.ar      1 <0>        -0.1487
      5 C4          1.6000   -0.4644   -3.2619 C.ar      1 <0>        -0.1822
      6 C5          1.6631   -1.8785   -3.3272 C.ar      1 <0>         0.2014
      7 C6          0.9050   -2.6434   -2.4324 C.ar      1 <0>        -0.1835
      8 C7          0.1140   -2.0102   -1.4994 C.ar      1 <0>         0.1637
      9 O2         -0.6184   -2.7498   -0.6264 O.3       1 <0>        -0.2972
     10 C8         -0.5133   -4.1710   -0.7327 C.3       1 <0>         0.0200
     11 N1          2.4537   -2.4467   -4.2512 N.ar      1 <0>        -0.5411
     12 C9          3.1528   -1.7038   -5.0759 C.ar      1 <0>         0.3436
     13 N2          3.1258   -0.3808   -5.0518 N.ar      1 <0>        -0.5800
     14 C10         2.3778    0.2817   -4.1791 C.ar      1 <0>         0.4633
     15 N3          2.3588    1.6620   -4.1660 N.pl3     1 <0>        -0.6410
     16 C11         3.0379    2.3798   -5.1546 C.ar      1 <0>         0.1586
     17 C12         3.6582    3.5824   -4.8396 C.ar      1 <0>        -0.1318
     18 C13         4.3288    4.2892   -5.8181 C.ar      1 <0>        -0.0924
     19 C14         4.3832    3.8017   -7.1112 C.ar      1 <0>        -0.1057
     20 C15         3.7663    2.6047   -7.4288 C.ar      1 <0>        -0.0712
     21 C16         3.0988    1.8895   -6.4525 C.ar      1 <0>        -0.0819
     22 Br1         3.8425    1.9431   -9.1987 Br        1 <0>        -0.0435
     23 H1          0.2462    1.7971   -0.3263 H         1 <0>         0.0571
     24 H2         -1.1115    1.7828   -1.4772 H         1 <0>         0.0575
     25 H3         -1.4293    1.7708    0.2741 H         1 <0>         0.1071
     26 H4          0.7324    1.2321   -2.2545 H         1 <0>         0.1391
     27 H5          0.9434   -3.7220   -2.4708 H         1 <0>         0.1564
     28 H6         -1.1468   -4.6395    0.0204 H         1 <0>         0.1075
     29 H7         -0.8353   -4.4858   -1.7253 H         1 <0>         0.0624
     30 H8          0.5224   -4.4716   -0.5744 H         1 <0>         0.0623
     31 H9          3.7787   -2.1938   -5.8070 H         1 <0>         0.1983
     32 H10         1.8741    2.1338   -3.4707 H         1 <0>         0.4207
     33 H11         3.6157    3.9643   -3.8302 H         1 <0>         0.1312
     34 H12         4.8111    5.2240   -5.5735 H         1 <0>         0.1372
     35 H13         4.9081    4.3567   -7.8747 H         1 <0>         0.1349
     36 H14         2.6210    0.9530   -6.6997 H         1 <0>         0.1453
@<TRIPOS>BOND
     1    1    2 1
     2    1   23 1
     3    1   24 1
     4    1   25 1
     5    2    3 1
     6    3    8 ar
     7    3    4 ar
     8    4    5 ar
     9    4   26 1
    10    5   14 ar
    11    5    6 ar
    12    6    7 ar
    13    6   11 ar
    14    7    8 ar
    15    7   27 1
    16    8    9 1
    17    9   10 1
    18   10   28 1
    19   10   29 1
    20   10   30 1
    21   11   12 ar
    22   12   13 ar
    23   12   31 1
    24   13   14 ar
    25   14   15 1
    26   15   16 1
    27   15   32 1
    28   16   21 ar
    29   16   17 ar
    30   17   18 ar
    31   17   33 1
    32   18   19 ar
    33   18   34 1
    34   19   20 ar
    35   19   35 1
    36   20   21 ar
    37   20   22 1
    38   21   36 1
@<TRIPOS>MOLECULE
ZINC00015333
   23    23     0     0     0
SMALL
USER_CHARGES

@<TRIPOS>ATOM
      1 C1          0.1911    1.2513    0.2360 C.ar      1 <0>        -0.0693
      2 C2          1.4253    1.8229    0.4487 C.ar      1 <0>        -0.1347
      3 C3          2.5393    1.0210    0.6629 C.ar      1 <0>         0.1083
      4 C4          2.4146   -0.3692    0.6643 C.ar      1 <0>         0.0809
      5 C5          1.1826   -0.9523    0.4523 C.ar      1 <0>        -0.1017
      6 C6          0.0567   -0.1442    0.2358 C.ar      1 <0>        -0.1012
      7 C7         -1.2545   -0.7560    0.0105 C.2       1 <0>         0.0748
      8 C8         -1.3506   -1.9448   -0.6794 C.2       1 <0>        -0.1293
      9 C9         -0.1935   -2.4992   -1.3154 C.1       1 <0>         0.2361
     10 N1          0.7244   -2.9390   -1.8199 N.1       1 <0>        -0.3932
     11 C10        -2.6421   -2.6447   -0.7627 C.2       1 <0>         0.5801
     12 O1         -3.6250   -2.1737   -0.2225 O.2       1 <0>        -0.5302
     13 N2         -2.7361   -3.8075   -1.4376 N.am      1 <0>        -0.8463
     14 O2          3.5085   -1.1494    0.8746 O.3       1 <0>        -0.4830
     15 O3          3.7535    1.5914    0.8710 O.3       1 <0>        -0.4849
     16 H1         -0.6737    1.8774    0.0739 H         1 <0>         0.1446
     17 H2          1.5279    2.8981    0.4486 H         1 <0>         0.1438
     18 H3          1.0853   -2.0279    0.4525 H         1 <0>         0.1362
     19 H4         -2.1462   -0.2754    0.3850 H         1 <0>         0.1708
     20 H5         -1.9523   -4.1830   -1.8683 H         1 <0>         0.4022
     21 H6         -3.5876   -4.2689   -1.4925 H         1 <0>         0.4116
     22 H7          3.6685   -1.3601    1.8047 H         1 <0>         0.3904
     23 H8          3.9490    1.7719    1.8007 H         1 <0>         0.3939
@<TRIPOS>BOND
     1    1    6 ar
     2    1    2 ar
     3    1   16 1
     4    2    3 ar
     5    2   17 1
     6    3    4 ar
     7    3   15 1
     8    4    5 ar
     9    4   14 1
    10    5    6 ar
    11    5   18 1
    12    6    7 1
    13    7    8 2
    14    7   19 1
    15    8    9 1
    16    8   11 1
    17    9   10 3
    18   11   12 2
    19   11   13 am
    20   13   20 1
    21   13   21 1
    22   14   22 1
    23   15   23 1
@<TRIPOS>MOLECULE
ZINC00016978
   36    38     0     0     0
SMALL
USER_CHARGES
N-(3-chloro-4-fluoro-phenyl)-6,7-dimethoxy-quinazolin-4-amine
@<TRIPOS>ATOM
      1 C1         -0.1077    7.8043   -0.3043 C.3       1 <0>         0.0213
      2 O1          1.1553    7.1532   -0.1529 O.3       1 <0>        -0.2997
      3 C2          1.1387    5.8027    0.0050 C.ar      1 <0>         0.1127
      4 C3         -0.0547    5.1381    0.0126 C.ar      1 <0>        -0.1498
      5 C4         -0.0730    3.7479    0.1756 C.ar      1 <0>        -0.1807
      6 C5          1.1438    3.0387    0.3316 C.ar      1 <0>         0.2015
      7 C6          2.3555    3.7401    0.3208 C.ar      1 <0>        -0.1836
      8 C7          2.3465    5.1079    0.1588 C.ar      1 <0>         0.1645
      9 O2          3.5207    5.7910    0.1475 O.3       1 <0>        -0.2967
     10 C8          4.7173    5.0267    0.3088 C.3       1 <0>         0.0198
     11 N1          1.0981    1.7061    0.4867 N.ar      1 <0>        -0.5395
     12 C9         -0.0526    1.0764    0.4931 C.ar      1 <0>         0.3425
     13 N2         -1.2130    1.6959    0.3460 N.ar      1 <0>        -0.5817
     14 C10        -1.2816    3.0117    0.1912 C.ar      1 <0>         0.4638
     15 N3         -2.4991    3.6452    0.0437 N.pl3     1 <0>        -0.6386
     16 C11        -3.6729    2.8905   -0.0548 C.ar      1 <0>         0.1586
     17 C12        -3.6501    1.6464   -0.6722 C.ar      1 <0>        -0.0781
     18 C13        -4.8088    0.9005   -0.7643 C.ar      1 <0>        -0.1189
     19 C14        -5.9954    1.3962   -0.2511 C.ar      1 <0>         0.0951
     20 C15        -6.0222    2.6392    0.3606 C.ar      1 <0>        -0.0539
     21 C16        -4.8635    3.3866    0.4595 C.ar      1 <0>        -0.1144
     22 Cl1        -7.5113    3.2580    1.0036 Cl        1 <0>        -0.0424
     23 F1         -7.1286    0.6668   -0.3466 F         1 <0>        -0.1253
     24 H1          0.0480    8.8767   -0.4213 H         1 <0>         0.1075
     25 H2         -0.6150    7.4125   -1.1859 H         1 <0>         0.0578
     26 H3         -0.7195    7.6202    0.5788 H         1 <0>         0.0576
     27 H4         -0.9797    5.6826   -0.1070 H         1 <0>         0.1396
     28 H5          3.2905    3.2125    0.4383 H         1 <0>         0.1568
     29 H6          4.6901    4.5069    1.2665 H         1 <0>         0.0625
     30 H7          4.7946    4.2980   -0.4981 H         1 <0>         0.0626
     31 H8          5.5801    5.6924    0.2811 H         1 <0>         0.1078
     32 H9         -0.0529    0.0039    0.6197 H         1 <0>         0.1993
     33 H10        -2.5408    4.6137    0.0082 H         1 <0>         0.4219
     34 H11        -2.7259    1.2610   -1.0767 H         1 <0>         0.1541
     35 H12        -4.7901   -0.0685   -1.2408 H         1 <0>         0.1508
     36 H13        -4.8843    4.3556    0.9360 H         1 <0>         0.1453
@<TRIPOS>BOND
     1    1    2 1
     2    1   24 1
     3    1   25 1
     4    1   26 1
     5    2    3 1
     6    3    8 ar
     7    3    4 ar
     8    4    5 ar
     9    4   27 1
    10    5   14 ar
    11    5    6 ar
    12    6    7 ar
    13    6   11 ar
    14    7    8 ar
    15    7   28 1
    16    8    9 1
    17    9   10 1
    18   10   29 1
    19   10   30 1
    20   10   31 1
    21   11   12 ar
    22   12   13 ar
    23   12   32 1
    24   13   14 ar
    25   14   15 1
    26   15   16 1
    27   15   33 1
    28   16   21 ar
    29   16   17 ar
    30   17   18 ar
    31   17   34 1
    32   18   19 ar
    33   18   35 1
    34   19   20 ar
    35   19   23 1
    36   20   21 ar
    37   20   22 1
    38   21   36 1
@<TRIPOS>MOLECULE
ZINC27439698
   59    62     0     0     0
SMALL
USER_CHARGES

@<TRIPOS>ATOM
      1 C1         -0.2063    1.0844    0.8125 C.2       1 <0>        -0.0780
      2 C2         -0.0916   -0.1284    0.2785 C.2       1 <0>        -0.2217
      3 C3          1.1892   -0.8472    0.3546 C.2       1 <0>         0.5464
      4 O1          2.1435   -0.3327    0.9059 O.2       1 <0>        -0.5301
      5 N1          1.3054   -2.0761   -0.1864 N.am      1 <0>        -0.6549
      6 C4          2.5517   -2.7129   -0.2160 C.ar      1 <0>         0.1200
      7 C5          3.7048   -1.9595   -0.1827 C.ar      1 <0>        -0.0579
      8 C6          4.9490   -2.5997   -0.2120 C.ar      1 <0>        -0.1974
      9 C7          5.0154   -4.0138   -0.2753 C.ar      1 <0>         0.2129
     10 C8          3.8313   -4.7603   -0.3083 C.ar      1 <0>        -0.1947
     11 C9          2.6164   -4.1137   -0.2734 C.ar      1 <0>         0.1622
     12 O2          1.4681   -4.8389   -0.3002 O.3       1 <0>        -0.3093
     13 C10         1.5999   -6.2606   -0.3586 C.3       1 <0>         0.0588
     14 C11         0.2106   -6.9010   -0.3813 C.3       1 <0>        -0.1156
     15 C12         0.3517   -8.4232   -0.4438 C.3       1 <0>         0.0578
     16 N2         -0.9822   -9.0382   -0.4657 N.3       1 <0>        -0.5360
     17 C13        -1.6880   -8.8108    0.8038 C.3       1 <0>         0.0125
     18 C14        -3.0921   -9.4148    0.7161 C.3       1 <0>         0.0626
     19 O3         -2.9885  -10.8047    0.3955 O.3       1 <0>        -0.3850
     20 C15        -2.3071  -11.0626   -0.8351 C.3       1 <0>         0.0628
     21 C16        -0.8951  -10.4753   -0.7631 C.3       1 <0>         0.0171
     22 N3          6.2221   -4.6015   -0.3018 N.ar      1 <0>        -0.5452
     23 C17         7.3156   -3.8777   -0.2694 C.ar      1 <0>         0.3493
     24 N4          7.3023   -2.5556   -0.2097 N.ar      1 <0>        -0.5859
     25 C18         6.1642   -1.8746   -0.1796 C.ar      1 <0>         0.4714
     26 N5          6.1650   -0.4957   -0.1182 N.pl3     1 <0>        -0.6328
     27 C19         7.3694    0.2084   -0.2227 C.ar      1 <0>         0.1581
     28 C20         7.5013    1.4536    0.3785 C.ar      1 <0>        -0.1169
     29 C21         8.6911    2.1472    0.2750 C.ar      1 <0>        -0.1176
     30 C22         9.7524    1.6027   -0.4280 C.ar      1 <0>         0.0901
     31 C23         9.6235    0.3609   -1.0292 C.ar      1 <0>        -0.0524
     32 C24         8.4363   -0.3392   -0.9225 C.ar      1 <0>        -0.0856
     33 Cl1        10.9555   -0.3188   -1.9109 Cl        1 <0>        -0.0424
     34 F1         10.9152    2.2833   -0.5284 F         1 <0>        -0.1264
     35 H1          0.6411    1.5413    1.3020 H         1 <0>         0.1166
     36 H2         -1.1456    1.6141    0.7527 H         1 <0>         0.1209
     37 H3         -0.9390   -0.5853   -0.2110 H         1 <0>         0.1323
     38 H4          0.5255   -2.5194   -0.5554 H         1 <0>         0.4201
     39 H5          3.6489   -0.8820   -0.1348 H         1 <0>         0.1596
     40 H6          3.8708   -5.8385   -0.3565 H         1 <0>         0.1517
     41 H7          2.1429   -6.5383   -1.2620 H         1 <0>         0.0720
     42 H8          2.1473   -6.6110    0.5165 H         1 <0>         0.0691
     43 H9         -0.3323   -6.6233    0.5221 H         1 <0>         0.0760
     44 H10        -0.3367   -6.5506   -1.2564 H         1 <0>         0.0860
     45 H11         0.8947   -8.7010   -1.3473 H         1 <0>         0.0821
     46 H12         0.8990   -8.7736    0.4312 H         1 <0>         0.0409
     47 H13        -1.1377   -9.2854    1.6162 H         1 <0>         0.0448
     48 H14        -1.7636   -7.7398    0.9914 H         1 <0>         0.0895
     49 H15        -3.5986   -9.2990    1.6743 H         1 <0>         0.0993
     50 H16        -3.6604   -8.9035   -0.0609 H         1 <0>         0.0609
     51 H17        -2.2459  -12.1385   -0.9988 H         1 <0>         0.1001
     52 H18        -2.8525  -10.5991   -1.6572 H         1 <0>         0.0612
     53 H19        -0.3918  -10.6192   -1.7193 H         1 <0>         0.0886
     54 H20        -0.3321  -10.9764    0.0243 H         1 <0>         0.0452
     55 H21         8.2696   -4.3834   -0.2921 H         1 <0>         0.1993
     56 H22         5.3306   -0.0149   -0.0027 H         1 <0>         0.4275
     57 H23         6.6738    1.8794    0.9265 H         1 <0>         0.1431
     58 H24         8.7936    3.1154    0.7424 H         1 <0>         0.1506
     59 H25         8.3373   -1.3092   -1.3869 H         1 <0>         0.1663
@<TRIPOS>BOND
     1    1    2 2
     2    1   35 1
     3    1   36 1
     4    2    3 1
     5    2   37 1
     6    3    4 2
     7    3    5 am
     8    5    6 1
     9    5   38 1
    10    6   11 ar
    11    6    7 ar
    12    7    8 ar
    13    7   39 1
    14    8   25 ar
    15    8    9 ar
    16    9   10 ar
    17    9   22 ar
    18   10   11 ar
    19   10   40 1
    20   11   12 1
    21   12   13 1
    22   13   14 1
    23   13   41 1
    24   13   42 1
    25   14   15 1
    26   14   43 1
    27   14   44 1
    28   15   16 1
    29   15   45 1
    30   15   46 1
    31   16   21 1
    32   16   17 1
    33   17   18 1
    34   17   47 1
    35   17   48 1
    36   18   19 1
    37   18   49 1
    38   18   50 1
    39   19   20 1
    40   20   21 1
    41   20   51 1
    42   20   52 1
    43   21   53 1
    44   21   54 1
    45   22   23 ar
    46   23   24 ar
    47   23   55 1
    48   24   25 ar
    49   25   26 1
    50   26   27 1
    51   26   56 1
    52   27   32 ar
    53   27   28 ar
    54   28   29 ar
    55   28   57 1
    56   29   30 ar
    57   29   58 1
    58   30   31 ar
    59   30   34 1
    60   31   32 ar
    61   31   33 1
    62   32   59 1
@<TRIPOS>MOLECULE
ZINC03815313
   47    49     0     0     0
SMALL
USER_CHARGES
4-(4-isopropylphenyl)amino-6,7-dimethoxy-quinoline-3-carbonitrile
@<TRIPOS>ATOM
      1 C1         -7.4772   -0.0474   -0.0853 C.3       1 <0>        -0.1455
      2 C2         -7.3381    1.0853    0.9338 C.3       1 <0>        -0.0527
      3 C3         -7.3435    0.5023    2.3483 C.3       1 <0>        -0.1445
      4 C4         -6.0424    1.8176    0.6972 C.ar      1 <0>        -0.1166
      5 C5         -6.0580    3.1667    0.3933 C.ar      1 <0>        -0.0738
      6 C6         -4.8725    3.8410    0.1768 C.ar      1 <0>        -0.1742
      7 C7         -3.6633    3.1626    0.2641 C.ar      1 <0>         0.1966
      8 C8         -3.6517    1.8060    0.5635 C.ar      1 <0>        -0.1755
      9 C9         -4.8406    1.1392    0.7849 C.ar      1 <0>        -0.0692
     10 N1         -2.4619    3.8418    0.0457 N.pl3     1 <0>        -0.7081
     11 C10        -1.2713    3.1436    0.0070 C.ar      1 <0>         0.2697
     12 C11        -0.5503    2.8633    1.1907 C.ar      1 <0>        -0.1006
     13 C12        -1.0223    3.2871    2.4421 C.ar      1 <0>        -0.1560
     14 C13        -0.3065    3.0037    3.5692 C.ar      1 <0>         0.1250
     15 C14         0.8987    2.2916    3.4891 C.ar      1 <0>         0.1553
     16 C15         1.3833    1.8643    2.2741 C.ar      1 <0>        -0.1776
     17 C16         0.6656    2.1439    1.1007 C.ar      1 <0>         0.1666
     18 N2          1.1227    1.7367   -0.0926 N.ar      1 <0>        -0.4639
     19 C17         0.4764    1.9826   -1.2035 C.ar      1 <0>         0.1795
     20 C18        -0.7342    2.6939   -1.2087 C.ar      1 <0>        -0.0923
     21 C19        -1.4162    2.9527   -2.4409 C.1       1 <0>         0.2565
     22 N3         -1.9573    3.1579   -3.4185 N.1       1 <0>        -0.3972
     23 O1          1.5954    2.0202    4.6234 O.3       1 <0>        -0.2965
     24 C20         2.8157    1.2914    4.4764 C.3       1 <0>         0.0196
     25 O2         -0.7666    3.4153    4.7808 O.3       1 <0>        -0.2989
     26 C21        -2.0006    4.1358    4.7955 C.3       1 <0>         0.0227
     27 H1         -6.6429   -0.7401    0.0254 H         1 <0>         0.0555
     28 H2         -8.4143   -0.5771    0.0859 H         1 <0>         0.0575
     29 H3         -7.4733    0.3679   -1.0930 H         1 <0>         0.0553
     30 H4         -8.1724    1.7780    0.8232 H         1 <0>         0.0757
     31 H5         -7.2444    1.3093    3.0743 H         1 <0>         0.0551
     32 H6         -8.2806   -0.0274    2.5194 H         1 <0>         0.0573
     33 H7         -6.5092   -0.1904    2.4590 H         1 <0>         0.0555
     34 H8         -6.9984    3.6935    0.3256 H         1 <0>         0.1239
     35 H9         -4.8853    4.8947   -0.0597 H         1 <0>         0.1231
     36 H10        -2.7137    1.2746    0.6277 H         1 <0>         0.1181
     37 H11        -4.8320    0.0857    1.0224 H         1 <0>         0.1224
     38 H12        -2.4644    4.8038   -0.0788 H         1 <0>         0.4166
     39 H13        -1.9498    3.8358    2.5135 H         1 <0>         0.1485
     40 H14         2.3127    1.3166    2.2235 H         1 <0>         0.1571
     41 H15         0.8864    1.6336   -2.1398 H         1 <0>         0.1731
     42 H16         3.2703    1.1427    5.4559 H         1 <0>         0.1073
     43 H17         2.6080    0.3229    4.0215 H         1 <0>         0.0626
     44 H18         3.4997    1.8526    3.8398 H         1 <0>         0.0626
     45 H19        -1.8997    5.0415    4.1975 H         1 <0>         0.0579
     46 H20        -2.7909    3.5114    4.3787 H         1 <0>         0.0596
     47 H21        -2.2525    4.4041    5.8215 H         1 <0>         0.1067
@<TRIPOS>BOND
     1    1    2 1
     2    1   27 1
     3    1   28 1
     4    1   29 1
     5    2    3 1
     6    2    4 1
     7    2   30 1
     8    3   31 1
     9    3   32 1
    10    3   33 1
    11    4    9 ar
    12    4    5 ar
    13    5    6 ar
    14    5   34 1
    15    6    7 ar
    16    6   35 1
    17    7    8 ar
    18    7   10 1
    19    8    9 ar
    20    8   36 1
    21    9   37 1
    22   10   11 1
    23   10   38 1
    24   11   20 ar
    25   11   12 ar
    26   12   17 ar
    27   12   13 ar
    28   13   14 ar
    29   13   39 1
    30   14   15 ar
    31   14   25 1
    32   15   16 ar
    33   15   23 1
    34   16   17 ar
    35   16   40 1
    36   17   18 ar
    37   18   19 ar
    38   19   20 ar
    39   19   41 1
    40   20   21 1
    41   21   22 3
    42   23   24 1
    43   24   42 1
    44   24   43 1
    45   24   44 1
    46   25   26 1
    47   26   45 1
    48   26   46 1
    49   26   47 1
@<TRIPOS>MOLECULE
ZINC38145818
   65    69     0     0     0
SMALL
USER_CHARGES

@<TRIPOS>ATOM
      1 C1          1.0889    3.1135    0.0879 C.3       1 <0>        -0.6534
      2 S1          0.7901    1.3275   -0.0199 S.o2      1 <0>         2.4242
      3 O1          1.4520    0.6946    1.0666 O.2       1 <0>        -0.9347
      4 O2         -0.6036    1.1149   -0.1984 O.2       1 <0>        -0.9375
      5 C2          1.6414    0.8708   -1.5552 C.3       1 <0>        -0.6165
      6 C3          1.4838   -0.6315   -1.7983 C.3       1 <0>         0.0709
      7 N1          2.1733   -1.0014   -3.0416 N.3       1 <0>        -0.6742
      8 C4          2.0429   -2.4402   -3.3078 C.3       1 <0>         0.1440
      9 C5          2.7610   -2.7812   -4.5881 C.2       1 <0>         0.0591
     10 N2          4.0068   -3.1457   -4.7452 N.2       1 <0>        -0.4930
     11 C6          4.5005   -3.4158   -5.9453 C.2       1 <0>         0.1052
     12 C7          3.6384   -3.2923   -7.0022 C.2       1 <0>        -0.2165
     13 S2          2.1487   -2.7908   -6.1554 S.3       1 <0>         0.1228
     14 C8          5.9123   -3.8295   -6.1336 C.ar      1 <0>        -0.0368
     15 C9          6.3928   -4.0993   -7.4238 C.ar      1 <0>        -0.0588
     16 C10         7.6832   -4.4807   -7.6232 C.ar      1 <0>        -0.1047
     17 C11         8.5519   -4.6080   -6.5294 C.ar      1 <0>         0.1944
     18 C12         8.0756   -4.3371   -5.2227 C.ar      1 <0>        -0.1922
     19 C13         6.7486   -3.9412   -5.0349 C.ar      1 <0>        -0.0336
     20 C14         8.9783   -4.4744   -4.1392 C.ar      1 <0>         0.4703
     21 N3         10.2228   -4.8496   -4.4042 N.ar      1 <0>        -0.5834
     22 C15        10.6223   -5.0918   -5.6422 C.ar      1 <0>         0.3498
     23 N4          9.8311   -4.9810   -6.6829 N.ar      1 <0>        -0.5457
     24 N5          8.5743   -4.2245   -2.8443 N.pl3     1 <0>        -0.6341
     25 C16         9.5090   -4.2482   -1.8025 C.ar      1 <0>         0.1263
     26 C17         9.1430   -4.7281   -0.5516 C.ar      1 <0>        -0.0959
     27 C18        10.0653   -4.7513    0.4760 C.ar      1 <0>        -0.1784
     28 C19        11.3572   -4.2954    0.2596 C.ar      1 <0>         0.1284
     29 C20        11.7243   -3.8155   -0.9900 C.ar      1 <0>        -0.0488
     30 C21        10.8039   -3.7971   -2.0208 C.ar      1 <0>        -0.0608
     31 Cl1        13.3414   -3.2445   -1.2599 Cl        1 <0>        -0.0476
     32 O3         12.2646   -4.3183    1.2724 O.3       1 <0>        -0.2951
     33 C22        11.8184   -4.8247    2.5320 C.3       1 <0>         0.0996
     34 C23        12.9516   -4.7729    3.5241 C.ar      1 <0>        -0.0687
     35 C24        13.8094   -5.8499    3.6502 C.ar      1 <0>        -0.1037
     36 C25        14.8491   -5.8039    4.5598 C.ar      1 <0>        -0.0921
     37 C26        15.0322   -4.6810    5.3448 C.ar      1 <0>        -0.1421
     38 C27        14.1739   -3.6021    5.2194 C.ar      1 <0>         0.0966
     39 C28        13.1362   -3.6469    4.3034 C.ar      1 <0>        -0.1286
     40 F1         14.3516   -2.5042    5.9864 F         1 <0>        -0.1368
     41 H1          2.1619    3.3004    0.1301 H         1 <0>         0.1300
     42 H2          0.6684    3.6058   -0.7889 H         1 <0>         0.1290
     43 H3          0.6158    3.5073    0.9875 H         1 <0>         0.1329
     44 H4          1.2066    1.4214   -2.3894 H         1 <0>         0.1331
     45 H5          2.7001    1.1160   -1.4704 H         1 <0>         0.1435
     46 H6          1.9186   -1.1822   -0.9641 H         1 <0>         0.0959
     47 H7          0.4251   -0.8768   -1.8831 H         1 <0>         0.0551
     48 H8          1.8322   -0.4573   -3.8198 H         1 <0>         0.3475
     49 H9          2.4816   -3.0033   -2.4841 H         1 <0>         0.1113
     50 H10         0.9881   -2.6980   -3.4031 H         1 <0>         0.0666
     51 H11         3.8109   -3.4564   -8.0556 H         1 <0>         0.2008
     52 H12         5.7290   -4.0032   -8.2703 H         1 <0>         0.1362
     53 H13         8.0383   -4.6857   -8.6224 H         1 <0>         0.1464
     54 H14         6.3777   -3.7287   -4.0431 H         1 <0>         0.1374
     55 H15        11.6466   -5.3941   -5.8034 H         1 <0>         0.1985
     56 H16         7.6424   -4.0323   -2.6556 H         1 <0>         0.4244
     57 H17         8.1371   -5.0829   -0.3824 H         1 <0>         0.1357
     58 H18         9.7804   -5.1243    1.4487 H         1 <0>         0.1425
     59 H19        11.0906   -3.4281   -2.9945 H         1 <0>         0.1516
     60 H20        10.9896   -4.2168    2.8949 H         1 <0>         0.0771
     61 H21        11.4873   -5.8562    2.4121 H         1 <0>         0.0790
     62 H22        13.6667   -6.7280    3.0378 H         1 <0>         0.1331
     63 H23        15.5186   -6.6457    4.6575 H         1 <0>         0.1378
     64 H24        15.8442   -4.6456    6.0559 H         1 <0>         0.1386
     65 H25        12.4687   -2.8040    4.2016 H         1 <0>         0.1380
@<TRIPOS>BOND
     1    1    2 1
     2    1   41 1
     3    1   42 1
     4    1   43 1
     5    2    3 2
     6    2    4 2
     7    2    5 1
     8    5    6 1
     9    5   44 1
    10    5   45 1
    11    6    7 1
    12    6   46 1
    13    6   47 1
    14    7    8 1
    15    7   48 1
    16    8    9 1
    17    8   49 1
    18    8   50 1
    19    9   13 1
    20    9   10 2
    21   10   11 1
    22   11   12 2
    23   11   14 1
    24   12   13 1
    25   12   51 1
    26   14   19 ar
    27   14   15 ar
    28   15   16 ar
    29   15   52 1
    30   16   17 ar
    31   16   53 1
    32   17   23 ar
    33   17   18 ar
    34   18   19 ar
    35   18   20 ar
    36   19   54 1
    37   20   21 ar
    38   20   24 1
    39   21   22 ar
    40   22   23 ar
    41   22   55 1
    42   24   25 1
    43   24   56 1
    44   25   30 ar
    45   25   26 ar
    46   26   27 ar
    47   26   57 1
    48   27   28 ar
    49   27   58 1
    50   28   29 ar
    51   28   32 1
    52   29   30 ar
    53   29   31 1
    54   30   59 1
    55   32   33 1
    56   33   34 1
    57   33   60 1
    58   33   61 1
    59   34   39 ar
    60   34   35 ar
    61   35   36 ar
    62   35   62 1
    63   36   37 ar
    64   36   63 1
    65   37   38 ar
    66   37   64 1
    67   38   39 ar
    68   38   40 1
    69   39   65 1
@<TRIPOS>MOLECULE
ZINC00155806
   36    39     0     0     0
SMALL
USER_CHARGES

@<TRIPOS>ATOM
      1 C1         -0.0168    1.3847    0.0097 C.ar      1 <0>        -0.0734
      2 C2          1.1616    2.1028    0.0023 C.ar      1 <0>        -0.1509
      3 C3          2.3808    1.4427   -0.0114 C.ar      1 <0>         0.1127
      4 C4          2.4085    0.0532   -0.0117 C.ar      1 <0>         0.0607
      5 C5          1.2174   -0.6637   -0.0015 C.ar      1 <0>         0.1096
      6 C6          0.0021   -0.0041    0.0020 C.ar      1 <0>        -0.1291
      7 C7         -1.3116   -0.7345   -0.0163 C.3       1 <0>         0.0091
      8 H1         -1.9318   -0.4037    0.8168 H         1 <0>         0.1097
      9 C8         -2.0129   -0.4571   -1.3205 C.ar      1 <0>        -0.0779
     10 C9         -2.6959    0.6838   -1.7124 C.ar      1 <0>        -0.1043
     11 C10        -3.2557    0.6821   -2.9862 C.ar      1 <0>         0.0796
     12 C11        -3.1345   -0.4159   -3.8281 C.ar      1 <0>         0.0844
     13 C12        -2.4489   -1.5604   -3.4334 C.ar      1 <0>        -0.1119
     14 C13        -1.8915   -1.5584   -2.1635 C.ar      1 <0>        -0.0767
     15 C14        -1.1086   -2.6429   -1.4764 C.3       1 <0>        -0.1092
     16 C15        -1.1367   -2.2593    0.0349 C.3       1 <0>         0.1052
     17 C16         0.1665   -2.6533    0.7137 C.3       1 <0>         0.0380
     18 O1          1.2602   -2.0251    0.0116 O.3       1 <0>        -0.2900
     19 O2         -2.2545   -2.8668    0.6855 O.3       1 <0>        -0.5371
     20 O3         -3.6985   -0.3715   -5.0648 O.3       1 <0>        -0.4881
     21 O4         -3.9361    1.7784   -3.4157 O.3       1 <0>        -0.4873
     22 O5          3.5998   -0.6047   -0.0226 O.3       1 <0>        -0.4731
     23 O6          3.5420    2.1503   -0.0247 O.3       1 <0>        -0.4824
     24 H2         -0.9619    1.9071    0.0260 H         1 <0>         0.1342
     25 H3          1.1341    3.1825    0.0068 H         1 <0>         0.1393
     26 H4         -2.7898    1.5371   -1.0570 H         1 <0>         0.1407
     27 H5         -2.3551   -2.4142   -4.0881 H         1 <0>         0.1413
     28 H6         -1.5859   -3.6108   -1.6293 H         1 <0>         0.0896
     29 H7         -0.0828   -2.6620   -1.8446 H         1 <0>         0.1013
     30 H8          0.1476   -2.3287    1.7541 H         1 <0>         0.0810
     31 H9          0.2860   -3.7359    0.6715 H         1 <0>         0.1177
     32 H10        -2.1981   -3.8303    0.7466 H         1 <0>         0.3851
     33 H11        -3.1135   -0.0237   -5.7517 H         1 <0>         0.3880
     34 H12        -3.3848    2.4308   -3.8691 H         1 <0>         0.3873
     35 H13         3.9521   -0.7949    0.8577 H         1 <0>         0.3853
     36 H14         3.8879    2.3553    0.8547 H         1 <0>         0.3918
@<TRIPOS>BOND
     1    1    6 ar
     2    1    2 ar
     3    1   24 1
     4    2    3 ar
     5    2   25 1
     6    3    4 ar
     7    3   23 1
     8    4    5 ar
     9    4   22 1
    10    5   18 1
    11    5    6 ar
    12    6    7 1
    13    7    8 1
    14    7   16 1
    15    7    9 1
    16    9   14 ar
    17    9   10 ar
    18   10   11 ar
    19   10   26 1
    20   11   12 ar
    21   11   21 1
    22   12   13 ar
    23   12   20 1
    24   13   14 ar
    25   13   27 1
    26   14   15 1
    27   15   16 1
    28   15   28 1
    29   15   29 1
    30   16   17 1
    31   16   19 1
    32   17   18 1
    33   17   30 1
    34   17   31 1
    35   19   32 1
    36   20   33 1
    37   21   34 1
    38   22   35 1
    39   23   36 1
@<TRIPOS>MOLECULE
ZINC03817105
   62    65     0     0     0
SMALL
USER_CHARGES
2-methoxy-N-[3-[4-[3-methyl-4-[(6-methyl-3-pyridyl)oxy]phenyl]aminoquinazolin-6-yl]prop-2-enyl]acetamide
@<TRIPOS>ATOM
      1 C1        -11.0375   12.0334   -7.2046 C.3       1 <0>        -0.1017
      2 C2         -9.5320   11.9996   -7.2611 C.ar      1 <0>         0.0932
      3 C3         -8.8602   12.8880   -8.0803 C.ar      1 <0>        -0.1328
      4 C4         -7.4762   12.8510   -8.1269 C.ar      1 <0>        -0.0994
      5 C5         -6.8128   11.9135   -7.3409 C.ar      1 <0>         0.0664
      6 C6         -7.5569   11.0518   -6.5481 C.ar      1 <0>         0.0388
      7 N1         -8.8732   11.1230   -6.5289 N.ar      1 <0>        -0.4512
      8 O1         -5.4560   11.8394   -7.3540 O.3       1 <0>        -0.2470
      9 C7         -4.8557   10.9740   -6.4943 C.ar      1 <0>         0.0572
     10 C8         -4.4184   11.4190   -5.2548 C.ar      1 <0>        -0.0943
     11 C9         -3.8135   10.5396   -4.3793 C.ar      1 <0>        -0.1022
     12 C10        -3.6322    9.2116   -4.7439 C.ar      1 <0>         0.1634
     13 C11        -4.0700    8.7669   -5.9844 C.ar      1 <0>        -0.1357
     14 C12        -4.6801    9.6465   -6.8569 C.ar      1 <0>        -0.0670
     15 C13        -5.1558    9.1640   -8.2030 C.3       1 <0>        -0.1185
     16 N2         -3.0137    8.3207   -3.8590 N.pl3     1 <0>        -0.6371
     17 C14        -2.0241    8.7683   -3.0095 C.ar      1 <0>         0.4668
     18 C15        -1.4621    7.9109   -2.0305 C.ar      1 <0>        -0.1868
     19 C16        -1.8744    6.5843   -1.8848 C.ar      1 <0>        -0.0597
     20 C17        -1.2897    5.7953   -0.9049 C.ar      1 <0>        -0.0684
     21 C18        -0.2860    6.3202   -0.0742 C.ar      1 <0>        -0.0681
     22 C19         0.1284    7.6083   -0.2086 C.ar      1 <0>        -0.1020
     23 C20        -0.4488    8.4309   -1.1875 C.ar      1 <0>         0.1902
     24 N3         -0.0675    9.7063   -1.3521 N.ar      1 <0>        -0.5433
     25 C21        -0.6233   10.4542   -2.2756 C.ar      1 <0>         0.3464
     26 N4         -1.5723   10.0131   -3.0857 N.ar      1 <0>        -0.5802
     27 C22        -1.7212    4.3921   -0.7380 C.2       1 <0>        -0.0925
     28 C23        -1.1613    3.6325    0.1938 C.2       1 <0>        -0.1638
     29 C24        -1.6014    2.2013    0.3640 C.3       1 <0>         0.1510
     30 N5         -0.4369    1.3176    0.2678 N.am      1 <0>        -0.7292
     31 C25        -0.5909   -0.0157    0.3905 C.2       1 <0>         0.5128
     32 O2         -1.6927   -0.4835    0.5855 O.2       1 <0>        -0.5149
     33 C26         0.6061   -0.9253    0.2853 C.3       1 <0>         0.0429
     34 O3          0.1889   -2.2823    0.4480 O.3       1 <0>        -0.3671
     35 C27         1.2538   -3.2316    0.3650 C.3       1 <0>         0.0291
     36 H1        -11.4446   11.3637   -7.9622 H         1 <0>         0.0774
     37 H2        -11.3714   11.7118   -6.2181 H         1 <0>         0.0766
     38 H3        -11.3855   13.0491   -7.3927 H         1 <0>         0.0751
     39 H4         -9.4080   13.6027   -8.6766 H         1 <0>         0.1440
     40 H5         -6.9254   13.5332   -8.7575 H         1 <0>         0.1451
     41 H6         -7.0525   10.3174   -5.9376 H         1 <0>         0.1559
     42 H7         -4.5554   12.4527   -4.9732 H         1 <0>         0.1367
     43 H8         -3.4776   10.8851   -3.4127 H         1 <0>         0.1462
     44 H9         -3.9337    7.7334   -6.2666 H         1 <0>         0.1343
     45 H10        -6.1855    8.8160   -8.1212 H         1 <0>         0.0740
     46 H11        -5.1048    9.9824   -8.9211 H         1 <0>         0.0747
     47 H12        -4.5211    8.3445   -8.5403 H         1 <0>         0.0740
     48 H13        -3.2812    7.3884   -3.8434 H         1 <0>         0.4225
     49 H14        -2.6429    6.1782   -2.5258 H         1 <0>         0.1297
     50 H15         0.1628    5.6922    0.6812 H         1 <0>         0.1374
     51 H16         0.9015    7.9976    0.4373 H         1 <0>         0.1443
     52 H17        -0.2915   11.4767   -2.3793 H         1 <0>         0.1989
     53 H18        -2.4926    3.9850   -1.3748 H         1 <0>         0.1261
     54 H19        -0.3898    4.0396    0.8306 H         1 <0>         0.1239
     55 H20        -2.3169    1.9458   -0.4176 H         1 <0>         0.0754
     56 H21        -2.0706    2.0791    1.3402 H         1 <0>         0.0825
     57 H22         0.4443    1.6918    0.1118 H         1 <0>         0.4030
     58 H23         1.0707   -0.8027   -0.6931 H         1 <0>         0.0815
     59 H24         1.3255   -0.6705    1.0636 H         1 <0>         0.0818
     60 H25         1.9866   -3.0248    1.1449 H         1 <0>         0.0453
     61 H26         0.8552   -4.2373    0.4985 H         1 <0>         0.0934
     62 H27         1.7318   -3.1570   -0.6118 H         1 <0>         0.0451
@<TRIPOS>BOND
     1    1    2 1
     2    1   36 1
     3    1   37 1
     4    1   38 1
     5    2    7 ar
     6    2    3 ar
     7    3    4 ar
     8    3   39 1
     9    4    5 ar
    10    4   40 1
    11    5    6 ar
    12    5    8 1
    13    6    7 ar
    14    6   41 1
    15    8    9 1
    16    9   14 ar
    17    9   10 ar
    18   10   11 ar
    19   10   42 1
    20   11   12 ar
    21   11   43 1
    22   12   13 ar
    23   12   16 1
    24   13   14 ar
    25   13   44 1
    26   14   15 1
    27   15   45 1
    28   15   46 1
    29   15   47 1
    30   16   17 1
    31   16   48 1
    32   17   26 ar
    33   17   18 ar
    34   18   23 ar
    35   18   19 ar
    36   19   20 ar
    37   19   49 1
    38   20   21 ar
    39   20   27 1
    40   21   22 ar
    41   21   50 1
    42   22   23 ar
    43   22   51 1
    44   23   24 ar
    45   24   25 ar
    46   25   26 ar
    47   25   52 1
    48   27   28 2
    49   27   53 1
    50   28   29 1
    51   28   54 1
    52   29   30 1
    53   29   55 1
    54   29   56 1
    55   30   31 am
    56   30   57 1
    57   31   32 2
    58   31   33 1
    59   33   34 1
    60   33   58 1
    61   33   59 1
    62   34   35 1
    63   35   60 1
    64   35   61 1
    65   35   62 1
@<TRIPOS>MOLECULE
ZINC02204479
   37    39     0     0     0
SMALL
USER_CHARGES

@<TRIPOS>ATOM
      1 C1          1.8094   -4.6578   -0.1239 C.ar      1 <0>        -0.1359
      2 C2          3.1855   -4.5776   -0.0118 C.ar      1 <0>        -0.0941
      3 C3          3.8120   -3.3498   -0.0204 C.ar      1 <0>        -0.1262
      4 C4          3.0625   -2.1777   -0.1418 C.ar      1 <0>         0.1410
      5 C5          1.6843   -2.2690   -0.2536 C.ar      1 <0>        -0.1337
      6 C6          1.0608   -3.5021   -0.2450 C.ar      1 <0>        -0.0796
      7 C7          1.1175   -0.8721   -0.3713 C.3       1 <0>        -0.0852
      8 C8          2.3464    0.0500   -0.3137 C.3       1 <0>         0.0927
      9 N1          3.4948   -0.8491   -0.1718 N.am      1 <0>        -0.5478
     10 C9          4.7798   -0.4526   -0.0825 C.2       1 <0>         0.5853
     11 O1          5.6559   -1.2710    0.1250 O.2       1 <0>        -0.5040
     12 C10         5.1232    0.9694   -0.2358 C.2       1 <0>        -0.1349
     13 C11         6.4444    1.3595   -0.2692 C.2       1 <0>         0.0858
     14 C12         6.7878    2.7830   -0.2653 C.ar      1 <0>        -0.1042
     15 C13         7.9651    3.2245   -0.8862 C.ar      1 <0>        -0.0659
     16 C14         8.2846    4.5632   -0.8805 C.ar      1 <0>        -0.1354
     17 C15         7.4441    5.4797   -0.2606 C.ar      1 <0>         0.1118
     18 C16         6.2708    5.0492    0.3601 C.ar      1 <0>         0.0812
     19 C17         5.9376    3.7103    0.3544 C.ar      1 <0>        -0.1023
     20 O2          5.4522    5.9507    0.9656 O.3       1 <0>        -0.4832
     21 O3          7.7657    6.7987   -0.2584 O.3       1 <0>        -0.4847
     22 C18         4.0844    1.9484   -0.3504 C.1       1 <0>         0.2511
     23 N2          3.2604    2.7251   -0.4413 N.1       1 <0>        -0.4035
     24 H1          1.3213   -5.6212   -0.1214 H         1 <0>         0.1285
     25 H2          3.7713   -5.4799    0.0832 H         1 <0>         0.1303
     26 H3          4.8869   -3.2940    0.0676 H         1 <0>         0.1410
     27 H4         -0.0139   -3.5631   -0.3326 H         1 <0>         0.1270
     28 H5          0.5962   -0.7520   -1.3210 H         1 <0>         0.0945
     29 H6          0.4458   -0.6628    0.4612 H         1 <0>         0.0945
     30 H7          2.4296    0.6272   -1.2346 H         1 <0>         0.0852
     31 H8          2.2793    0.7163    0.5463 H         1 <0>         0.0845
     32 H9          7.2266    0.6154   -0.2983 H         1 <0>         0.1716
     33 H10         8.6207    2.5145   -1.3683 H         1 <0>         0.1454
     34 H11         9.1916    4.9022   -1.3590 H         1 <0>         0.1447
     35 H12         5.0272    3.3767    0.8300 H         1 <0>         0.1385
     36 H13         4.7746    6.3201    0.3830 H         1 <0>         0.3915
     37 H14         7.4183    7.2895   -1.0157 H         1 <0>         0.3946
@<TRIPOS>BOND
     1    1    6 ar
     2    1    2 ar
     3    1   24 1
     4    2    3 ar
     5    2   25 1
     6    3    4 ar
     7    3   26 1
     8    4    9 1
     9    4    5 ar
    10    5    6 ar
    11    5    7 1
    12    6   27 1
    13    7    8 1
    14    7   28 1
    15    7   29 1
    16    8    9 1
    17    8   30 1
    18    8   31 1
    19    9   10 am
    20   10   11 2
    21   10   12 1
    22   12   13 2
    23   12   22 1
    24   13   14 1
    25   13   32 1
    26   14   19 ar
    27   14   15 ar
    28   15   16 ar
    29   15   33 1
    30   16   17 ar
    31   16   34 1
    32   17   18 ar
    33   17   21 1
    34   18   19 ar
    35   18   20 1
    36   19   35 1
    37   20   36 1
    38   21   37 1
    39   22   23 3
@<TRIPOS>MOLECULE
ZINC00381251
   24    25     0     0     0
SMALL
USER_CHARGES

@<TRIPOS>ATOM
      1 C1         -0.0169    1.3944    0.0097 C.ar      1 <0>        -0.0529
      2 C2          1.1692    2.0967    0.0022 C.ar      1 <0>        -0.1590
      3 C3          2.3790    1.4199   -0.0135 C.ar      1 <0>         0.1202
      4 C4          2.4048    0.0339   -0.0216 C.ar      1 <0>        -0.1619
      5 C5          1.2260   -0.6806   -0.0138 C.ar      1 <0>        -0.0446
      6 C6          0.0021   -0.0041    0.0020 C.ar      1 <0>        -0.0836
      7 C7         -1.2602   -0.7603    0.0105 C.2       1 <0>         0.2037
      8 N1         -1.2392   -2.0655    0.0033 N.2       1 <0>        -0.3737
      9 N2         -2.3458   -2.7284    0.0107 N.2       1 <0>        -0.3482
     10 C8         -2.3246   -4.0450    0.0034 C.2       1 <0>         0.3896
     11 N3         -1.2267   -4.8787   -0.0063 N.am      1 <0>        -0.6799
     12 C9         -1.3358   -6.1962   -0.0123 C.2       1 <0>         0.5205
     13 C10        -2.7545   -6.7427   -0.0077 C.3       1 <0>        -0.1300
     14 S1         -3.7119   -5.1708    0.0118 S.3       1 <0>        -0.0086
     15 O1         -0.3652   -6.9231   -0.0204 O.2       1 <0>        -0.4814
     16 F1          3.5379    2.1142   -0.0213 F         1 <0>        -0.1345
     17 H1         -0.9587    1.9228    0.0260 H         1 <0>         0.1427
     18 H2          1.1560    3.1766    0.0081 H         1 <0>         0.1429
     19 H3          3.3507   -0.4873   -0.0345 H         1 <0>         0.1405
     20 H4          1.2476   -1.7604   -0.0205 H         1 <0>         0.1405
     21 H5         -2.2041   -0.2355    0.0227 H         1 <0>         0.1219
     22 H6         -2.9577   -7.3218   -0.9085 H         1 <0>         0.1576
     23 H7         -2.9485   -7.3307    0.8894 H         1 <0>         0.1574
     24 H8         -0.3407   -4.4837   -0.0092 H         1 <0>         0.4208
@<TRIPOS>BOND
     1    1    6 ar
     2    1    2 ar
     3    1   17 1
     4    2    3 ar
     5    2   18 1
     6    3    4 ar
     7    3   16 1
     8    4    5 ar
     9    4   19 1
    10    5    6 ar
    11    5   20 1
    12    6    7 1
    13    7    8 2
    14    7   21 1
    15    8    9 1
    16    9   10 2
    17   10   14 1
    18   10   11 1
    19   11   12 am
    20   11   24 1
    21   12   13 1
    22   12   15 2
    23   13   14 1
    24   13   22 1
    25   13   23 1
@<TRIPOS>MOLECULE
ZINC12428943
   24    25     0     0     0
SMALL
USER_CHARGES

@<TRIPOS>ATOM
      1 C1         -0.0169    1.3943    0.0097 C.ar      1 <0>        -0.0704
      2 C2          1.1695    2.0965    0.0022 C.ar      1 <0>        -0.1156
      3 C3          2.3783    1.4202   -0.0130 C.ar      1 <0>        -0.0168
      4 C4          2.4048    0.0353   -0.0212 C.ar      1 <0>        -0.1182
      5 C5          1.2263   -0.6800   -0.0138 C.ar      1 <0>        -0.0618
      6 C6          0.0021   -0.0041    0.0020 C.ar      1 <0>        -0.0674
      7 C7         -1.2601   -0.7606    0.0105 C.2       1 <0>         0.2004
      8 N1         -1.2388   -2.0658    0.0033 N.2       1 <0>        -0.3705
      9 N2         -2.3452   -2.7289    0.0107 N.2       1 <0>        -0.3490
     10 C8         -2.3237   -4.0458    0.0034 C.2       1 <0>         0.3908
     11 N3         -1.2258   -4.8791   -0.0063 N.am      1 <0>        -0.6799
     12 C9         -1.3345   -6.1966   -0.0127 C.2       1 <0>         0.5205
     13 O1         -0.3637   -6.9232   -0.0213 O.2       1 <0>        -0.4808
     14 C10        -2.7531   -6.7436   -0.0081 C.3       1 <0>        -0.1301
     15 S1         -3.7108   -5.1718    0.0118 S.3       1 <0>        -0.0077
     16 Cl1         3.8673    2.3127   -0.0224 Cl        1 <0>        -0.0626
     17 H1         -0.9586    1.9228    0.0260 H         1 <0>         0.1418
     18 H2          1.1564    3.1764    0.0077 H         1 <0>         0.1407
     19 H3          3.3509   -0.4854   -0.0337 H         1 <0>         0.1383
     20 H4          1.2484   -1.7598   -0.0205 H         1 <0>         0.1397
     21 H5         -2.2040   -0.2360    0.0227 H         1 <0>         0.1222
     22 H6         -0.3400   -4.4839   -0.0089 H         1 <0>         0.4209
     23 H7         -2.9563   -7.3224   -0.9091 H         1 <0>         0.1578
     24 H8         -2.9468   -7.3319    0.8888 H         1 <0>         0.1576
@<TRIPOS>BOND
     1    1    6 ar
     2    1    2 ar
     3    1   17 1
     4    2    3 ar
     5    2   18 1
     6    3    4 ar
     7    3   16 1
     8    4    5 ar
     9    4   19 1
    10    5    6 ar
    11    5   20 1
    12    6    7 1
    13    7    8 2
    14    7   21 1
    15    8    9 1
    16    9   10 2
    17   10   15 1
    18   10   11 1
    19   11   12 am
    20   11   22 1
    21   12   13 2
    22   12   14 1
    23   14   15 1
    24   14   23 1
    25   14   24 1
@<TRIPOS>MOLECULE
ZINC12428943
   25    26     0     0     0
SMALL
USER_CHARGES

@<TRIPOS>ATOM
      1 C1         -0.0169    1.3928    0.0097 C.ar      1 <0>        -0.0474
      2 C2          1.1697    2.0955    0.0021 C.ar      1 <0>        -0.1173
      3 C3          2.3783    1.4194   -0.0135 C.ar      1 <0>         0.0082
      4 C4          2.4040    0.0347   -0.0216 C.ar      1 <0>        -0.1200
      5 C5          1.2246   -0.6799   -0.0138 C.ar      1 <0>        -0.0445
      6 C6          0.0021   -0.0041    0.0020 C.ar      1 <0>        -0.1032
      7 C7         -1.2629   -0.7618    0.0105 C.2       1 <0>         0.2299
      8 N1         -1.2421   -2.0595    0.0033 N.2       1 <0>        -0.2872
      9 N2         -2.4439   -2.7794    0.0114 N.pl3     1 <0>        -0.4479
     10 C8         -2.4220   -4.1443    0.0039 C.cat     1 <0>         0.5002
     11 N3         -3.4520   -4.9807    0.0042 N.am      1 <0>        -0.6349
     12 C9         -3.3472   -6.2813   -0.0036 C.2       1 <0>         0.5219
     13 O1         -4.3189   -7.0119   -0.0030 O.2       1 <0>        -0.3990
     14 C10        -1.9219   -6.8205   -0.0142 C.3       1 <0>        -0.1520
     15 S1         -0.9988   -5.2261   -0.0167 S.3       1 <0>         0.1567
     16 Cl1         3.8675    2.3114   -0.0235 Cl        1 <0>        -0.0386
     17 H1         -0.9586    1.9212    0.0260 H         1 <0>         0.1475
     18 H2          1.1565    3.1754    0.0081 H         1 <0>         0.1504
     19 H3          3.3498   -0.4866   -0.0345 H         1 <0>         0.1484
     20 H4          1.2460   -1.7597   -0.0205 H         1 <0>         0.1464
     21 H5         -2.2067   -0.2370    0.0227 H         1 <0>         0.1516
     22 H6         -3.2916   -2.3080    0.0224 H         1 <0>         0.4194
     23 H7         -1.7107   -7.4051    0.8812 H         1 <0>         0.1893
     24 H8         -1.7202   -7.3951   -0.9183 H         1 <0>         0.1890
     25 H9         -4.3438   -4.5993    0.0110 H         1 <0>         0.4333
@<TRIPOS>BOND
     1    1    6 ar
     2    1    2 ar
     3    1   17 1
     4    2    3 ar
     5    2   18 1
     6    3    4 ar
     7    3   16 1
     8    4    5 ar
     9    4   19 1
    10    5    6 ar
    11    5   20 1
    12    6    7 1
    13    7    8 2
    14    7   21 1
    15    8    9 1
    16    9   10 1
    17    9   22 1
    18   10   15 1
    19   10   11 2
    20   11   12 am
    21   11   25 1
    22   12   13 2
    23   12   14 1
    24   14   15 1
    25   14   23 1
    26   14   24 1
@<TRIPOS>MOLECULE
ZINC05065632
   25    26     0     0     0
SMALL
USER_CHARGES

@<TRIPOS>ATOM
      1 C1         -0.0169    1.3938    0.0097 C.ar      1 <0>        -0.0286
      2 C2          1.1700    2.0975    0.0022 C.ar      1 <0>        -0.1035
      3 C3          2.3806    1.4249   -0.0130 C.ar      1 <0>        -0.0310
      4 C4          2.4127    0.0416   -0.0212 C.ar      1 <0>        -0.1261
      5 C5          1.2309   -0.6808   -0.0143 C.ar      1 <0>         0.1933
      6 C6          0.0021   -0.0041    0.0020 C.ar      1 <0>        -0.0797
      7 C7         -1.2590   -0.7609    0.0105 C.2       1 <0>         0.1879
      8 N1         -1.2370   -2.0663    0.0033 N.2       1 <0>        -0.3411
      9 N2         -2.3430   -2.7301    0.0107 N.2       1 <0>        -0.3547
     10 C8         -2.3208   -4.0463    0.0034 C.2       1 <0>         0.3982
     11 N3         -1.2220   -4.8793   -0.0064 N.am      1 <0>        -0.6791
     12 C9         -1.3303   -6.1968   -0.0131 C.2       1 <0>         0.5199
     13 O1         -0.3593   -6.9231   -0.0213 O.2       1 <0>        -0.4789
     14 C10        -2.7486   -6.7443   -0.0093 C.3       1 <0>        -0.1309
     15 S1         -3.7072   -5.1731    0.0117 S.3       1 <0>        -0.0070
     16 O2          1.2616   -2.0389   -0.0232 O.3       1 <0>        -0.4624
     17 Br1         4.0726   -0.8640   -0.0425 Br        1 <0>        -0.0162
     18 Br2         1.1436    3.9883    0.0119 Br        1 <0>        -0.0239
     19 H1         -0.9588    1.9219    0.0260 H         1 <0>         0.1527
     20 H2          3.3050    1.9833   -0.0188 H         1 <0>         0.1505
     21 H3         -2.2033   -0.2369    0.0227 H         1 <0>         0.1258
     22 H4         -0.3363   -4.4837   -0.0088 H         1 <0>         0.4235
     23 H5         -2.9511   -7.3231   -0.9105 H         1 <0>         0.1579
     24 H6         -2.9425   -7.3329    0.8874 H         1 <0>         0.1578
     25 H7          1.2792   -2.4378    0.8575 H         1 <0>         0.3958
@<TRIPOS>BOND
     1    1    6 ar
     2    1    2 ar
     3    1   19 1
     4    2    3 ar
     5    2   18 1
     6    3    4 ar
     7    3   20 1
     8    4    5 ar
     9    4   17 1
    10    5    6 ar
    11    5   16 1
    12    6    7 1
    13    7    8 2
    14    7   21 1
    15    8    9 1
    16    9   10 2
    17   10   15 1
    18   10   11 1
    19   11   12 am
    20   11   22 1
    21   12   13 2
    22   12   14 1
    23   14   15 1
    24   14   23 1
    25   14   24 1
    26   16   25 1
@<TRIPOS>MOLECULE
ZINC05065632
   26    27     0     0     0
SMALL
USER_CHARGES

@<TRIPOS>ATOM
      1 C1         -0.0169    1.3923    0.0097 C.ar      1 <0>        -0.0090
      2 C2          1.1701    2.0966    0.0021 C.ar      1 <0>        -0.1078
      3 C3          2.3806    1.4241   -0.0135 C.ar      1 <0>        -0.0038
      4 C4          2.4121    0.0413   -0.0217 C.ar      1 <0>        -0.1302
      5 C5          1.2294   -0.6806   -0.0138 C.ar      1 <0>         0.2087
      6 C6          0.0021   -0.0041    0.0020 C.ar      1 <0>        -0.1135
      7 C7         -1.2617   -0.7622    0.0105 C.2       1 <0>         0.2210
      8 N1         -1.2401   -2.0601    0.0033 N.2       1 <0>        -0.2581
      9 N2         -2.4415   -2.7808    0.0114 N.pl3     1 <0>        -0.4522
     10 C8         -2.4187   -4.1452    0.0038 C.cat     1 <0>         0.5001
     11 N3         -3.4483   -4.9824    0.0041 N.am      1 <0>        -0.6352
     12 C9         -3.3427   -6.2828   -0.0037 C.2       1 <0>         0.5216
     13 O1         -4.3139   -7.0140   -0.0031 O.2       1 <0>        -0.3990
     14 C10        -1.9170   -6.8211   -0.0142 C.3       1 <0>        -0.1558
     15 S1         -0.9948   -5.2261   -0.0167 S.3       1 <0>         0.1675
     16 O2          1.2594   -2.0387   -0.0223 O.3       1 <0>        -0.4634
     17 Br1         4.0715   -0.8652   -0.0443 Br        1 <0>         0.0042
     18 Br2         1.1433    3.9874    0.0126 Br        1 <0>        -0.0025
     19 H1         -0.9589    1.9203    0.0260 H         1 <0>         0.1586
     20 H2          3.3050    1.9824   -0.0197 H         1 <0>         0.1600
     21 H3         -2.2058   -0.2379    0.0227 H         1 <0>         0.1559
     22 H4         -3.2894   -2.3099    0.0223 H         1 <0>         0.4183
     23 H5         -1.7055   -7.4056    0.8812 H         1 <0>         0.1892
     24 H6         -1.7150   -7.3955   -0.9183 H         1 <0>         0.1891
     25 H7          1.2772   -2.4372    0.8586 H         1 <0>         0.4030
     26 H8         -4.3404   -4.6015    0.0110 H         1 <0>         0.4331
@<TRIPOS>BOND
     1    1    6 ar
     2    1    2 ar
     3    1   19 1
     4    2    3 ar
     5    2   18 1
     6    3    4 ar
     7    3   20 1
     8    4    5 ar
     9    4   17 1
    10    5    6 ar
    11    5   16 1
    12    6    7 1
    13    7    8 2
    14    7   21 1
    15    8    9 1
    16    9   10 1
    17    9   22 1
    18   10   15 1
    19   10   11 2
    20   11   12 am
    21   11   26 1
    22   12   13 2
    23   12   14 1
    24   14   15 1
    25   14   23 1
    26   14   24 1
    27   16   25 1
@<TRIPOS>MOLECULE
ZINC05065632
   24    25     0     0     0
SMALL
USER_CHARGES

@<TRIPOS>ATOM
      1 C1         -0.0169    1.3923    0.0097 C.ar      1 <0>         0.0132
      2 C2          1.1701    2.0966    0.0021 C.ar      1 <0>        -0.2233
      3 C3          2.3806    1.4241   -0.0135 C.ar      1 <0>         0.0030
      4 C4          2.4121    0.0413   -0.0217 C.ar      1 <0>        -0.2109
      5 C5          1.2294   -0.6806   -0.0138 C.ar      1 <0>         0.3145
      6 C6          0.0021   -0.0041    0.0020 C.ar      1 <0>        -0.2173
      7 C7         -1.2617   -0.7622    0.0105 C.2       1 <0>         0.1564
      8 N1         -1.2401   -2.0601    0.0033 N.2       1 <0>        -0.1990
      9 N2         -2.4415   -2.7808    0.0114 N.pl3     1 <0>        -0.5023
     10 C8         -2.4187   -4.1452    0.0038 C.2       1 <0>         0.5579
     11 N3         -1.3618   -4.9475   -0.0051 N.2       1 <0>        -0.6319
     12 C9         -1.4241   -6.2508   -0.0113 C.2       1 <0>         0.5287
     13 O1         -0.4291   -6.9492   -0.0190 O.2       1 <0>        -0.4712
     14 C10        -2.8310   -6.8364   -0.0076 C.3       1 <0>        -0.1394
     15 S1         -3.8058   -5.2731    0.0116 S.3       1 <0>        -0.2140
     16 O2          1.2594   -2.0387   -0.0223 O.3       1 <0>        -0.6006
     17 Br1         4.0715   -0.8652   -0.0443 Br        1 <0>        -0.0778
     18 Br2         1.1433    3.9874    0.0126 Br        1 <0>        -0.0944
     19 H1         -0.9589    1.9203    0.0260 H         1 <0>         0.1141
     20 H2          3.3050    1.9824   -0.0197 H         1 <0>         0.1150
     21 H3         -2.2058   -0.2379    0.0227 H         1 <0>         0.1054
     22 H4         -3.2894   -2.3099    0.0223 H         1 <0>         0.3931
     23 H5         -3.0226   -7.4180   -0.9093 H         1 <0>         0.1405
     24 H6         -3.0141   -7.4269    0.8902 H         1 <0>         0.1403
@<TRIPOS>BOND
     1    1    6 ar
     2    1    2 ar
     3    1   19 1
     4    2    3 ar
     5    2   18 1
     6    3    4 ar
     7    3   20 1
     8    4    5 ar
     9    4   17 1
    10    5    6 ar
    11    5   16 1
    12    6    7 1
    13    7    8 2
    14    7   21 1
    15    8    9 1
    16    9   10 1
    17    9   22 1
    18   10   15 1
    19   10   11 2
    20   11   12 1
    21   12   13 2
    22   12   14 1
    23   14   15 1
    24   14   23 1
    25   14   24 1
@<TRIPOS>MOLECULE
ZINC05065632
   24    25     0     0     0
SMALL
USER_CHARGES

@<TRIPOS>ATOM
      1 C1         -0.0169    1.3938    0.0097 C.ar      1 <0>         0.0126
      2 C2          1.1700    2.0975    0.0022 C.ar      1 <0>        -0.2200
      3 C3          2.3806    1.4249   -0.0130 C.ar      1 <0>         0.0031
      4 C4          2.4127    0.0416   -0.0212 C.ar      1 <0>        -0.2141
      5 C5          1.2309   -0.6808   -0.0143 C.ar      1 <0>         0.3248
      6 C6          0.0021   -0.0041    0.0020 C.ar      1 <0>        -0.2220
      7 C7         -1.2590   -0.7609    0.0105 C.2       1 <0>         0.2366
      8 N1         -1.2370   -2.0663    0.0033 N.2       1 <0>        -0.3570
      9 N2         -2.3430   -2.7301    0.0107 N.2       1 <0>        -0.3341
     10 C8         -2.3208   -4.0463    0.0034 C.2       1 <0>         0.3509
     11 N3         -1.2220   -4.8793   -0.0064 N.am      1 <0>        -0.6685
     12 C9         -1.3303   -6.1968   -0.0131 C.2       1 <0>         0.5161
     13 O1         -0.3593   -6.9231   -0.0213 O.2       1 <0>        -0.5042
     14 C10        -2.7486   -6.7443   -0.0093 C.3       1 <0>        -0.1224
     15 S1         -3.7072   -5.1731    0.0117 S.3       1 <0>        -0.0567
     16 O2          1.2616   -2.0389   -0.0232 O.3       1 <0>        -0.6206
     17 Br1         4.0726   -0.8640   -0.0425 Br        1 <0>        -0.0801
     18 Br2         1.1436    3.9883    0.0119 Br        1 <0>        -0.0932
     19 H1         -0.9588    1.9219    0.0260 H         1 <0>         0.1160
     20 H2          3.3050    1.9833   -0.0188 H         1 <0>         0.1153
     21 H3         -2.2033   -0.2369    0.0227 H         1 <0>         0.0918
     22 H4         -0.3363   -4.4837   -0.0088 H         1 <0>         0.4332
     23 H5         -2.9511   -7.3231   -0.9105 H         1 <0>         0.1464
     24 H6         -2.9425   -7.3329    0.8874 H         1 <0>         0.1461
@<TRIPOS>BOND
     1    1    6 ar
     2    1    2 ar
     3    1   19 1
     4    2    3 ar
     5    2   18 1
     6    3    4 ar
     7    3   20 1
     8    4    5 ar
     9    4   17 1
    10    5    6 ar
    11    5   16 1
    12    6    7 1
    13    7    8 2
    14    7   21 1
    15    8    9 1
    16    9   10 2
    17   10   15 1
    18   10   11 1
    19   11   12 am
    20   11   22 1
    21   12   13 2
    22   12   14 1
    23   14   15 1
    24   14   23 1
    25   14   24 1
@<TRIPOS>MOLECULE
ZINC16662214
   25    26     0     0     0
SMALL
USER_CHARGES

@<TRIPOS>ATOM
      1 C1         -0.0169    1.3932    0.0097 C.ar      1 <0>        -0.0644
      2 C2          1.1683    2.0963    0.0022 C.ar      1 <0>        -0.1525
      3 C3          2.3804    1.4182   -0.0135 C.ar      1 <0>         0.1323
      4 C4          2.4041    0.0295   -0.0217 C.ar      1 <0>        -0.1519
      5 C5          1.2240   -0.6820   -0.0138 C.ar      1 <0>        -0.0533
      6 C6          0.0021   -0.0041    0.0020 C.ar      1 <0>        -0.0791
      7 C7         -1.2631   -0.7607    0.0105 C.2       1 <0>         0.1416
      8 N1         -1.2432   -2.0585    0.0034 N.2       1 <0>        -0.2316
      9 N2         -2.4456   -2.7776    0.0114 N.pl3     1 <0>        -0.4984
     10 C8         -2.4247   -4.1421    0.0039 C.2       1 <0>         0.5446
     11 N3         -1.3689   -4.9458   -0.0050 N.2       1 <0>        -0.6500
     12 C9         -1.4329   -6.2490   -0.0119 C.2       1 <0>         0.5306
     13 O1         -0.4389   -6.9488   -0.0204 O.2       1 <0>        -0.4552
     14 C10        -2.8407   -6.8327   -0.0090 C.3       1 <0>        -0.1464
     15 S1         -3.8134   -5.2681    0.0117 S.3       1 <0>        -0.1592
     16 O2          3.5463    2.1154   -0.0214 O.3       1 <0>        -0.4988
     17 H1         -0.9589    1.9212    0.0260 H         1 <0>         0.1359
     18 H2          1.1546    3.1762    0.0081 H         1 <0>         0.1366
     19 H3          3.3489   -0.4936   -0.0346 H         1 <0>         0.1361
     20 H4          1.2433   -1.7618   -0.0201 H         1 <0>         0.1428
     21 H5         -2.2065   -0.2351    0.0227 H         1 <0>         0.1309
     22 H6         -3.2929   -2.3055    0.0224 H         1 <0>         0.4141
     23 H7         -3.0327   -7.4136   -0.9111 H         1 <0>         0.1494
     24 H8         -3.0249   -7.4234    0.8884 H         1 <0>         0.1491
     25 H9          3.8926    2.3126    0.8597 H         1 <0>         0.3967
@<TRIPOS>BOND
     1    1    6 ar
     2    1    2 ar
     3    1   17 1
     4    2    3 ar
     5    2   18 1
     6    3    4 ar
     7    3   16 1
     8    4    5 ar
     9    4   19 1
    10    5    6 ar
    11    5   20 1
    12    6    7 1
    13    7    8 2
    14    7   21 1
    15    8    9 1
    16    9   10 1
    17    9   22 1
    18   10   15 1
    19   10   11 2
    20   11   12 1
    21   12   13 2
    22   12   14 1
    23   14   15 1
    24   14   23 1
    25   14   24 1
    26   16   25 1
@<TRIPOS>MOLECULE
ZINC16662214
   26    27     0     0     0
SMALL
USER_CHARGES

@<TRIPOS>ATOM
      1 C1         -0.0169    1.3932    0.0097 C.ar      1 <0>        -0.0415
      2 C2          1.1683    2.0963    0.0022 C.ar      1 <0>        -0.1547
      3 C3          2.3804    1.4182   -0.0135 C.ar      1 <0>         0.1655
      4 C4          2.4041    0.0295   -0.0217 C.ar      1 <0>        -0.1578
      5 C5          1.2240   -0.6820   -0.0138 C.ar      1 <0>        -0.0379
      6 C6          0.0021   -0.0041    0.0020 C.ar      1 <0>        -0.1190
      7 C7         -1.2631   -0.7607    0.0105 C.2       1 <0>         0.2325
      8 N1         -1.2432   -2.0585    0.0034 N.2       1 <0>        -0.2923
      9 N2         -2.4456   -2.7776    0.0114 N.pl3     1 <0>        -0.4462
     10 C8         -2.4247   -4.1421    0.0039 C.cat     1 <0>         0.4992
     11 N3         -3.4554   -4.9778    0.0043 N.am      1 <0>        -0.6355
     12 C9         -3.3515   -6.2784   -0.0029 C.2       1 <0>         0.5220
     13 O1         -4.3237   -7.0084   -0.0022 O.2       1 <0>        -0.4002
     14 C10        -1.9266   -6.8187   -0.0126 C.3       1 <0>        -0.1520
     15 S1         -1.0023   -5.2249   -0.0166 S.3       1 <0>         0.1547
     16 O2          3.5463    2.1154   -0.0214 O.3       1 <0>        -0.4949
     17 H1         -0.9589    1.9212    0.0260 H         1 <0>         0.1423
     18 H2          1.1546    3.1762    0.0081 H         1 <0>         0.1458
     19 H3          3.3489   -0.4936   -0.0346 H         1 <0>         0.1438
     20 H4          1.2433   -1.7618   -0.0201 H         1 <0>         0.1416
     21 H5         -2.2065   -0.2351    0.0227 H         1 <0>         0.1494
     22 H6         -3.2929   -2.3055    0.0224 H         1 <0>         0.4186
     23 H7         -1.7162   -7.4030    0.8832 H         1 <0>         0.1889
     24 H8         -1.7251   -7.3938   -0.9163 H         1 <0>         0.1885
     25 H9          3.8926    2.3126    0.8597 H         1 <0>         0.4063
     26 H10        -4.3470   -4.5958    0.0106 H         1 <0>         0.4330
@<TRIPOS>BOND
     1    1    6 ar
     2    1    2 ar
     3    1   17 1
     4    2    3 ar
     5    2   18 1
     6    3    4 ar
     7    3   16 1
     8    4    5 ar
     9    4   19 1
    10    5    6 ar
    11    5   20 1
    12    6    7 1
    13    7    8 2
    14    7   21 1
    15    8    9 1
    16    9   10 1
    17    9   22 1
    18   10   15 1
    19   10   11 2
    20   11   12 am
    21   11   26 1
    22   12   13 2
    23   12   14 1
    24   14   15 1
    25   14   23 1
    26   14   24 1
    27   16   25 1
@<TRIPOS>MOLECULE
ZINC04592016
   24    25     0     0     0
SMALL
USER_CHARGES

@<TRIPOS>ATOM
      1 C1         -0.0169    1.3928    0.0097 C.ar      1 <0>        -0.0770
      2 C2          1.1698    2.0954    0.0021 C.ar      1 <0>        -0.0967
      3 C3          2.3781    1.4194   -0.0135 C.ar      1 <0>        -0.0706
      4 C4          2.4040    0.0350   -0.0216 C.ar      1 <0>        -0.0956
      5 C5          1.2247   -0.6798   -0.0138 C.ar      1 <0>        -0.0662
      6 C6          0.0021   -0.0041    0.0020 C.ar      1 <0>        -0.0515
      7 C7         -1.2629   -0.7619    0.0105 C.2       1 <0>         0.1354
      8 N1         -1.2420   -2.0595    0.0033 N.2       1 <0>        -0.2245
      9 N2         -2.4438   -2.7796    0.0114 N.pl3     1 <0>        -0.4985
     10 C8         -2.4218   -4.1445    0.0039 C.2       1 <0>         0.5438
     11 N3         -1.3655   -4.9473   -0.0051 N.2       1 <0>        -0.6492
     12 C9         -1.4284   -6.2506   -0.0119 C.2       1 <0>         0.5305
     13 O1         -0.4337   -6.9495   -0.0197 O.2       1 <0>        -0.4536
     14 C10        -2.8356   -6.8354   -0.0090 C.3       1 <0>        -0.1468
     15 S1         -3.8096   -5.2716    0.0116 S.3       1 <0>        -0.1564
     16 Br1         4.0002    2.3913   -0.0244 Br        1 <0>        -0.0408
     17 H1         -0.9586    1.9212    0.0260 H         1 <0>         0.1410
     18 H2          1.1566    3.1753    0.0081 H         1 <0>         0.1408
     19 H3          3.3499   -0.4861   -0.0345 H         1 <0>         0.1403
     20 H4          1.2462   -1.7596   -0.0205 H         1 <0>         0.1474
     21 H5         -2.2067   -0.2371    0.0227 H         1 <0>         0.1336
     22 H6         -3.2915   -2.3082    0.0224 H         1 <0>         0.4152
     23 H7         -3.0272   -7.4164   -0.9112 H         1 <0>         0.1499
     24 H8         -3.0194   -7.4263    0.8883 H         1 <0>         0.1497
@<TRIPOS>BOND
     1    1    6 ar
     2    1    2 ar
     3    1   17 1
     4    2    3 ar
     5    2   18 1
     6    3    4 ar
     7    3   16 1
     8    4    5 ar
     9    4   19 1
    10    5    6 ar
    11    5   20 1
    12    6    7 1
    13    7    8 2
    14    7   21 1
    15    8    9 1
    16    9   10 1
    17    9   22 1
    18   10   15 1
    19   10   11 2
    20   11   12 1
    21   12   13 2
    22   12   14 1
    23   14   15 1
    24   14   23 1
    25   14   24 1
@<TRIPOS>MOLECULE
ZINC12428439
   25    26     0     0     0
SMALL
USER_CHARGES

@<TRIPOS>ATOM
      1 C1         -0.0167    1.3808    0.0096 C.ar      1 <0>        -0.0540
      2 C2          1.1665    2.0967    0.0022 C.ar      1 <0>        -0.1483
      3 C3          2.3806    1.4320   -0.0134 C.ar      1 <0>         0.1709
      4 C4          2.4058    0.0290   -0.0211 C.ar      1 <0>        -0.0922
      5 C5          1.2032   -0.6834   -0.0130 C.ar      1 <0>        -0.0409
      6 C6          0.0021   -0.0041    0.0020 C.ar      1 <0>        -0.1095
      7 Br1        -1.6248   -0.9679    0.0129 Br        1 <0>        -0.0395
      8 C7          3.6900   -0.6877   -0.0382 C.2       1 <0>         0.1911
      9 N1          4.8110   -0.0185   -0.0461 N.2       1 <0>        -0.3201
     10 N2          5.9373   -0.6471   -0.0611 N.2       1 <0>        -0.3623
     11 C8          7.0676    0.0277   -0.0691 C.2       1 <0>         0.4209
     12 N3          8.3545   -0.4671   -0.0906 N.am      1 <0>        -0.6513
     13 C9          9.4172    0.3193   -0.0967 C.2       1 <0>         0.5304
     14 O1         10.5460   -0.1231   -0.1160 O.2       1 <0>        -0.4756
     15 C10         9.1351    1.8132   -0.0784 C.3       1 <0>        -0.1269
     16 S1          7.2946    1.7998   -0.0626 S.3       1 <0>        -0.0968
     17 O2          3.5429    2.1350   -0.0216 O.3       1 <0>        -0.4694
     18 H1         -0.9610    1.9047    0.0260 H         1 <0>         0.1409
     19 H2          1.1432    3.1765    0.0082 H         1 <0>         0.1438
     20 H3          1.2139   -1.7633   -0.0192 H         1 <0>         0.1442
     21 H4          3.7057   -1.7676   -0.0441 H         1 <0>         0.1207
     22 H5          8.4850   -1.4282   -0.1013 H         1 <0>         0.4207
     23 H6          9.5384    2.2804    0.8200 H         1 <0>         0.1545
     24 H7          9.5151    2.2979   -0.9777 H         1 <0>         0.1544
     25 H8          3.8883    2.3342    0.8593 H         1 <0>         0.3942
@<TRIPOS>BOND
     1    1    6 ar
     2    1    2 ar
     3    1   18 1
     4    2    3 ar
     5    2   19 1
     6    3    4 ar
     7    3   17 1
     8    4    5 ar
     9    4    8 1
    10    5    6 ar
    11    5   20 1
    12    6    7 1
    13    8    9 2
    14    8   21 1
    15    9   10 1
    16   10   11 2
    17   11   16 1
    18   11   12 1
    19   12   13 am
    20   12   22 1
    21   13   14 2
    22   13   15 1
    23   15   16 1
    24   15   23 1
    25   15   24 1
    26   17   25 1
@<TRIPOS>MOLECULE
ZINC12428439
   24    25     0     0     0
SMALL
USER_CHARGES
(2E)-2-[(E)-(5-bromo-2-hydroxy-phenyl)methylenehydrazono]thiazolidin-4-one
@<TRIPOS>ATOM
      1 C1         -7.2091    0.8342    0.0435 C.ar      1 <0>        -0.0313
      2 C2         -6.1148   -0.0113    0.0330 C.ar      1 <0>        -0.2494
      3 C3         -4.8330    0.5113    0.0290 C.ar      1 <0>         0.3106
      4 C4         -4.6487    1.9024    0.0356 C.ar      1 <0>        -0.2348
      5 C5         -5.7626    2.7466    0.0516 C.ar      1 <0>         0.0026
      6 C6         -7.0332    2.2080    0.0497 C.ar      1 <0>        -0.2204
      7 Br1        -8.5401    3.3503    0.0628 Br        1 <0>        -0.1065
      8 C7         -3.2913    2.4687    0.0319 C.2       1 <0>         0.2349
      9 N1         -2.2535    1.6766    0.0224 N.2       1 <0>        -0.3607
     10 N2         -1.0630    2.1734    0.0192 N.2       1 <0>        -0.3358
     11 C8         -0.0166    1.3747    0.0096 C.2       1 <0>         0.3509
     12 N3          0.0021   -0.0041    0.0020 N.am      1 <0>        -0.6838
     13 C9          1.1284   -0.6962   -0.0125 C.2       1 <0>         0.5132
     14 O1          1.1394   -1.9088   -0.0187 O.2       1 <0>        -0.5134
     15 C10         2.4088    0.1232   -0.0203 C.3       1 <0>        -0.1322
     16 S1          1.7127    1.8226   -0.0045 S.3       1 <0>        -0.0512
     17 O2         -3.7580   -0.3190    0.0191 O.3       1 <0>        -0.6565
     18 H1         -8.2068    0.4208    0.0467 H         1 <0>         0.1053
     19 H2         -6.2606   -1.0814    0.0283 H         1 <0>         0.1081
     20 H3         -5.6292    3.8183    0.0613 H         1 <0>         0.1096
     21 H4         -3.1505    3.5596    0.0371 H         1 <0>         0.0881
     22 H5         -0.9429   -0.5670    0.0080 H         1 <0>         0.4640
     23 H6          3.0057   -0.1208    0.8709 H         1 <0>         0.1444
     24 H7          2.9886   -0.1111   -0.9253 H         1 <0>         0.1444
@<TRIPOS>BOND
     1    1    6 ar
     2    1    2 ar
     3    1   18 1
     4    2    3 ar
     5    2   19 1
     6    3    4 ar
     7    3   17 1
     8    4    5 ar
     9    4    8 1
    10    5    6 ar
    11    5   20 1
    12    6    7 1
    13    8    9 2
    14    8   21 1
    15    9   10 1
    16   10   11 2
    17   11   16 1
    18   11   12 1
    19   12   13 am
    20   12   22 1
    21   13   14 2
    22   13   15 1
    23   15   16 1
    24   15   23 1
    25   15   24 1
@<TRIPOS>MOLECULE
ZINC12428439
   26    27     0     0     0
SMALL
USER_CHARGES

@<TRIPOS>ATOM
      1 C1         -0.0167    1.3806    0.0096 C.ar      1 <0>        -0.0267
      2 C2          1.1664    2.0958    0.0022 C.ar      1 <0>        -0.1453
      3 C3          2.3805    1.4300   -0.0134 C.ar      1 <0>         0.1838
      4 C4          2.4050    0.0283   -0.0211 C.ar      1 <0>        -0.1234
      5 C5          1.2035   -0.6833   -0.0130 C.ar      1 <0>        -0.0216
      6 C6          0.0021   -0.0041    0.0020 C.ar      1 <0>        -0.1122
      7 Br1        -1.6247   -0.9681    0.0123 Br        1 <0>        -0.0162
      8 C7          3.6915   -0.6902   -0.0382 C.2       1 <0>         0.2217
      9 N1          4.8064   -0.0251   -0.0461 N.2       1 <0>        -0.2625
     10 N2          6.0294   -0.7082   -0.0623 N.pl3     1 <0>        -0.4511
     11 C8          7.2014   -0.0091   -0.0707 C.cat     1 <0>         0.4995
     12 N3          8.4399   -0.4850   -0.0914 N.am      1 <0>        -0.6358
     13 C9          9.5150    0.2541   -0.0980 C.2       1 <0>         0.5218
     14 O1         10.6326   -0.2239   -0.1176 O.2       1 <0>        -0.4001
     15 C10         9.2722    1.7585   -0.0802 C.3       1 <0>        -0.1554
     16 S1          7.4298    1.7641   -0.0642 S.3       1 <0>         0.1643
     17 O2          3.5432    2.1322   -0.0216 O.3       1 <0>        -0.4758
     18 H1         -0.9609    1.9048    0.0260 H         1 <0>         0.1515
     19 H2          1.1437    3.1755    0.0082 H         1 <0>         0.1537
     20 H3          1.2144   -1.7632   -0.0192 H         1 <0>         0.1512
     21 H4          3.7069   -1.7701   -0.0441 H         1 <0>         0.1518
     22 H5          6.0433   -1.6781   -0.0676 H         1 <0>         0.4172
     23 H6          9.6834    2.2175    0.8188 H         1 <0>         0.1887
     24 H7          9.6601    2.2351   -0.9805 H         1 <0>         0.1885
     25 H8          3.8887    2.3311    0.8593 H         1 <0>         0.3995
     26 H9          8.5537   -1.4483   -0.1019 H         1 <0>         0.4329
@<TRIPOS>BOND
     1    1    6 ar
     2    1    2 ar
     3    1   18 1
     4    2    3 ar
     5    2   19 1
     6    3    4 ar
     7    3   17 1
     8    4    5 ar
     9    4    8 1
    10    5    6 ar
    11    5   20 1
    12    6    7 1
    13    8    9 2
    14    8   21 1
    15    9   10 1
    16   10   11 1
    17   10   22 1
    18   11   16 1
    19   11   12 2
    20   12   13 am
    21   12   26 1
    22   13   14 2
    23   13   15 1
    24   15   16 1
    25   15   23 1
    26   15   24 1
    27   17   25 1
@<TRIPOS>MOLECULE
ZINC06240426
   25    26     0     0     0
SMALL
USER_CHARGES

@<TRIPOS>ATOM
      1 C1         -0.0167    1.3809    0.0096 C.ar      1 <0>        -0.0694
      2 C2          1.1665    2.0960    0.0022 C.ar      1 <0>        -0.1403
      3 C3          2.3806    1.4301   -0.0130 C.ar      1 <0>         0.1611
      4 C4          2.4051    0.0285   -0.0208 C.ar      1 <0>        -0.0835
      5 C5          1.2038   -0.6832   -0.0131 C.ar      1 <0>        -0.0600
      6 C6          0.0021   -0.0041    0.0020 C.ar      1 <0>        -0.0535
      7 Cl1        -1.4913   -0.8892    0.0116 Cl        1 <0>        -0.0577
      8 C7          3.6918   -0.6898   -0.0375 C.2       1 <0>         0.1292
      9 N1          4.8065   -0.0246   -0.0450 N.2       1 <0>        -0.2013
     10 N2          6.0297   -0.7075   -0.0608 N.pl3     1 <0>        -0.5014
     11 C8          7.2016   -0.0082   -0.0687 C.2       1 <0>         0.5451
     12 N3          7.3710    1.3079   -0.0574 N.2       1 <0>        -0.6442
     13 C9          8.5321    1.9030   -0.0655 C.2       1 <0>         0.5302
     14 O1          8.6423    3.1136   -0.0542 O.2       1 <0>        -0.4544
     15 C10         9.7405    0.9747   -0.0897 C.3       1 <0>        -0.1468
     16 S1          8.8704   -0.6493   -0.0887 S.3       1 <0>        -0.1614
     17 O2          3.5432    2.1324   -0.0208 O.3       1 <0>        -0.4679
     18 H1         -0.9608    1.9050    0.0260 H         1 <0>         0.1430
     19 H2          1.1438    3.1757    0.0079 H         1 <0>         0.1461
     20 H3          1.2148   -1.7632   -0.0194 H         1 <0>         0.1452
     21 H4          3.7074   -1.7697   -0.0434 H         1 <0>         0.1326
     22 H5          6.0437   -1.6774   -0.0661 H         1 <0>         0.4126
     23 H6         10.3309    1.1133   -0.9954 H         1 <0>         0.1490
     24 H7         10.3529    1.0950    0.8039 H         1 <0>         0.1489
     25 H8          3.8885    2.3313    0.8603 H         1 <0>         0.3990
@<TRIPOS>BOND
     1    1    6 ar
     2    1    2 ar
     3    1   18 1
     4    2    3 ar
     5    2   19 1
     6    3    4 ar
     7    3   17 1
     8    4    5 ar
     9    4    8 1
    10    5    6 ar
    11    5   20 1
    12    6    7 1
    13    8    9 2
    14    8   21 1
    15    9   10 1
    16   10   11 1
    17   10   22 1
    18   11   16 1
    19   11   12 2
    20   12   13 1
    21   13   14 2
    22   13   15 1
    23   15   16 1
    24   15   23 1
    25   15   24 1
    26   17   25 1
@<TRIPOS>MOLECULE
ZINC06240426
   26    27     0     0     0
SMALL
USER_CHARGES

@<TRIPOS>ATOM
      1 C1         -0.0167    1.3809    0.0096 C.ar      1 <0>        -0.0454
      2 C2          1.1665    2.0960    0.0022 C.ar      1 <0>        -0.1389
      3 C3          2.3806    1.4301   -0.0130 C.ar      1 <0>         0.1736
      4 C4          2.4051    0.0285   -0.0208 C.ar      1 <0>        -0.1171
      5 C5          1.2038   -0.6832   -0.0131 C.ar      1 <0>        -0.0423
      6 C6          0.0021   -0.0041    0.0020 C.ar      1 <0>        -0.0544
      7 Cl1        -1.4913   -0.8892    0.0116 Cl        1 <0>        -0.0383
      8 C7          3.6918   -0.6898   -0.0375 C.2       1 <0>         0.2215
      9 N1          4.8065   -0.0246   -0.0450 N.2       1 <0>        -0.2618
     10 N2          6.0297   -0.7075   -0.0608 N.pl3     1 <0>        -0.4513
     11 C8          7.2016   -0.0082   -0.0687 C.cat     1 <0>         0.4995
     12 N3          8.4401   -0.4840   -0.0890 N.am      1 <0>        -0.6358
     13 C9          9.5152    0.2553   -0.0955 C.2       1 <0>         0.5218
     14 O1         10.6328   -0.2226   -0.1143 O.2       1 <0>        -0.4001
     15 C10         9.2721    1.7597   -0.0785 C.3       1 <0>        -0.1555
     16 S1          7.4298    1.7650   -0.0620 S.3       1 <0>         0.1647
     17 O2          3.5432    2.1324   -0.0208 O.3       1 <0>        -0.4756
     18 H1         -0.9608    1.9050    0.0260 H         1 <0>         0.1523
     19 H2          1.1438    3.1757    0.0079 H         1 <0>         0.1539
     20 H3          1.2148   -1.7632   -0.0194 H         1 <0>         0.1519
     21 H4          3.7074   -1.7697   -0.0434 H         1 <0>         0.1518
     22 H5          6.0437   -1.6774   -0.0661 H         1 <0>         0.4172
     23 H6          9.6828    2.2192    0.8206 H         1 <0>         0.1887
     24 H7          9.6604    2.2359   -0.9788 H         1 <0>         0.1885
     25 H8          3.8885    2.3313    0.8603 H         1 <0>         0.3985
     26 H9          8.5541   -1.4472   -0.0993 H         1 <0>         0.4328
@<TRIPOS>BOND
     1    1    6 ar
     2    1    2 ar
     3    1   18 1
     4    2    3 ar
     5    2   19 1
     6    3    4 ar
     7    3   17 1
     8    4    5 ar
     9    4    8 1
    10    5    6 ar
    11    5   20 1
    12    6    7 1
    13    8    9 2
    14    8   21 1
    15    9   10 1
    16   10   11 1
    17   10   22 1
    18   11   16 1
    19   11   12 2
    20   12   13 am
    21   12   26 1
    22   13   14 2
    23   13   15 1
    24   15   16 1
    25   15   23 1
    26   15   24 1
    27   17   25 1
@<TRIPOS>MOLECULE
ZINC05648910
   25    26     0     0     0
SMALL
USER_CHARGES

@<TRIPOS>ATOM
      1 C1         -0.0169    1.3924    0.0097 C.ar      1 <0>        -0.0566
      2 C2          1.1702    2.0968    0.0021 C.ar      1 <0>        -0.0420
      3 C3          2.3809    1.4241   -0.0130 C.ar      1 <0>        -0.0661
      4 C4          2.4122    0.0411   -0.0208 C.ar      1 <0>        -0.0630
      5 C5          1.2292   -0.6807   -0.0133 C.ar      1 <0>         0.1693
      6 C6          0.0021   -0.0041    0.0020 C.ar      1 <0>        -0.0684
      7 C7         -1.2617   -0.7621    0.0105 C.2       1 <0>         0.1269
      8 N1         -1.2402   -2.0600    0.0033 N.2       1 <0>        -0.1964
      9 N2         -2.4416   -2.7807    0.0114 N.pl3     1 <0>        -0.5008
     10 C8         -2.4190   -4.1451    0.0038 C.2       1 <0>         0.5442
     11 N3         -1.3621   -4.9475   -0.0051 N.2       1 <0>        -0.6430
     12 C9         -1.4244   -6.2507   -0.0113 C.2       1 <0>         0.5300
     13 O1         -0.4294   -6.9492   -0.0190 O.2       1 <0>        -0.4525
     14 C10        -2.8314   -6.8362   -0.0076 C.3       1 <0>        -0.1471
     15 S1         -3.8061   -5.2729    0.0116 S.3       1 <0>        -0.1591
     16 O2          1.2590   -2.0389   -0.0214 O.3       1 <0>        -0.4551
     17 Cl1         3.9355   -0.7913   -0.0403 Cl        1 <0>        -0.0320
     18 Cl2         1.1456    3.8326    0.0111 Cl        1 <0>        -0.0442
     19 H1         -0.9589    1.9204    0.0260 H         1 <0>         0.1524
     20 H2          3.3054    1.9823   -0.0192 H         1 <0>         0.1529
     21 H3         -2.2059   -0.2378    0.0227 H         1 <0>         0.1370
     22 H4         -3.2896   -2.3097    0.0223 H         1 <0>         0.4137
     23 H5         -3.0229   -7.4178   -0.9093 H         1 <0>         0.1493
     24 H6         -3.0145   -7.4267    0.8902 H         1 <0>         0.1492
     25 H7          1.2763   -2.4372    0.8597 H         1 <0>         0.4014
@<TRIPOS>BOND
     1    1    6 ar
     2    1    2 ar
     3    1   19 1
     4    2    3 ar
     5    2   18 1
     6    3    4 ar
     7    3   20 1
     8    4    5 ar
     9    4   17 1
    10    5    6 ar
    11    5   16 1
    12    6    7 1
    13    7    8 2
    14    7   21 1
    15    8    9 1
    16    9   10 1
    17    9   22 1
    18   10   15 1
    19   10   11 2
    20   11   12 1
    21   12   13 2
    22   12   14 1
    23   14   15 1
    24   14   23 1
    25   14   24 1
    26   16   25 1
@<TRIPOS>MOLECULE
ZINC05648910
   24    25     0     0     0
SMALL
USER_CHARGES

@<TRIPOS>ATOM
      1 C1         -0.0169    1.3938    0.0097 C.ar      1 <0>        -0.0122
      2 C2          1.1701    2.0977    0.0022 C.ar      1 <0>        -0.1615
      3 C3          2.3809    1.4249   -0.0130 C.ar      1 <0>        -0.0375
      4 C4          2.4128    0.0415   -0.0212 C.ar      1 <0>        -0.1546
      5 C5          1.2307   -0.6808   -0.0138 C.ar      1 <0>         0.3108
      6 C6          0.0021   -0.0041    0.0020 C.ar      1 <0>        -0.2228
      7 C7         -1.2591   -0.7609    0.0100 C.2       1 <0>         0.2380
      8 N1         -1.2371   -2.0662    0.0028 N.2       1 <0>        -0.3586
      9 N2         -2.3432   -2.7300    0.0098 N.2       1 <0>        -0.3329
     10 C8         -2.3210   -4.0461    0.0025 C.2       1 <0>         0.3488
     11 N3         -1.2222   -4.8792   -0.0068 N.am      1 <0>        -0.6683
     12 C9         -1.3306   -6.1968   -0.0131 C.2       1 <0>         0.5160
     13 O1         -0.3596   -6.9231   -0.0209 O.2       1 <0>        -0.5050
     14 C10        -2.7490   -6.7442   -0.0095 C.3       1 <0>        -0.1222
     15 S1         -3.7074   -5.1729    0.0103 S.3       1 <0>        -0.0576
     16 O2          1.2613   -2.0391   -0.0223 O.3       1 <0>        -0.6267
     17 Cl1         3.9365   -0.7902   -0.0414 Cl        1 <0>        -0.0936
     18 Cl2         1.1459    3.8335    0.0111 Cl        1 <0>        -0.1098
     19 H1         -0.9588    1.9219    0.0260 H         1 <0>         0.1164
     20 H2          3.3054    1.9832   -0.0189 H         1 <0>         0.1166
     21 H3         -2.2033   -0.2367    0.0218 H         1 <0>         0.0916
     22 H4         -0.3365   -4.4837   -0.0092 H         1 <0>         0.4331
     23 H5         -2.9513   -7.3232   -0.9105 H         1 <0>         0.1461
     24 H6         -2.9431   -7.3325    0.8874 H         1 <0>         0.1458
@<TRIPOS>BOND
     1    1    6 ar
     2    1    2 ar
     3    1   19 1
     4    2    3 ar
     5    2   18 1
     6    3    4 ar
     7    3   20 1
     8    4    5 ar
     9    4   17 1
    10    5    6 ar
    11    5   16 1
    12    6    7 1
    13    7    8 2
    14    7   21 1
    15    8    9 1
    16    9   10 2
    17   10   15 1
    18   10   11 1
    19   11   12 am
    20   11   22 1
    21   12   13 2
    22   12   14 1
    23   14   15 1
    24   14   23 1
    25   14   24 1
@<TRIPOS>MOLECULE
ZINC05648910
   24    25     0     0     0
SMALL
USER_CHARGES

@<TRIPOS>ATOM
      1 C1         -0.0169    1.3924    0.0097 C.ar      1 <0>        -0.0115
      2 C2          1.1702    2.0968    0.0021 C.ar      1 <0>        -0.1647
      3 C3          2.3809    1.4241   -0.0130 C.ar      1 <0>        -0.0378
      4 C4          2.4122    0.0411   -0.0208 C.ar      1 <0>        -0.1515
      5 C5          1.2292   -0.6807   -0.0133 C.ar      1 <0>         0.3011
      6 C6          0.0021   -0.0041    0.0020 C.ar      1 <0>        -0.2189
      7 C7         -1.2617   -0.7621    0.0105 C.2       1 <0>         0.1578
      8 N1         -1.2402   -2.0600    0.0033 N.2       1 <0>        -0.2007
      9 N2         -2.4416   -2.7807    0.0114 N.pl3     1 <0>        -0.5017
     10 C8         -2.4190   -4.1451    0.0038 C.2       1 <0>         0.5578
     11 N3         -1.3621   -4.9475   -0.0051 N.2       1 <0>        -0.6323
     12 C9         -1.4244   -6.2507   -0.0113 C.2       1 <0>         0.5288
     13 O1         -0.4294   -6.9492   -0.0190 O.2       1 <0>        -0.4720
     14 C10        -2.8314   -6.8362   -0.0076 C.3       1 <0>        -0.1394
     15 S1         -3.8061   -5.2729    0.0116 S.3       1 <0>        -0.2147
     16 O2          1.2590   -2.0389   -0.0214 O.3       1 <0>        -0.6070
     17 Cl1         3.9355   -0.7913   -0.0403 Cl        1 <0>        -0.0913
     18 Cl2         1.1456    3.8326    0.0111 Cl        1 <0>        -0.1109
     19 H1         -0.9589    1.9204    0.0260 H         1 <0>         0.1144
     20 H2          3.3054    1.9823   -0.0192 H         1 <0>         0.1163
     21 H3         -2.2059   -0.2378    0.0227 H         1 <0>         0.1051
     22 H4         -3.2896   -2.3097    0.0223 H         1 <0>         0.3927
     23 H5         -3.0229   -7.4178   -0.9093 H         1 <0>         0.1404
     24 H6         -3.0145   -7.4267    0.8902 H         1 <0>         0.1401
@<TRIPOS>BOND
     1    1    6 ar
     2    1    2 ar
     3    1   19 1
     4    2    3 ar
     5    2   18 1
     6    3    4 ar
     7    3   20 1
     8    4    5 ar
     9    4   17 1
    10    5    6 ar
    11    5   16 1
    12    6    7 1
    13    7    8 2
    14    7   21 1
    15    8    9 1
    16    9   10 1
    17    9   22 1
    18   10   15 1
    19   10   11 2
    20   11   12 1
    21   12   13 2
    22   12   14 1
    23   14   15 1
    24   14   23 1
    25   14   24 1
@<TRIPOS>MOLECULE
ZINC05648910
   24    25     0     0     0
SMALL
USER_CHARGES

@<TRIPOS>ATOM
      1 C1         -0.0169    1.3938    0.0097 C.ar      1 <0>        -0.0116
      2 C2          1.1701    2.0977    0.0022 C.ar      1 <0>        -0.1634
      3 C3          2.3809    1.4249   -0.0130 C.ar      1 <0>        -0.0380
      4 C4          2.4128    0.0415   -0.0212 C.ar      1 <0>        -0.1531
      5 C5          1.2307   -0.6808   -0.0138 C.ar      1 <0>         0.3076
      6 C6          0.0021   -0.0041    0.0020 C.ar      1 <0>        -0.2237
      7 C7         -1.2591   -0.7609    0.0100 C.2       1 <0>         0.2356
      8 N1         -1.2371   -2.0662    0.0028 N.2       1 <0>        -0.3332
      9 N2         -2.3432   -2.7300    0.0098 N.2       1 <0>        -0.3418
     10 C8         -2.3210   -4.0461    0.0025 C.2       1 <0>         0.3636
     11 N3         -3.3912   -4.9158    0.0024 N.am      1 <0>        -0.6466
     12 C9         -3.2385   -6.2289   -0.0059 C.2       1 <0>         0.5318
     13 O1         -4.1845   -6.9876   -0.0063 O.2       1 <0>        -0.5067
     14 C10        -1.8025   -6.7282   -0.0153 C.3       1 <0>        -0.1436
     15 S1         -0.8975   -5.1255   -0.0175 S.3       1 <0>        -0.0803
     16 O2          1.2613   -2.0391   -0.0223 O.3       1 <0>        -0.6097
     17 Cl1         3.9365   -0.7902   -0.0414 Cl        1 <0>        -0.0939
     18 Cl2         1.1459    3.8335    0.0111 Cl        1 <0>        -0.1113
     19 H1         -0.9588    1.9219    0.0260 H         1 <0>         0.1150
     20 H2          3.3054    1.9832   -0.0189 H         1 <0>         0.1158
     21 H3         -2.2033   -0.2367    0.0218 H         1 <0>         0.0907
     22 H4         -4.2897   -4.5503    0.0090 H         1 <0>         0.4117
     23 H5         -1.5806   -7.3100    0.8793 H         1 <0>         0.1427
     24 H6         -1.5889   -7.2997   -0.9186 H         1 <0>         0.1425
@<TRIPOS>BOND
     1    1    6 ar
     2    1    2 ar
     3    1   19 1
     4    2    3 ar
     5    2   18 1
     6    3    4 ar
     7    3   20 1
     8    4    5 ar
     9    4   17 1
    10    5    6 ar
    11    5   16 1
    12    6    7 1
    13    7    8 2
    14    7   21 1
    15    8    9 1
    16    9   10 2
    17   10   15 1
    18   10   11 1
    19   11   12 am
    20   11   22 1
    21   12   13 2
    22   12   14 1
    23   14   15 1
    24   14   23 1
    25   14   24 1
@<TRIPOS>MOLECULE
ZINC12403084
   27    28     0     0     0
SMALL
USER_CHARGES

@<TRIPOS>ATOM
      1 C1         -0.0184    1.5028    0.0103 C.3       1 <0>        -0.1223
      2 C2          0.0021   -0.0041    0.0020 C.ar      1 <0>        -0.0593
      3 C3          0.0057   -0.6860   -1.2020 C.ar      1 <0>        -0.1284
      4 C4          0.0248   -2.0651   -1.2172 C.ar      1 <0>        -0.0774
      5 C5          0.0406   -2.7733   -0.0132 C.ar      1 <0>        -0.0767
      6 C6          0.0368   -2.0782    1.1985 C.ar      1 <0>        -0.0657
      7 C7          0.0229   -0.6990    1.1984 C.ar      1 <0>        -0.1278
      8 C8          0.0606   -4.2479   -0.0213 C.2       1 <0>         0.1425
      9 N1          0.0751   -4.9029    1.0989 N.2       1 <0>        -0.2330
     10 N2          0.0941   -6.3037    1.0912 N.pl3     1 <0>        -0.4988
     11 C9          0.1094   -6.9927    2.2698 C.2       1 <0>         0.5451
     12 N3          0.1032   -6.5059    3.5040 N.2       1 <0>        -0.6500
     13 C10         0.1186   -7.2354    4.5857 C.2       1 <0>         0.5306
     14 O1          0.1117   -6.7475    5.6992 O.2       1 <0>        -0.4558
     15 C11         0.1454   -8.7417    4.3559 C.3       1 <0>        -0.1463
     16 S1          0.1347   -8.7636    2.5137 S.3       1 <0>        -0.1604
     17 H1          1.0042    1.8801    0.0026 H         1 <0>         0.0757
     18 H2         -0.5455    1.8639   -0.8728 H         1 <0>         0.0700
     19 H3         -0.5286    1.8543    0.9071 H         1 <0>         0.0702
     20 H4         -0.0068   -0.1371   -2.1320 H         1 <0>         0.1295
     21 H5          0.0273   -2.5961   -2.1576 H         1 <0>         0.1305
     22 H6          0.0484   -2.6194    2.1330 H         1 <0>         0.1378
     23 H7          0.0240   -0.1602    2.1344 H         1 <0>         0.1289
     24 H8          0.0631   -4.7828   -0.9596 H         1 <0>         0.1292
     25 H9          0.0964   -6.7841    0.2485 H         1 <0>         0.4136
     26 H10         1.0543   -9.1897    4.7577 H         1 <0>         0.1493
     27 H11        -0.7450   -9.2222    4.7614 H         1 <0>         0.1490
@<TRIPOS>BOND
     1    1    2 1
     2    1   17 1
     3    1   18 1
     4    1   19 1
     5    2    7 ar
     6    2    3 ar
     7    3    4 ar
     8    3   20 1
     9    4    5 ar
    10    4   21 1
    11    5    6 ar
    12    5    8 1
    13    6    7 ar
    14    6   22 1
    15    7   23 1
    16    8    9 2
    17    8   24 1
    18    9   10 1
    19   10   11 1
    20   10   25 1
    21   11   16 1
    22   11   12 2
    23   12   13 1
    24   13   14 2
    25   13   15 1
    26   15   16 1
    27   15   26 1
    28   15   27 1
@<TRIPOS>MOLECULE
ZINC12403084
   28    29     0     0     0
SMALL
USER_CHARGES

@<TRIPOS>ATOM
      1 C1         -0.0184    1.5028    0.0103 C.3       1 <0>        -0.1321
      2 C2          0.0021   -0.0041    0.0020 C.ar      1 <0>        -0.0278
      3 C3          0.0057   -0.6860   -1.2020 C.ar      1 <0>        -0.1292
      4 C4          0.0248   -2.0651   -1.2172 C.ar      1 <0>        -0.0551
      5 C5          0.0406   -2.7733   -0.0132 C.ar      1 <0>        -0.1155
      6 C6          0.0368   -2.0782    1.1985 C.ar      1 <0>        -0.0509
      7 C7          0.0229   -0.6990    1.1984 C.ar      1 <0>        -0.1324
      8 C8          0.0606   -4.2479   -0.0213 C.2       1 <0>         0.2327
      9 N1          0.0751   -4.9029    1.0989 N.2       1 <0>        -0.2934
     10 N2          0.0941   -6.3037    1.0912 N.pl3     1 <0>        -0.4460
     11 C9          0.1094   -6.9927    2.2698 C.cat     1 <0>         0.4989
     12 N3          0.1336   -8.3068    2.4508 N.am      1 <0>        -0.6357
     13 C10         0.1474   -8.8916    3.6172 C.2       1 <0>         0.5223
     14 O1          0.1700  -10.1010    3.7380 O.2       1 <0>        -0.4007
     15 C11         0.1339   -7.9526    4.8174 C.3       1 <0>        -0.1522
     16 S1          0.1095   -6.3366    3.9329 S.3       1 <0>         0.1541
     17 H1          1.0042    1.8801    0.0026 H         1 <0>         0.0842
     18 H2         -0.5455    1.8639   -0.8728 H         1 <0>         0.0769
     19 H3         -0.5286    1.8543    0.9071 H         1 <0>         0.0765
     20 H4         -0.0068   -0.1371   -2.1320 H         1 <0>         0.1388
     21 H5          0.0273   -2.5961   -2.1576 H         1 <0>         0.1371
     22 H6          0.0484   -2.6194    2.1330 H         1 <0>         0.1369
     23 H7          0.0240   -0.1602    2.1344 H         1 <0>         0.1368
     24 H8          0.0631   -4.7828   -0.9596 H         1 <0>         0.1479
     25 H9          0.0964   -6.7841    0.2485 H         1 <0>         0.4181
     26 H10        -0.7618   -8.0928    5.4225 H         1 <0>         0.1887
     27 H11         1.0374   -8.0604    5.4175 H         1 <0>         0.1883
     28 H12         0.1413   -8.8715    1.6621 H         1 <0>         0.4329
@<TRIPOS>BOND
     1    1    2 1
     2    1   17 1
     3    1   18 1
     4    1   19 1
     5    2    7 ar
     6    2    3 ar
     7    3    4 ar
     8    3   20 1
     9    4    5 ar
    10    4   21 1
    11    5    6 ar
    12    5    8 1
    13    6    7 ar
    14    6   22 1
    15    7   23 1
    16    8    9 2
    17    8   24 1
    18    9   10 1
    19   10   11 1
    20   10   25 1
    21   11   16 1
    22   11   12 2
    23   12   13 am
    24   12   28 1
    25   13   14 2
    26   13   15 1
    27   15   16 1
    28   15   26 1
    29   15   27 1
@<TRIPOS>MOLECULE
ZINC13739198
   28    29     0     0     0
SMALL
USER_CHARGES

@<TRIPOS>ATOM
      1 C1         -0.0173    1.4248    0.0099 C.3       1 <0>         0.0242
      2 O1          0.0021   -0.0041    0.0020 O.3       1 <0>        -0.3143
      3 C2          0.6056   -0.6069   -1.0554 C.ar      1 <0>         0.1511
      4 C3          1.1724    0.1653   -2.0614 C.ar      1 <0>        -0.2156
      5 C4          1.7857   -0.4410   -3.1359 C.ar      1 <0>        -0.0391
      6 C5          1.8373   -1.8368   -3.2124 C.ar      1 <0>        -0.1142
      7 C6          1.2654   -2.6097   -2.1964 C.ar      1 <0>        -0.0310
      8 C7          0.6588   -1.9934   -1.1239 C.ar      1 <0>        -0.1612
      9 C8          2.4905   -2.4897   -4.3577 C.2       1 <0>         0.2133
     10 N1          2.5374   -3.7924   -4.4269 N.2       1 <0>        -0.3823
     11 N2          3.1101   -4.3648   -5.4311 N.2       1 <0>        -0.3452
     12 C9          3.1574   -5.6786   -5.5008 C.2       1 <0>         0.3840
     13 N3          2.6496   -6.5975   -4.6069 N.am      1 <0>        -0.6792
     14 C10         2.7621   -7.9020   -4.7893 C.2       1 <0>         0.5204
     15 O2          2.3136   -8.7043   -3.9983 O.2       1 <0>        -0.4837
     16 C11         3.4894   -8.3333   -6.0529 C.3       1 <0>        -0.1292
     17 S1          3.8877   -6.6899   -6.7797 S.3       1 <0>        -0.0135
     18 H1          1.0053    1.8021    0.0021 H         1 <0>         0.0587
     19 H2         -0.5445    1.7859   -0.8732 H         1 <0>         0.0587
     20 H3         -0.5275    1.7763    0.9067 H         1 <0>         0.1031
     21 H4          1.1320    1.2429   -2.0014 H         1 <0>         0.1351
     22 H5          2.2254    0.1602   -3.9179 H         1 <0>         0.1347
     23 H6          1.3026   -3.6877   -2.2508 H         1 <0>         0.1378
     24 H7          0.2205   -2.5891   -0.3369 H         1 <0>         0.1359
     25 H8          2.9311   -1.8911   -5.1413 H         1 <0>         0.1176
     26 H9          2.1931   -6.2747   -3.8143 H         1 <0>         0.4206
     27 H10         4.3934   -8.8944   -5.8163 H         1 <0>         0.1566
     28 H11         2.8338   -8.9038   -6.7108 H         1 <0>         0.1564
@<TRIPOS>BOND
     1    1    2 1
     2    1   18 1
     3    1   19 1
     4    1   20 1
     5    2    3 1
     6    3    8 ar
     7    3    4 ar
     8    4    5 ar
     9    4   21 1
    10    5    6 ar
    11    5   22 1
    12    6    7 ar
    13    6    9 1
    14    7    8 ar
    15    7   23 1
    16    8   24 1
    17    9   10 2
    18    9   25 1
    19   10   11 1
    20   11   12 2
    21   12   17 1
    22   12   13 1
    23   13   14 am
    24   13   26 1
    25   14   15 2
    26   14   16 1
    27   16   17 1
    28   16   27 1
    29   16   28 1
@<TRIPOS>MOLECULE
ZINC43196377
   58    60     0     0     0
SMALL
USER_CHARGES

@<TRIPOS>ATOM
      1 C1         -0.1020    1.4354   -0.8175 C.3       1 <0>         0.0203
      2 O1         -0.0873    0.0071   -0.8604 O.3       1 <0>        -0.2971
      3 C2         -1.2670   -0.6288   -0.6382 C.ar      1 <0>         0.1631
      4 C3         -2.4033    0.1098   -0.3922 C.ar      1 <0>        -0.1839
      5 C4         -3.6177   -0.5483   -0.1635 C.ar      1 <0>         0.2009
      6 C5         -3.6582   -1.9645   -0.1890 C.ar      1 <0>        -0.1825
      7 C6         -2.4890   -2.6918   -0.4413 C.ar      1 <0>        -0.1484
      8 C7         -1.3159   -2.0294   -0.6675 C.ar      1 <0>         0.1139
      9 O2         -0.1818   -2.7367   -0.9180 O.3       1 <0>        -0.2985
     10 C8         -0.2959   -4.1611   -0.9346 C.3       1 <0>         0.0535
     11 C9          1.0722   -4.7789   -1.2302 C.3       1 <0>        -0.1180
     12 C10         0.9501   -6.3039   -1.2480 C.3       1 <0>        -0.1175
     13 C11         2.3182   -6.9217   -1.5436 C.3       1 <0>        -0.1185
     14 C12         2.1960   -8.4467   -1.5614 C.3       1 <0>        -0.1066
     15 C13         3.5642   -9.0645   -1.8570 C.3       1 <0>        -0.1271
     16 C14         3.4438  -10.5666   -1.8745 C.2       1 <0>         0.5211
     17 O3          2.3696  -11.0913   -1.6707 O.2       1 <0>        -0.5193
     18 N1          4.5300  -11.3269   -2.1168 N.am      1 <0>        -0.6000
     19 O4          4.4170  -12.7383   -2.1333 O.3       1 <0>        -0.3205
     20 C15        -4.9002   -2.6012    0.0453 C.ar      1 <0>         0.4647
     21 N2         -5.9619   -1.8401    0.2764 N.ar      1 <0>        -0.5803
     22 C16        -5.8762   -0.5194    0.2905 C.ar      1 <0>         0.3431
     23 N3         -4.7531    0.1249    0.0803 N.ar      1 <0>        -0.5432
     24 N4         -5.0043   -3.9778    0.0331 N.pl3     1 <0>        -0.6411
     25 C17        -6.2584   -4.5850    0.1466 C.ar      1 <0>         0.1525
     26 C18        -6.3923   -5.7779    0.8480 C.ar      1 <0>        -0.1358
     27 C19        -7.6298   -6.3821    0.9625 C.ar      1 <0>        -0.0973
     28 C20        -8.7411   -5.8052    0.3813 C.ar      1 <0>        -0.1093
     29 C21        -8.6173   -4.6077   -0.3245 C.ar      1 <0>         0.0287
     30 C22        -7.3697   -3.9948   -0.4354 C.ar      1 <0>        -0.0845
     31 C23        -9.7686   -4.0074   -0.9284 C.1       1 <0>        -0.1517
     32 C24       -10.7126   -3.5153   -1.4234 C.1       1 <0>        -0.1691
     33 H1          0.9012    1.8151   -1.0110 H         1 <0>         0.1069
     34 H2         -0.7867    1.8147   -1.5762 H         1 <0>         0.0619
     35 H3         -0.4319    1.7659    0.1674 H         1 <0>         0.0619
     36 H4         -2.3577    1.1887   -0.3754 H         1 <0>         0.1556
     37 H5         -2.5152   -3.7713   -0.4617 H         1 <0>         0.1384
     38 H6         -0.6494   -4.5086    0.0362 H         1 <0>         0.0636
     39 H7         -1.0041   -4.4598   -1.7074 H         1 <0>         0.0639
     40 H8          1.4257   -4.4314   -2.2009 H         1 <0>         0.0764
     41 H9          1.7805   -4.4801   -0.4574 H         1 <0>         0.0764
     42 H10         0.5966   -6.6514   -0.2773 H         1 <0>         0.0677
     43 H11         0.2419   -6.6027   -2.0208 H         1 <0>         0.0678
     44 H12         2.6717   -6.5742   -2.5144 H         1 <0>         0.0670
     45 H13         3.0264   -6.6230   -0.7708 H         1 <0>         0.0670
     46 H14         1.8425   -8.7943   -0.5907 H         1 <0>         0.0735
     47 H15         1.4878   -8.7455   -2.3342 H         1 <0>         0.0736
     48 H16         3.9177   -8.7170   -2.8278 H         1 <0>         0.0998
     49 H17         4.2724   -8.7658   -1.0842 H         1 <0>         0.0998
     50 H18         5.3892  -10.9073   -2.2798 H         1 <0>         0.4083
     51 H19         5.2483  -13.1974   -2.3152 H         1 <0>         0.3880
     52 H20        -6.7712    0.0535    0.4833 H         1 <0>         0.1970
     53 H21        -4.2073   -4.5237   -0.0542 H         1 <0>         0.4199
     54 H22        -5.5263   -6.2340    1.3046 H         1 <0>         0.1283
     55 H23        -7.7278   -7.3089    1.5083 H         1 <0>         0.1335
     56 H24        -9.7064   -6.2809    0.4724 H         1 <0>         0.1285
     57 H25        -7.2686   -3.0659   -0.9770 H         1 <0>         0.1383
     58 H26       -11.5568   -3.0752   -1.8662 H         1 <0>         0.2250
@<TRIPOS>BOND
     1    1    2 1
     2    1   33 1
     3    1   34 1
     4    1   35 1
     5    2    3 1
     6    3    8 ar
     7    3    4 ar
     8    4    5 ar
     9    4   36 1
    10    5   23 ar
    11    5    6 ar
    12    6    7 ar
    13    6   20 ar
    14    7    8 ar
    15    7   37 1
    16    8    9 1
    17    9   10 1
    18   10   11 1
    19   10   38 1
    20   10   39 1
    21   11   12 1
    22   11   40 1
    23   11   41 1
    24   12   13 1
    25   12   42 1
    26   12   43 1
    27   13   14 1
    28   13   44 1
    29   13   45 1
    30   14   15 1
    31   14   46 1
    32   14   47 1
    33   15   16 1
    34   15   48 1
    35   15   49 1
    36   16   17 2
    37   16   18 am
    38   18   19 1
    39   18   50 1
    40   19   51 1
    41   20   21 ar
    42   20   24 1
    43   21   22 ar
    44   22   23 ar
    45   22   52 1
    46   24   25 1
    47   24   53 1
    48   25   30 ar
    49   25   26 ar
    50   26   27 ar
    51   26   54 1
    52   27   28 ar
    53   27   55 1
    54   28   29 ar
    55   28   56 1
    56   29   30 ar
    57   29   31 1
    58   30   57 1
    59   31   32 3
    60   32   58 1
@<TRIPOS>MOLECULE
ZINC18007371
   26    27     0     0     0
SMALL
USER_CHARGES

@<TRIPOS>ATOM
      1 C1         -0.0169    1.3927    0.0097 C.ar      1 <0>        -0.0844
      2 C2          1.1701    2.0952    0.0021 C.ar      1 <0>        -0.0584
      3 C3          2.3776    1.4197   -0.0135 C.ar      1 <0>        -0.0324
      4 C4          2.4040    0.0363   -0.0212 C.ar      1 <0>        -0.0567
      5 C5          1.2248   -0.6793   -0.0133 C.ar      1 <0>        -0.0755
      6 C6          0.0021   -0.0041    0.0020 C.ar      1 <0>        -0.0098
      7 C7         -1.2629   -0.7622    0.0100 C.2       1 <0>         0.1216
      8 N1         -1.2417   -2.0598    0.0029 N.2       1 <0>        -0.2097
      9 N2         -2.4434   -2.7800    0.0105 N.pl3     1 <0>        -0.4978
     10 C8         -2.4212   -4.1450    0.0029 C.2       1 <0>         0.5408
     11 N3         -1.3647   -4.9476   -0.0056 N.2       1 <0>        -0.6479
     12 C9         -1.4274   -6.2509   -0.0125 C.2       1 <0>         0.5302
     13 O1         -0.4326   -6.9497   -0.0199 O.2       1 <0>        -0.4495
     14 C10        -2.8345   -6.8360   -0.0102 C.3       1 <0>        -0.1477
     15 S1         -3.8087   -5.2724    0.0101 S.3       1 <0>        -0.1485
     16 N4          3.6473    2.1807   -0.0225 N.pl3     1 <0>         0.0284
     17 O2          3.6276    3.3895   -0.0162 O.2       1 <0>        -0.1521
     18 O3          4.7040    1.5934   -0.0361 O.3       1 <0>        -0.1511
     19 H1         -0.9586    1.9212    0.0260 H         1 <0>         0.1563
     20 H2          1.1570    3.1751    0.0081 H         1 <0>         0.1611
     21 H3          3.3501   -0.4845   -0.0337 H         1 <0>         0.1605
     22 H4          1.2469   -1.7591   -0.0197 H         1 <0>         0.1613
     23 H5         -2.2068   -0.2376    0.0219 H         1 <0>         0.1408
     24 H6         -3.2912   -2.3088    0.0211 H         1 <0>         0.4181
     25 H7         -3.0256   -7.4171   -0.9124 H         1 <0>         0.1513
     26 H8         -3.0185   -7.4269    0.8871 H         1 <0>         0.1510
@<TRIPOS>BOND
     1    1    6 ar
     2    1    2 ar
     3    1   19 1
     4    2    3 ar
     5    2   20 1
     6    3    4 ar
     7    3   16 1
     8    4    5 ar
     9    4   21 1
    10    5    6 ar
    11    5   22 1
    12    6    7 1
    13    7    8 2
    14    7   23 1
    15    8    9 1
    16    9   10 1
    17    9   24 1
    18   10   15 1
    19   10   11 2
    20   11   12 1
    21   12   13 2
    22   12   14 1
    23   14   15 1
    24   14   25 1
    25   14   26 1
    26   16   17 2
    27   16   18 1
@<TRIPOS>MOLECULE
ZINC18007371
   27    28     0     0     0
SMALL
USER_CHARGES

@<TRIPOS>ATOM
      1 C1         -0.0169    1.3927    0.0097 C.ar      1 <0>        -0.0616
      2 C2          1.1701    2.0952    0.0021 C.ar      1 <0>        -0.0599
      3 C3          2.3776    1.4197   -0.0135 C.ar      1 <0>        -0.0069
      4 C4          2.4040    0.0363   -0.0212 C.ar      1 <0>        -0.0620
      5 C5          1.2248   -0.6793   -0.0133 C.ar      1 <0>        -0.0608
      6 C6          0.0021   -0.0041    0.0020 C.ar      1 <0>        -0.0527
      7 C7         -1.2629   -0.7622    0.0100 C.2       1 <0>         0.2186
      8 N1         -1.2417   -2.0598    0.0029 N.2       1 <0>        -0.2701
      9 N2         -2.4434   -2.7800    0.0105 N.pl3     1 <0>        -0.4526
     10 C8         -2.4212   -4.1450    0.0029 C.cat     1 <0>         0.5028
     11 N3         -3.4509   -4.9816    0.0029 N.am      1 <0>        -0.6330
     12 C9         -3.3459   -6.2822   -0.0043 C.2       1 <0>         0.5210
     13 O1         -4.3173   -7.0131   -0.0040 O.2       1 <0>        -0.3947
     14 C10        -1.9204   -6.8211   -0.0135 C.3       1 <0>        -0.1516
     15 S1         -0.9977   -5.2265   -0.0171 S.3       1 <0>         0.1624
     16 N4          3.6473    2.1807   -0.0225 N.pl3     1 <0>         0.0191
     17 O2          3.6276    3.3895   -0.0162 O.2       1 <0>        -0.1365
     18 O3          4.7040    1.5934   -0.0361 O.3       1 <0>        -0.1377
     19 H1         -0.9586    1.9212    0.0260 H         1 <0>         0.1621
     20 H2          1.1570    3.1751    0.0081 H         1 <0>         0.1693
     21 H3          3.3501   -0.4845   -0.0337 H         1 <0>         0.1673
     22 H4          1.2469   -1.7591   -0.0197 H         1 <0>         0.1598
     23 H5         -2.2068   -0.2376    0.0219 H         1 <0>         0.1592
     24 H6         -3.2912   -2.3088    0.0211 H         1 <0>         0.4225
     25 H7         -1.7098   -7.4052    0.8824 H         1 <0>         0.1910
     26 H8         -1.7179   -7.3960   -0.9171 H         1 <0>         0.1907
     27 H9         -4.3429   -4.6004    0.0088 H         1 <0>         0.4343
@<TRIPOS>BOND
     1    1    6 ar
     2    1    2 ar
     3    1   19 1
     4    2    3 ar
     5    2   20 1
     6    3    4 ar
     7    3   16 1
     8    4    5 ar
     9    4   21 1
    10    5    6 ar
    11    5   22 1
    12    6    7 1
    13    7    8 2
    14    7   23 1
    15    8    9 1
    16    9   10 1
    17    9   24 1
    18   10   15 1
    19   10   11 2
    20   11   12 am
    21   11   27 1
    22   12   13 2
    23   12   14 1
    24   14   15 1
    25   14   25 1
    26   14   26 1
    27   16   17 2
    28   16   18 1
@<TRIPOS>MOLECULE
ZINC00602803
   57    59     0     0     0
SMALL
USER_CHARGES

@<TRIPOS>ATOM
      1 C1         -1.3402   -4.8618    1.2145 C.3       1 <0>        -0.1534
      2 C2         -0.8181   -3.6495    0.4408 C.3       1 <0>         0.0511
      3 O1         -0.7742   -2.5142    1.3074 O.3       1 <0>        -0.3148
      4 C3         -0.3304   -1.3470    0.7727 C.ar      1 <0>         0.1525
      5 C4          0.0498   -1.3049   -0.5488 C.ar      1 <0>        -0.1831
      6 C5          0.5092   -0.1023   -1.1071 C.ar      1 <0>         0.1876
      7 C6          0.5748    1.0570   -0.2965 C.ar      1 <0>        -0.1304
      8 C7          0.1883    0.9932    1.0499 C.ar      1 <0>        -0.0592
      9 C8         -0.2650   -0.1967    1.5740 C.ar      1 <0>         0.1185
     10 N1         -0.6575   -0.2608    2.9161 N.am      1 <0>        -0.6449
     11 C9         -0.1566    0.6173    3.8075 C.2       1 <0>         0.5328
     12 O2          0.7152    1.3957    3.4703 O.2       1 <0>        -0.5071
     13 C10        -0.6641    0.6344    5.1877 C.2       1 <0>        -0.1271
     14 C11        -0.1697    1.5011    6.0673 C.2       1 <0>        -0.1492
     15 C12        -0.6897    1.5186    7.4817 C.3       1 <0>         0.0302
     16 C13         1.3312    2.5206    8.3617 C.3       1 <0>        -0.0486
     17 C14        -0.0528    1.1357    9.7861 C.3       1 <0>        -0.0433
     18 C15         1.0386    2.2666   -0.8642 C.ar      1 <0>         0.2844
     19 C16         1.4144    2.2536   -2.2161 C.ar      1 <0>        -0.1029
     20 C17         1.3165    1.0573   -2.9447 C.ar      1 <0>         0.2010
     21 N2          0.8834   -0.0478   -2.3940 N.ar      1 <0>        -0.4743
     22 C18         1.8922    3.4476   -2.8459 C.1       1 <0>         0.2469
     23 N3          2.2712    4.3948   -3.3456 N.1       1 <0>        -0.3851
     24 N4          1.1194    3.4219   -0.1130 N.pl3     1 <0>        -0.6979
     25 C19         2.3677    3.9814    0.1773 C.ar      1 <0>         0.1846
     26 C20         3.4715    3.1592    0.3659 C.ar      1 <0>        -0.1231
     27 C21         4.7048    3.7137    0.6463 C.ar      1 <0>        -0.1069
     28 C22         4.8398    5.0877    0.7520 C.ar      1 <0>         0.0844
     29 C23         3.7394    5.9099    0.5700 C.ar      1 <0>        -0.0407
     30 C24         2.5044    5.3592    0.2831 C.ar      1 <0>        -0.1222
     31 Cl1         3.9119    7.6322    0.7020 Cl        1 <0>        -0.0373
     32 F1          6.0462    5.6274    1.0324 F         1 <0>        -0.1244
     33 H1         -2.3423   -4.6506    1.5877 H         1 <0>         0.0676
     34 H2         -1.3737   -5.7279    0.5535 H         1 <0>         0.0859
     35 H3         -0.6765   -5.0706    2.0536 H         1 <0>         0.0665
     36 H4         -1.4818   -3.4407   -0.3983 H         1 <0>         0.0727
     37 H5          0.1840   -3.8607    0.0676 H         1 <0>         0.0719
     38 H6         -0.0049   -2.1965   -1.1558 H         1 <0>         0.1557
     39 H7          0.2375    1.8756    1.6707 H         1 <0>         0.1646
     40 H8         -1.2900   -0.9373    3.2047 H         1 <0>         0.4221
     41 H9         -1.4381   -0.0567    5.4870 H         1 <0>         0.1454
     42 H10         0.6043    2.1922    5.7680 H         1 <0>         0.1533
     43 H11        -1.1915    2.4672    7.6726 H         1 <0>         0.1468
     44 H12        -1.3959    0.6999    7.6193 H         1 <0>         0.1366
     45 H13         0.7789    3.4221    8.6269 H         1 <0>         0.1257
     46 H14         2.1523    2.3777    9.0642 H         1 <0>         0.1250
     47 H15         1.7302    2.6227    7.3524 H         1 <0>         0.1232
     48 H16        -0.6601    0.2309    9.8124 H         1 <0>         0.1226
     49 H17         0.7976    1.0222   10.4584 H         1 <0>         0.1252
     50 H18        -0.6553    1.9870   10.1029 H         1 <0>         0.1250
     51 H19         1.6056    1.0492   -3.9853 H         1 <0>         0.1765
     52 H20         0.3102    3.8456    0.2136 H         1 <0>         0.4201
     53 H21         3.3660    2.0871    0.2888 H         1 <0>         0.1375
     54 H22         5.5639    3.0747    0.7881 H         1 <0>         0.1500
     55 H23         1.6466    6.0000    0.1416 H         1 <0>         0.1457
     56 N5          0.4465    1.3376    8.4096 N.4       1 <0>        -0.3970
     57 H24         0.9816    0.5092    8.1241 H         1 <0>         0.4334
@<TRIPOS>BOND
     1    1    2 1
     2    1   33 1
     3    1   34 1
     4    1   35 1
     5    2    3 1
     6    2   36 1
     7    2   37 1
     8    3    4 1
     9    4    9 ar
    10    4    5 ar
    11    5    6 ar
    12    5   38 1
    13    6   21 ar
    14    6    7 ar
    15    7    8 ar
    16    7   18 ar
    17    8    9 ar
    18    8   39 1
    19    9   10 1
    20   10   11 am
    21   10   40 1
    22   11   12 2
    23   11   13 1
    24   13   14 2
    25   13   41 1
    26   14   15 1
    27   14   42 1
    28   15   43 1
    29   15   44 1
    30   15   56 1
    31   16   45 1
    32   16   46 1
    33   16   47 1
    34   16   56 1
    35   17   48 1
    36   17   49 1
    37   17   50 1
    38   17   56 1
    39   18   19 ar
    40   18   24 1
    41   19   20 ar
    42   19   22 1
    43   20   21 ar
    44   20   51 1
    45   22   23 3
    46   24   25 1
    47   24   52 1
    48   25   30 ar
    49   25   26 ar
    50   26   27 ar
    51   26   53 1
    52   27   28 ar
    53   27   54 1
    54   28   29 ar
    55   28   32 1
    56   29   30 ar
    57   29   31 1
    58   30   55 1
    59   56   57 1
@<TRIPOS>MOLECULE
ZINC03871430
   23    23     0     0     0
SMALL
USER_CHARGES

@<TRIPOS>ATOM
      1 C1          0.1912    1.2510    0.2364 C.ar      1 <0>        -0.0614
      2 C2          1.4255    1.8227    0.4492 C.ar      1 <0>        -0.1358
      3 C3          2.5392    1.0208    0.6637 C.ar      1 <0>         0.1145
      4 C4          2.4146   -0.3693    0.6645 C.ar      1 <0>         0.0794
      5 C5          1.1825   -0.9524    0.4523 C.ar      1 <0>        -0.0980
      6 C6          0.0568   -0.1443    0.2360 C.ar      1 <0>        -0.1092
      7 C7         -1.2547   -0.7561    0.0105 C.2       1 <0>         0.1107
      8 C8         -1.3508   -1.9450   -0.6795 C.2       1 <0>        -0.1161
      9 C9         -0.1937   -2.4994   -1.3154 C.1       1 <0>         0.2328
     10 N1          0.7243   -2.9391   -1.8199 N.1       1 <0>        -0.3856
     11 C10        -2.6407   -2.6440   -0.7627 C.2       1 <0>         0.4057
     12 S1         -4.0240   -1.9812   -0.0024 S.2       1 <0>        -0.5422
     13 N2         -2.7347   -3.8068   -1.4375 N.pl3     1 <0>        -0.7611
     14 O1          3.5086   -1.1495    0.8741 O.3       1 <0>        -0.4827
     15 O2          3.7534    1.5912    0.8729 O.3       1 <0>        -0.4847
     16 H1         -0.6737    1.8773    0.0743 H         1 <0>         0.1478
     17 H2          1.5282    2.8978    0.4490 H         1 <0>         0.1456
     18 H3          1.0851   -2.0280    0.4524 H         1 <0>         0.1356
     19 H4         -2.1464   -0.2754    0.3849 H         1 <0>         0.1869
     20 H5         -1.9509   -4.1824   -1.8683 H         1 <0>         0.4028
     21 H6         -3.5862   -4.2683   -1.4924 H         1 <0>         0.4287
     22 H7          3.6687   -1.3607    1.8041 H         1 <0>         0.3910
     23 H8          3.9484    1.7713    1.8027 H         1 <0>         0.3952
@<TRIPOS>BOND
     1    1    6 ar
     2    1    2 ar
     3    1   16 1
     4    2    3 ar
     5    2   17 1
     6    3    4 ar
     7    3   15 1
     8    4    5 ar
     9    4   14 1
    10    5    6 ar
    11    5   18 1
    12    6    7 1
    13    7    8 2
    14    7   19 1
    15    8    9 1
    16    8   11 1
    17    9   10 3
    18   11   12 2
    19   11   13 1
    20   13   20 1
    21   13   21 1
    22   14   22 1
    23   15   23 1
@<TRIPOS>MOLECULE
ZINC01488207
   37    39     0     0     0
SMALL
USER_CHARGES
N-[4-(3-bromophenyl)aminoquinazolin-6-yl]but-2-ynamide
@<TRIPOS>ATOM
      1 C1         -9.0048    0.0385    2.3715 C.3       1 <0>        -0.0604
      2 C2         -7.7093   -0.5501    1.9945 C.1       1 <0>        -0.0517
      3 C3         -6.6761   -1.0195    1.6938 C.1       1 <0>        -0.2504
      4 C4         -5.4158   -1.5920    1.3270 C.2       1 <0>         0.6419
      5 O1         -5.1340   -2.7205    1.6826 O.2       1 <0>        -0.4985
      6 N1         -4.5420   -0.8804    0.5878 N.am      1 <0>        -0.6635
      7 C5         -3.2732   -1.4006    0.3117 C.ar      1 <0>         0.1443
      8 C6         -3.1208   -2.7723    0.0859 C.ar      1 <0>        -0.0730
      9 C7         -1.8979   -3.3059   -0.1853 C.ar      1 <0>        -0.0850
     10 C8         -0.7708   -2.4741   -0.2407 C.ar      1 <0>         0.1798
     11 C9         -0.9172   -1.0846   -0.0073 C.ar      1 <0>        -0.1688
     12 C10        -2.1832   -0.5556    0.2640 C.ar      1 <0>        -0.1045
     13 C11         0.2389   -0.2690   -0.0754 C.ar      1 <0>         0.4624
     14 N2          1.4005   -0.8500   -0.3439 N.ar      1 <0>        -0.5772
     15 C12         1.4895   -2.1543   -0.5501 C.ar      1 <0>         0.3419
     16 N3          0.4529   -2.9568   -0.5046 N.ar      1 <0>        -0.5366
     17 N4          0.1595    1.0922    0.1376 N.pl3     1 <0>        -0.6382
     18 C13         1.3252    1.8625    0.1771 C.ar      1 <0>         0.1579
     19 C14         1.3085    3.1745   -0.2798 C.ar      1 <0>        -0.1333
     20 C15         2.4615    3.9333   -0.2392 C.ar      1 <0>        -0.0920
     21 C16         3.6325    3.3890    0.2558 C.ar      1 <0>        -0.1066
     22 C17         3.6530    2.0830    0.7121 C.ar      1 <0>        -0.0706
     23 C18         2.5011    1.3199    0.6785 C.ar      1 <0>        -0.0846
     24 Br1         5.2565    1.3439    1.3891 Br        1 <0>        -0.0431
     25 H1         -9.5718   -0.6800    2.9634 H         1 <0>         0.0950
     26 H2         -8.8366    0.9410    2.9590 H         1 <0>         0.0962
     27 H3         -9.5653    0.2903    1.4712 H         1 <0>         0.0966
     28 H4         -4.7929   -0.0075    0.2472 H         1 <0>         0.4168
     29 H5         -3.9857   -3.4178    0.1278 H         1 <0>         0.1517
     30 H6         -1.7964   -4.3673   -0.3571 H         1 <0>         0.1490
     31 H7         -2.3058    0.5030    0.4394 H         1 <0>         0.1314
     32 H8          2.4597   -2.5772   -0.7651 H         1 <0>         0.1990
     33 H9         -0.7054    1.5150    0.2558 H         1 <0>         0.4220
     34 H10         0.3946    3.6004   -0.6668 H         1 <0>         0.1313
     35 H11         2.4486    4.9533   -0.5940 H         1 <0>         0.1372
     36 H12         4.5328    3.9847    0.2864 H         1 <0>         0.1347
     37 H13         2.5163    0.3018    1.0386 H         1 <0>         0.1489
@<TRIPOS>BOND
     1    1    2 1
     2    1   25 1
     3    1   26 1
     4    1   27 1
     5    2    3 3
     6    3    4 1
     7    4    5 2
     8    4    6 am
     9    6    7 1
    10    6   28 1
    11    7   12 ar
    12    7    8 ar
    13    8    9 ar
    14    8   29 1
    15    9   10 ar
    16    9   30 1
    17   10   16 ar
    18   10   11 ar
    19   11   12 ar
    20   11   13 ar
    21   12   31 1
    22   13   14 ar
    23   13   17 1
    24   14   15 ar
    25   15   16 ar
    26   15   32 1
    27   17   18 1
    28   17   33 1
    29   18   23 ar
    30   18   19 ar
    31   19   20 ar
    32   19   34 1
    33   20   21 ar
    34   20   35 1
    35   21   22 ar
    36   21   36 1
    37   22   23 ar
    38   22   24 1
    39   23   37 1
@<TRIPOS>MOLECULE
ZINC19632614
   55    58     0     0     0
SMALL
USER_CHARGES

@<TRIPOS>ATOM
      1 C1         -0.7374    1.4118    0.5253 C.3       1 <0>         0.0199
      2 O1         -0.7263   -0.0171    0.5247 O.3       1 <0>        -0.2961
      3 C2          0.0734   -0.6280    1.4373 C.ar      1 <0>         0.1647
      4 C3          0.8188    0.1348    2.3090 C.ar      1 <0>        -0.1833
      5 C4          1.6420   -0.4976    3.2485 C.ar      1 <0>         0.2017
      6 C5          1.6952   -1.9130    3.2874 C.ar      1 <0>        -0.1805
      7 C6          0.9277   -2.6653    2.3903 C.ar      1 <0>        -0.1504
      8 C7          0.1268   -2.0280    1.4855 C.ar      1 <0>         0.1167
      9 O2         -0.6229   -2.7597    0.6185 O.3       1 <0>        -0.2957
     10 C8         -0.5255   -4.1819    0.7171 C.3       1 <0>         0.0569
     11 C9         -1.4334   -4.8292   -0.3307 C.3       1 <0>        -0.1162
     12 C10        -1.3291   -6.3519   -0.2252 C.3       1 <0>         0.0590
     13 N1         -2.2008   -6.9733   -1.2311 N.3       1 <0>        -0.5361
     14 C11        -3.6165   -6.7053   -0.9393 C.3       1 <0>         0.0126
     15 C12        -4.4841   -7.3184   -2.0416 C.3       1 <0>         0.0623
     16 O3         -4.2065   -8.7181   -2.1368 O.3       1 <0>        -0.3850
     17 C13        -2.8368   -9.0154   -2.4209 C.3       1 <0>         0.0626
     18 C14        -1.9524   -8.4195   -1.3224 C.3       1 <0>         0.0175
     19 C15         2.5361   -2.5234    4.2482 C.ar      1 <0>         0.4639
     20 N2          3.2308   -1.7396    5.0625 N.ar      1 <0>        -0.5813
     21 C16         3.1493   -0.4206    4.9892 C.ar      1 <0>         0.3427
     22 N3          2.3876    0.1999    4.1200 N.ar      1 <0>        -0.5394
     23 N4          2.6306   -3.8977    4.3362 N.pl3     1 <0>        -0.6396
     24 C17         3.3713   -4.4833    5.3684 C.ar      1 <0>         0.1586
     25 C18         3.4039   -3.8902    6.6240 C.ar      1 <0>        -0.0764
     26 C19         4.1353   -4.4698    7.6421 C.ar      1 <0>        -0.1191
     27 C20         4.8362   -5.6416    7.4124 C.ar      1 <0>         0.0961
     28 C21         4.8054   -6.2354    6.1608 C.ar      1 <0>        -0.0542
     29 C22         4.0703   -5.6613    5.1406 C.ar      1 <0>        -0.1133
     30 Cl1         5.6852   -7.7046    5.8756 Cl        1 <0>        -0.0422
     31 F1          5.5513   -6.2065    8.4097 F         1 <0>        -0.1250
     32 H1          0.2683    1.7831    0.3285 H         1 <0>         0.0625
     33 H2         -1.4151    1.7702   -0.2495 H         1 <0>         0.1078
     34 H3         -1.0740    1.7722    1.4974 H         1 <0>         0.0624
     35 H4          0.7687    1.2128    2.2678 H         1 <0>         0.1567
     36 H5          0.9651   -3.7443    2.4164 H         1 <0>         0.1382
     37 H6          0.5060   -4.4884    0.5431 H         1 <0>         0.0655
     38 H7         -0.8359   -4.4993    1.7126 H         1 <0>         0.0633
     39 H8         -2.4649   -4.5227   -0.1568 H         1 <0>         0.0772
     40 H9         -1.1230   -4.5118   -1.3262 H         1 <0>         0.0870
     41 H10        -0.2976   -6.6584   -0.3991 H         1 <0>         0.0806
     42 H11        -1.6394   -6.6693    0.7704 H         1 <0>         0.0394
     43 H12        -3.8805   -7.1489    0.0207 H         1 <0>         0.0445
     44 H13        -3.7829   -5.6288   -0.9016 H         1 <0>         0.0906
     45 H14        -5.5369   -7.1717   -1.8001 H         1 <0>         0.0996
     46 H15        -4.2579   -6.8370   -2.9930 H         1 <0>         0.0614
     47 H16        -2.6980  -10.0960   -2.4536 H         1 <0>         0.0999
     48 H17        -2.5626   -8.5833   -3.3833 H         1 <0>         0.0613
     49 H18        -0.9041   -8.5942   -1.5643 H         1 <0>         0.0880
     50 H19        -2.1898   -8.8905   -0.3685 H         1 <0>         0.0446
     51 H20         3.7361    0.1714    5.6759 H         1 <0>         0.1991
     52 H21         2.1833   -4.4574    3.6823 H         1 <0>         0.4215
     53 H22         2.8578   -2.9760    6.8040 H         1 <0>         0.1516
     54 H23         4.1608   -4.0084    8.6183 H         1 <0>         0.1509
     55 H24         4.0430   -6.1262    4.1662 H         1 <0>         0.1452
@<TRIPOS>BOND
     1    1    2 1
     2    1   32 1
     3    1   33 1
     4    1   34 1
     5    2    3 1
     6    3    8 ar
     7    3    4 ar
     8    4    5 ar
     9    4   35 1
    10    5   22 ar
    11    5    6 ar
    12    6    7 ar
    13    6   19 ar
    14    7    8 ar
    15    7   36 1
    16    8    9 1
    17    9   10 1
    18   10   11 1
    19   10   37 1
    20   10   38 1
    21   11   12 1
    22   11   39 1
    23   11   40 1
    24   12   13 1
    25   12   41 1
    26   12   42 1
    27   13   18 1
    28   13   14 1
    29   14   15 1
    30   14   43 1
    31   14   44 1
    32   15   16 1
    33   15   45 1
    34   15   46 1
    35   16   17 1
    36   17   18 1
    37   17   47 1
    38   17   48 1
    39   18   49 1
    40   18   50 1
    41   19   20 ar
    42   19   23 1
    43   20   21 ar
    44   21   22 ar
    45   21   51 1
    46   23   24 1
    47   23   52 1
    48   24   29 ar
    49   24   25 ar
    50   25   26 ar
    51   25   53 1
    52   26   27 ar
    53   26   54 1
    54   27   28 ar
    55   27   31 1
    56   28   29 ar
    57   28   30 1
    58   29   55 1
@<TRIPOS>MOLECULE
ZINC19632614
   57    60     0     0     0
SMALL
USER_CHARGES

@<TRIPOS>ATOM
      1 C1          0.4957    0.6763   -1.2292 C.3       1 <0>         0.0097
      2 O1          0.3708   -0.6717   -0.7717 O.3       1 <0>        -0.2780
      3 C2         -0.8861   -1.1806   -0.6878 C.ar      1 <0>         0.2175
      4 C3         -1.9704   -0.3964   -1.0449 C.ar      1 <0>        -0.2163
      5 C4         -3.2517   -0.9159   -0.9595 C.ar      1 <0>         0.2109
      6 C5         -3.4429   -2.2355   -0.5110 C.ar      1 <0>        -0.1696
      7 C6         -2.3484   -3.0191   -0.1533 C.ar      1 <0>        -0.1343
      8 C7         -1.0748   -2.4922   -0.2475 C.ar      1 <0>         0.1172
      9 O2         -0.0002   -3.2528    0.0951 O.3       1 <0>        -0.2792
     10 C8         -0.2516   -4.6209    0.4223 C.3       1 <0>         0.0522
     11 C9          1.0783   -5.3474    0.6333 C.3       1 <0>        -0.1519
     12 C10         0.8148   -6.8369    0.8638 C.3       1 <0>        -0.0151
     13 N1          2.0946   -7.5463    0.9928 N.4       1 <0>        -0.3820
     14 C11         2.8253   -7.4743   -0.2800 C.3       1 <0>        -0.0514
     15 C12         4.1584   -8.2140   -0.1429 C.3       1 <0>         0.0361
     16 O3          3.9086   -9.5683    0.2435 O.3       1 <0>        -0.3530
     17 C13         3.1775   -9.6905    1.4668 C.3       1 <0>         0.0362
     18 C14         1.8426   -8.9535    1.3327 C.3       1 <0>        -0.0460
     19 C15        -4.8247   -2.7457   -0.4360 C.cat     1 <0>         0.5319
     20 N2         -5.0725   -3.9771   -0.0222 N.pl3     1 <0>        -0.5604
     21 C16        -4.2014   -4.6012    0.8249 C.ar      1 <0>         0.0974
     22 C17        -3.7272   -3.9360    1.9592 C.ar      1 <0>        -0.0816
     23 C18        -2.8483   -4.5713    2.8111 C.ar      1 <0>        -0.1175
     24 C19        -2.4343   -5.8665    2.5448 C.ar      1 <0>         0.1198
     25 C20        -2.9002   -6.5323    1.4212 C.ar      1 <0>        -0.0716
     26 C21        -3.7851   -5.9094    0.5642 C.ar      1 <0>        -0.0825
     27 Cl1        -2.3754   -8.1547    1.0956 Cl        1 <0>        -0.0183
     28 F1         -1.5728   -6.4831    3.3830 F         1 <0>        -0.1112
     29 N3         -5.8317   -1.9199   -0.8014 N.2       1 <0>        -0.5495
     30 C22        -5.6076   -0.7054   -1.2106 C.2       1 <0>         0.4712
     31 N4         -4.3672   -0.1695   -1.3053 N.pl3     1 <0>        -0.5812
     32 H1         -4.2589    0.7427   -1.6168 H         1 <0>         0.4503
     33 H2          1.5487    0.9571   -1.2491 H         1 <0>         0.1245
     34 H3          0.0784    0.7596   -2.2327 H         1 <0>         0.0727
     35 H4         -0.0447    1.3405   -0.5547 H         1 <0>         0.0731
     36 H5         -1.8176    0.6161   -1.3882 H         1 <0>         0.1754
     37 H6         -2.4939   -4.0322    0.1915 H         1 <0>         0.1665
     38 H7         -0.8431   -4.6731    1.3364 H         1 <0>         0.0710
     39 H8         -0.7992   -5.0947   -0.3924 H         1 <0>         0.0775
     40 H9          1.7051   -5.2217   -0.2495 H         1 <0>         0.1094
     41 H10         1.5867   -4.9297    1.5023 H         1 <0>         0.1099
     42 H11         0.2340   -6.9660    1.7771 H         1 <0>         0.1336
     43 H12         0.2581   -7.2423    0.0189 H         1 <0>         0.1350
     44 H13         2.2311   -7.9385   -1.0671 H         1 <0>         0.1411
     45 H14         3.0128   -6.4308   -0.5330 H         1 <0>         0.1444
     46 H15         4.6829   -8.1989   -1.0982 H         1 <0>         0.1447
     47 H16         4.7692   -7.7256    0.6163 H         1 <0>         0.0840
     48 H17         2.9923  -10.7439    1.6765 H         1 <0>         0.1456
     49 H18         3.7548   -9.2526    2.2811 H         1 <0>         0.0847
     50 H19         1.3007   -9.0081    2.2769 H         1 <0>         0.1448
     51 H20         1.2488   -9.4172    0.5450 H         1 <0>         0.1398
     52 H21        -4.0484   -2.9261    2.1679 H         1 <0>         0.1559
     53 H22        -2.4815   -4.0580    3.6876 H         1 <0>         0.1719
     54 H23        -4.1514   -6.4303   -0.3081 H         1 <0>         0.1696
     55 H24        -6.4530   -0.0939   -1.4891 H         1 <0>         0.2492
     56 H25        -5.8728   -4.4370   -0.3202 H         1 <0>         0.4487
     57 H26         2.6450   -7.1175    1.7216 H         1 <0>         0.4269
@<TRIPOS>BOND
     1    1    2 1
     2    1   33 1
     3    1   34 1
     4    1   35 1
     5    2    3 1
     6    3    8 ar
     7    3    4 ar
     8    4    5 ar
     9    4   36 1
    10    5   31 1
    11    5    6 ar
    12    6    7 ar
    13    6   19 1
    14    7    8 ar
    15    7   37 1
    16    8    9 1
    17    9   10 1
    18   10   11 1
    19   10   38 1
    20   10   39 1
    21   11   12 1
    22   11   40 1
    23   11   41 1
    24   12   13 1
    25   12   42 1
    26   12   43 1
    27   13   18 1
    28   13   14 1
    29   13   57 1
    30   14   15 1
    31   14   44 1
    32   14   45 1
    33   15   16 1
    34   15   46 1
    35   15   47 1
    36   16   17 1
    37   17   18 1
    38   17   48 1
    39   17   49 1
    40   18   50 1
    41   18   51 1
    42   19   20 2
    43   19   29 1
    44   20   21 1
    45   20   56 1
    46   21   26 ar
    47   21   22 ar
    48   22   23 ar
    49   22   52 1
    50   23   24 ar
    51   23   53 1
    52   24   25 ar
    53   24   28 1
    54   25   26 ar
    55   25   27 1
    56   26   54 1
    57   29   30 2
    58   30   31 1
    59   30   55 1
    60   31   32 1
