@<TRIPOS>MOLECULE
ZINC08602413
   59    61     0     0     0
SMALL
USER_CHARGES

@<TRIPOS>ATOM
      1 C1         -0.8619   -1.2098    0.4197 C.3       1 <0>        -0.1466
      2 C2         -0.0026   -0.0150    0.0013 C.3       1 <0>        -0.0935
      3 C3          0.8450   -0.3966   -1.1848 C.2       1 <0>        -0.0419
      4 C4          2.1088   -0.8506   -0.9971 C.2       1 <0>        -0.0535
      5 C5          2.7054   -0.8397    0.3571 C.ar      1 <0>        -0.0419
      6 C6          2.9273    0.3706    1.0153 C.ar      1 <0>        -0.1080
      7 C7          3.4834    0.3739    2.2778 C.ar      1 <0>        -0.1171
      8 C8          3.8208   -0.8194    2.8915 C.ar      1 <0>        -0.1149
      9 C9          3.6033   -2.0228    2.2443 C.ar      1 <0>        -0.1170
     10 C10         3.0431   -2.0400    0.9837 C.ar      1 <0>        -0.1041
     11 C11         2.8913   -1.3568   -2.1461 C.ar      1 <0>        -0.0470
     12 C12         2.4762   -2.5040   -2.8244 C.ar      1 <0>        -0.0595
     13 C13         3.2077   -2.9723   -3.8948 C.ar      1 <0>        -0.1380
     14 C14         4.3563   -2.3043   -4.2986 C.ar      1 <0>         0.1110
     15 C15         4.7726   -1.1627   -3.6263 C.ar      1 <0>        -0.1994
     16 C16         4.0435   -0.6851   -2.5583 C.ar      1 <0>        -0.0636
     17 O1          5.0749   -2.7692   -5.3538 O.3       1 <0>        -0.3291
     18 C17         6.2456   -2.0339   -5.7158 C.3       1 <0>         0.0246
     19 C18         6.9175   -2.7036   -6.9162 C.3       1 <0>        -0.0018
     20 N1          6.0298   -2.6204   -8.0837 N.4       1 <0>        -0.3886
     21 C19         5.8585   -1.2133   -8.4693 C.3       1 <0>        -0.0545
     22 C20         6.6212   -3.3663   -9.2026 C.3       1 <0>        -0.0476
     23 C21         0.3015   -0.2768   -2.5456 C.ar      1 <0>        -0.0535
     24 C22         0.8652    0.6307   -3.4494 C.ar      1 <0>        -0.0836
     25 C23         0.3521    0.7390   -4.7232 C.ar      1 <0>        -0.1448
     26 C24        -0.7231   -0.0506   -5.1111 C.ar      1 <0>         0.1063
     27 C25        -1.2866   -0.9532   -4.2178 C.ar      1 <0>        -0.1418
     28 C26        -0.7776   -1.0738   -2.9434 C.ar      1 <0>        -0.0893
     29 O2         -1.2256    0.0605   -6.3684 O.3       1 <0>        -0.4973
     30 H1         -1.5891   -1.4261   -0.3629 H         1 <0>         0.0562
     31 H2         -0.2239   -2.0801    0.5734 H         1 <0>         0.0567
     32 H3         -1.3849   -0.9744    1.3466 H         1 <0>         0.0628
     33 H4         -0.6486    0.8208   -0.2675 H         1 <0>         0.0736
     34 H5          0.6426    0.2765    0.8302 H         1 <0>         0.0835
     35 H6          2.6647    1.3028    0.5372 H         1 <0>         0.1225
     36 H7          3.6560    1.3100    2.7882 H         1 <0>         0.1252
     37 H8          4.2562   -0.8114    3.8798 H         1 <0>         0.1238
     38 H9          3.8689   -2.9508    2.7287 H         1 <0>         0.1239
     39 H10         2.8699   -2.9802    0.4812 H         1 <0>         0.1196
     40 H11         1.5832   -3.0243   -2.5107 H         1 <0>         0.1328
     41 H12         2.8874   -3.8600   -4.4199 H         1 <0>         0.1321
     42 H13         5.6666   -0.6461   -3.9431 H         1 <0>         0.1266
     43 H14         4.3654    0.2053   -2.0388 H         1 <0>         0.1293
     44 H15         5.9669   -1.0133   -5.9781 H         1 <0>         0.0864
     45 H16         6.9384   -2.0166   -4.8745 H         1 <0>         0.1085
     46 H17         7.8566   -2.1960   -7.1368 H         1 <0>         0.1492
     47 H18         7.1159   -3.7501   -6.6844 H         1 <0>         0.1426
     48 H19         6.8289   -0.7844   -8.7193 H         1 <0>         0.1248
     49 H20         5.1998   -1.1516   -9.3355 H         1 <0>         0.1273
     50 H21         5.4197   -0.6599   -7.6390 H         1 <0>         0.1213
     51 H22         6.7483   -4.4103   -8.9165 H         1 <0>         0.1248
     52 H23         5.9625   -3.3045  -10.0689 H         1 <0>         0.1259
     53 H24         7.5916   -2.9373   -9.4527 H         1 <0>         0.1232
     54 H25         1.7009    1.2453   -3.1487 H         1 <0>         0.1238
     55 H26         0.7861    1.4393   -5.4214 H         1 <0>         0.1266
     56 H27        -2.1226   -1.5644   -4.5245 H         1 <0>         0.1309
     57 H28        -1.2134   -1.7791   -2.2513 H         1 <0>         0.1303
     58 H29        -0.8119   -0.5318   -7.0111 H         1 <0>         0.3880
     59 H30         5.1316   -3.0175   -7.8522 H         1 <0>         0.4337
@<TRIPOS>BOND
     1    1    2 1
     2    1   30 1
     3    1   31 1
     4    1   32 1
     5    2    3 1
     6    2   33 1
     7    2   34 1
     8    3    4 2
     9    3   23 1
    10    4    5 1
    11    4   11 1
    12    5   10 ar
    13    5    6 ar
    14    6    7 ar
    15    6   35 1
    16    7    8 ar
    17    7   36 1
    18    8    9 ar
    19    8   37 1
    20    9   10 ar
    21    9   38 1
    22   10   39 1
    23   11   16 ar
    24   11   12 ar
    25   12   13 ar
    26   12   40 1
    27   13   14 ar
    28   13   41 1
    29   14   15 ar
    30   14   17 1
    31   15   16 ar
    32   15   42 1
    33   16   43 1
    34   17   18 1
    35   18   19 1
    36   18   44 1
    37   18   45 1
    38   19   20 1
    39   19   46 1
    40   19   47 1
    41   20   21 1
    42   20   22 1
    43   20   59 1
    44   21   48 1
    45   21   49 1
    46   21   50 1
    47   22   51 1
    48   22   52 1
    49   22   53 1
    50   23   28 ar
    51   23   24 ar
    52   24   25 ar
    53   24   54 1
    54   25   26 ar
    55   25   55 1
    56   26   27 ar
    57   26   29 1
    58   27   28 ar
    59   27   56 1
    60   28   57 1
    61   29   58 1
@<TRIPOS>MOLECULE
ZINC00538275
   62    66     0     0     0
SMALL
USER_CHARGES

@<TRIPOS>ATOM
      1 C1         -1.0560   -3.6471   -2.9834 C.ar      1 <0>        -0.0731
      2 C2         -0.5292   -3.8209   -4.2441 C.ar      1 <0>        -0.1418
      3 C3         -0.2617   -2.7179   -5.0458 C.ar      1 <0>         0.1273
      4 C4         -0.5240   -1.4352   -4.5802 C.ar      1 <0>        -0.1436
      5 C5         -1.0507   -1.2517   -3.3208 C.ar      1 <0>        -0.0726
      6 C6         -1.3215   -2.3585   -2.5107 C.ar      1 <0>        -0.0443
      7 C7         -1.8857   -2.1673   -1.1621 C.2       1 <0>        -0.0491
      8 C8         -1.4781   -2.7470    0.0324 C.2       1 <0>        -0.1672
      9 C9         -2.2084   -2.3914    1.2518 C.ar      1 <0>        -0.0733
     10 C10        -1.9811   -2.8478    2.5699 C.ar      1 <0>        -0.0620
     11 C11        -2.7636   -2.4131    3.6070 C.ar      1 <0>        -0.1362
     12 C12        -3.8034   -1.5118    3.3971 C.ar      1 <0>         0.1376
     13 C13        -4.0502   -1.0462    2.1156 C.ar      1 <0>        -0.0999
     14 C14        -3.2654   -1.4805    1.0680 C.ar      1 <0>        -0.1027
     15 S1         -3.2496   -1.1310   -0.6716 S.3       1 <0>         0.0989
     16 O1         -4.5695   -1.0928    4.4389 O.3       1 <0>        -0.4890
     17 C15        -0.3552   -3.6836    0.0717 C.2       1 <0>         0.4632
     18 O2         -0.5599   -4.8828    0.0108 O.2       1 <0>        -0.4303
     19 C16         1.0269   -3.1752    0.1852 C.ar      1 <0>        -0.1819
     20 C17         1.2584   -1.8082    0.3588 C.ar      1 <0>        -0.0197
     21 C18         2.5485   -1.3381    0.4641 C.ar      1 <0>        -0.1529
     22 C19         3.6196   -2.2215    0.3980 C.ar      1 <0>         0.1478
     23 C20         3.3936   -3.5820    0.2249 C.ar      1 <0>        -0.2153
     24 C21         2.1062   -4.0607    0.1249 C.ar      1 <0>        -0.0165
     25 O3          4.8897   -1.7543    0.5022 O.3       1 <0>        -0.3241
     26 C22         5.9433   -2.7167    0.4259 C.3       1 <0>         0.0227
     27 C23         7.2923   -2.0079    0.5623 C.3       1 <0>        -0.0010
     28 N1          7.3928   -1.3985    1.8951 N.4       1 <0>        -0.3845
     29 C24         8.6181   -0.5941    1.9726 C.3       1 <0>        -0.0072
     30 C25         8.6868    0.1080    3.3305 C.3       1 <0>        -0.1466
     31 C26         8.6938   -0.9442    4.4432 C.3       1 <0>        -0.1392
     32 C27         7.4482   -1.8247    4.3075 C.3       1 <0>        -0.1453
     33 C28         7.4253   -2.4551    2.9134 C.3       1 <0>        -0.0137
     34 O4          0.2580   -2.8940   -6.2879 O.3       1 <0>        -0.4983
     35 H1         -1.2677   -4.5052   -2.3627 H         1 <0>         0.1336
     36 H2         -0.3235   -4.8160   -4.6100 H         1 <0>         0.1374
     37 H3         -0.3141   -0.5808   -5.2066 H         1 <0>         0.1382
     38 H4         -1.2542   -0.2544   -2.9597 H         1 <0>         0.1348
     39 H5         -1.1813   -3.5477    2.7618 H         1 <0>         0.1270
     40 H6         -2.5705   -2.7766    4.6055 H         1 <0>         0.1391
     41 H7         -4.8538   -0.3469    1.9378 H         1 <0>         0.1433
     42 H8         -4.2357   -0.2987    4.8782 H         1 <0>         0.3978
     43 H9          0.4267   -1.1211    0.4099 H         1 <0>         0.1415
     44 H10         2.7283   -0.2816    0.5980 H         1 <0>         0.1408
     45 H11         4.2285   -4.2651    0.1733 H         1 <0>         0.1355
     46 H12         1.9312   -5.1186   -0.0043 H         1 <0>         0.1432
     47 H13         5.8313   -3.4427    1.2312 H         1 <0>         0.0893
     48 H14         5.8979   -3.2297   -0.5348 H         1 <0>         0.1127
     49 H15         8.0975   -2.7309    0.4318 H         1 <0>         0.1504
     50 H16         7.3737   -1.2321   -0.1990 H         1 <0>         0.1436
     51 H17         9.4861   -1.2428    1.8552 H         1 <0>         0.1295
     52 H18         8.6132    0.1521    1.1781 H         1 <0>         0.1314
     53 H19         9.5982    0.7032    3.3868 H         1 <0>         0.1133
     54 H20         7.8194    0.7572    3.4489 H         1 <0>         0.0880
     55 H21         9.5878   -1.5615    4.3556 H         1 <0>         0.0823
     56 H22         8.6856   -0.4483    5.4139 H         1 <0>         0.0949
     57 H23         7.4742   -2.6108    5.0621 H         1 <0>         0.1125
     58 H24         6.5550   -1.2155    4.4462 H         1 <0>         0.0878
     59 H25         6.5398   -3.0828    2.8135 H         1 <0>         0.1272
     60 H26         8.3188   -3.0642    2.7759 H         1 <0>         0.1308
     61 H27        -0.4076   -2.9906   -6.9827 H         1 <0>         0.3988
     62 H28         6.5925   -0.8047    2.0535 H         1 <0>         0.4291
@<TRIPOS>BOND
     1    1    6 ar
     2    1    2 ar
     3    1   35 1
     4    2    3 ar
     5    2   36 1
     6    3    4 ar
     7    3   34 1
     8    4    5 ar
     9    4   37 1
    10    5    6 ar
    11    5   38 1
    12    6    7 1
    13    7   15 1
    14    7    8 2
    15    8    9 1
    16    8   17 1
    17    9   14 ar
    18    9   10 ar
    19   10   11 ar
    20   10   39 1
    21   11   12 ar
    22   11   40 1
    23   12   13 ar
    24   12   16 1
    25   13   14 ar
    26   13   41 1
    27   14   15 1
    28   16   42 1
    29   17   18 2
    30   17   19 1
    31   19   24 ar
    32   19   20 ar
    33   20   21 ar
    34   20   43 1
    35   21   22 ar
    36   21   44 1
    37   22   23 ar
    38   22   25 1
    39   23   24 ar
    40   23   45 1
    41   24   46 1
    42   25   26 1
    43   26   27 1
    44   26   47 1
    45   26   48 1
    46   27   28 1
    47   27   49 1
    48   27   50 1
    49   28   33 1
    50   28   29 1
    51   28   62 1
    52   29   30 1
    53   29   51 1
    54   29   52 1
    55   30   31 1
    56   30   53 1
    57   30   54 1
    58   31   32 1
    59   31   55 1
    60   31   56 1
    61   32   33 1
    62   32   57 1
    63   32   58 1
    64   33   59 1
    65   33   60 1
    66   34   61 1
@<TRIPOS>MOLECULE
ZINC03872327
   63    65     0     0     0
SMALL
USER_CHARGES
N-(3-amino-3-imino-propyl)-4-[[4-[(4-formamido-1-methyl-pyrrole-2-carbonyl)amino]-1-methyl-pyrrole-2-carbonyl]amino]-1-methyl-pyrrole-2-carboxamide
@<TRIPOS>ATOM
      1 C1        -12.8897  -11.2873   -0.5657 C.3       1 <0>         0.0663
      2 N1        -13.2606   -9.8710   -0.6165 N.pl3     1 <0>        -0.4011
      3 C2        -14.5280   -9.3864   -0.6840 C.2       1 <0>        -0.0088
      4 C3        -14.4759   -8.0287   -0.7154 C.2       1 <0>         0.0529
      5 C4        -13.1260   -7.6516   -0.6718 C.2       1 <0>        -0.1340
      6 C5        -12.3829   -8.8112   -0.6045 C.2       1 <0>        -0.0483
      7 C6        -10.9205   -8.8994   -0.5388 C.2       1 <0>         0.5989
      8 O1        -10.3740   -9.9864   -0.5774 O.2       1 <0>        -0.5368
      9 N2        -10.1817   -7.7769   -0.4356 N.am      1 <0>        -0.6348
     10 C7         -8.7780   -7.8519   -0.4847 C.2       1 <0>         0.0660
     11 C8         -8.0173   -9.0201   -0.6369 C.2       1 <0>        -0.1310
     12 C9         -6.6905   -8.6436   -0.6343 C.2       1 <0>        -0.0512
     13 N3         -6.6447   -7.2766   -0.4839 N.pl3     1 <0>        -0.4015
     14 C10        -7.9160   -6.8045   -0.3990 C.2       1 <0>        -0.0035
     15 C11        -5.4268   -6.4641   -0.4296 C.3       1 <0>         0.0683
     16 C12        -5.5367   -9.5387   -0.7678 C.2       1 <0>         0.6031
     17 O2         -4.4133   -9.0763   -0.8453 O.2       1 <0>        -0.5424
     18 N4         -5.7200  -10.8735   -0.8047 N.am      1 <0>        -0.6351
     19 C13        -4.6088  -11.7358   -0.8208 C.2       1 <0>         0.0659
     20 C14        -3.2613  -11.3482   -0.8082 C.2       1 <0>        -0.1292
     21 C15        -2.5069  -12.5024   -0.8289 C.2       1 <0>        -0.0613
     22 N5         -3.3760  -13.5688   -0.8626 N.pl3     1 <0>        -0.3995
     23 C16        -4.6489  -13.0939   -0.8573 C.2       1 <0>         0.0025
     24 C17        -2.9921  -14.9821   -0.8982 C.3       1 <0>         0.0707
     25 C18        -1.0424  -12.5793   -0.8224 C.2       1 <0>         0.6041
     26 O3         -0.4891  -13.6572   -0.9368 O.2       1 <0>        -0.5393
     27 N6         -0.3091  -11.4562   -0.6897 N.am      1 <0>        -0.7237
     28 C19         1.1509  -11.5181   -0.7936 C.3       1 <0>         0.1067
     29 C20         1.7353  -10.1166   -0.6067 C.3       1 <0>        -0.1481
     30 C21         3.2372  -10.1802   -0.7135 C.cat     1 <0>         0.5537
     31 N7          3.9825   -9.0387   -0.5786 N.pl3     1 <0>        -0.7752
     32 N8        -15.5788   -7.1576   -0.7851 N.am      1 <0>        -0.6546
     33 C22       -15.3838   -5.8242   -0.8096 C.2       1 <0>         0.4925
     34 O4        -14.2576   -5.3751   -0.7715 O.2       1 <0>        -0.5409
     35 H1        -12.8352  -11.6853   -1.5790 H         1 <0>         0.0784
     36 H2        -11.9186  -11.3915   -0.0817 H         1 <0>         0.1062
     37 H3        -13.6393  -11.8390    0.0016 H         1 <0>         0.0837
     38 H4        -15.4287   -9.9819   -0.7083 H         1 <0>         0.1741
     39 H5        -12.7410   -6.6426   -0.6855 H         1 <0>         0.1689
     40 H6        -10.6180   -6.9173   -0.3276 H         1 <0>         0.4163
     41 H7         -8.3986  -10.0255   -0.7376 H         1 <0>         0.1695
     42 H8         -8.1955   -5.7680   -0.2808 H         1 <0>         0.1769
     43 H9         -5.2020   -6.0796   -1.4244 H         1 <0>         0.0776
     44 H10        -5.5764   -5.6306    0.2568 H         1 <0>         0.0839
     45 H11        -4.5961   -7.0774   -0.0808 H         1 <0>         0.1041
     46 H12        -6.6182  -11.2394   -0.8201 H         1 <0>         0.4173
     47 H13        -2.8850  -10.3361   -0.7845 H         1 <0>         0.1691
     48 H14        -5.5450  -13.6964   -0.8782 H         1 <0>         0.1785
     49 H15        -2.8013  -15.2809   -1.9289 H         1 <0>         0.0811
     50 H16        -2.0899  -15.1286   -0.3044 H         1 <0>         0.0974
     51 H17        -3.7996  -15.5884   -0.4878 H         1 <0>         0.0894
     52 H18        -0.7482  -10.6070   -0.5253 H         1 <0>         0.4139
     53 H19         1.5423  -12.1809   -0.0218 H         1 <0>         0.0870
     54 H20         1.4294  -11.8999   -1.7758 H         1 <0>         0.0859
     55 H21         1.3439   -9.4538   -1.3784 H         1 <0>         0.1480
     56 H22         1.4568   -9.7348    0.3756 H         1 <0>         0.1476
     57 H23         4.7835  -11.4556   -1.0174 H         1 <0>         0.4432
     58 H24         3.5436   -8.1894   -0.4142 H         1 <0>         0.4479
     59 H25         4.9492   -9.0795   -0.6474 H         1 <0>         0.4311
     60 H26       -16.4793   -7.5167   -0.8155 H         1 <0>         0.4128
     61 H27       -16.2301   -5.1557   -0.8676 H         1 <0>         0.1456
     62 N9          3.7711  -11.3607   -0.9371 N.pl3     1 <0>        -0.7534
     63 H28         3.1690  -12.1871   -1.0309 H         1 <0>         0.4664
@<TRIPOS>BOND
     1    1    2 1
     2    1   35 1
     3    1   36 1
     4    1   37 1
     5    2    6 1
     6    2    3 1
     7    3    4 2
     8    3   38 1
     9    4    5 1
    10    4   32 1
    11    5    6 2
    12    5   39 1
    13    6    7 1
    14    7    8 2
    15    7    9 am
    16    9   10 1
    17    9   40 1
    18   10   14 2
    19   10   11 1
    20   11   12 2
    21   11   41 1
    22   12   13 1
    23   12   16 1
    24   13   14 1
    25   13   15 1
    26   14   42 1
    27   15   43 1
    28   15   44 1
    29   15   45 1
    30   16   17 2
    31   16   18 am
    32   18   19 1
    33   18   46 1
    34   19   23 2
    35   19   20 1
    36   20   21 2
    37   20   47 1
    38   21   22 1
    39   21   25 1
    40   22   23 1
    41   22   24 1
    42   23   48 1
    43   24   49 1
    44   24   50 1
    45   24   51 1
    46   25   26 2
    47   25   27 am
    48   27   28 1
    49   27   52 1
    50   28   29 1
    51   28   53 1
    52   28   54 1
    53   29   30 1
    54   29   55 1
    55   29   56 1
    56   30   31 1
    57   30   62 2
    58   31   58 1
    59   31   59 1
    60   32   33 am
    61   32   60 1
    62   33   34 2
    63   33   61 1
    64   57   62 1
    65   62   63 1
@<TRIPOS>MOLECULE
ZINC08660419
   67    71     0     0     0
SMALL
USER_CHARGES
11-(4-dimethylaminophenyl)-17-hydroxy-13-methyl-17-prop-1-ynyl-1,2,6,7,8,11,12,14,15,16-decahydrocyclopenta[a]phenanthren-3-one
@<TRIPOS>ATOM
      1 C1          0.7869    0.1155   -4.5240 C.3       1 <0>        -0.0462
      2 C2          0.5900    0.9727   -3.3436 C.1       1 <0>        -0.1645
      3 C3          0.4330    1.6563   -2.4022 C.1       1 <0>        -0.2108
      4 C4          0.2361    2.5134   -1.2218 C.3       1 <0>         0.2516
      5 C5          1.2880    3.6384   -1.2035 C.3       1 <0>        -0.1460
      6 C6          2.1300    3.4350    0.0772 C.3       1 <0>        -0.1158
      7 C7          1.9355    1.9425    0.4012 C.3       1 <0>        -0.0751
      8 H1          2.5427    1.3688   -0.2990 H         1 <0>         0.0756
      9 C8          0.4547    1.6914    0.0764 C.3       1 <0>        -0.0266
     10 C9         -0.4117    2.3256    1.1670 C.3       1 <0>        -0.0878
     11 C10        -0.1997    1.6805    2.5047 C.3       1 <0>        -0.0025
     12 H2         -0.8001    0.7718    2.5494 H         1 <0>         0.0872
     13 C11         1.2316    1.3258    2.7607 C.2       1 <0>        -0.0418
     14 C12         1.5404    0.7472    3.9335 C.2       1 <0>        -0.1294
     15 C13         0.4525    0.4472    4.9374 C.3       1 <0>        -0.0945
     16 C14         0.9498    0.8563    6.3279 C.3       1 <0>        -0.1505
     17 C15         2.3106    0.2641    6.5759 C.2       1 <0>         0.3859
     18 O1          2.6042   -0.0954    7.6983 O.2       1 <0>        -0.4758
     19 C16         3.2491    0.1171    5.5432 C.2       1 <0>        -0.2574
     20 C17         2.9152    0.3774    4.2526 C.2       1 <0>         0.0321
     21 C18         3.9597    0.2695    3.1733 C.3       1 <0>        -0.0979
     22 C19         3.3016    0.3825    1.7969 C.3       1 <0>        -0.1123
     23 C20         2.3424    1.5764    1.7924 C.3       1 <0>        -0.0429
     24 H3          2.9133    2.4186    2.1836 H         1 <0>         0.0813
     25 C21        -0.6667    2.6234    3.5835 C.ar      1 <0>        -0.1252
     26 C22        -1.9173    2.4583    4.1502 C.ar      1 <0>        -0.0698
     27 C23        -2.3460    3.3173    5.1430 C.ar      1 <0>        -0.1952
     28 C24        -1.5241    4.3549    5.5643 C.ar      1 <0>         0.2151
     29 C25        -0.2708    4.5213    4.9889 C.ar      1 <0>        -0.1951
     30 C26         0.1541    3.6553    4.0005 C.ar      1 <0>        -0.0584
     31 N1         -1.9567    5.2286    6.5644 N.pl3     1 <0>        -0.6386
     32 C27        -1.1430    6.3931    6.9220 C.3       1 <0>         0.0924
     33 C28        -3.2242    4.9804    7.2559 C.3       1 <0>         0.0888
     34 C29         0.1462    0.2052   -0.1159 C.3       1 <0>        -0.1349
     35 O2         -1.0793    3.0716   -1.2336 O.3       1 <0>        -0.5403
     36 H4          0.6311    0.7024   -5.4292 H         1 <0>         0.0815
     37 H5          1.8018   -0.2822   -4.5190 H         1 <0>         0.0822
     38 H6          0.0737   -0.7083   -4.4978 H         1 <0>         0.0820
     39 H7          0.7949    4.6101   -1.1758 H         1 <0>         0.0815
     40 H8          1.9256    3.5677   -2.0847 H         1 <0>         0.0725
     41 H9          1.7511    4.0565    0.8885 H         1 <0>         0.0745
     42 H10         3.1806    3.6522   -0.1156 H         1 <0>         0.0724
     43 H11        -0.1669    3.3848    1.2459 H         1 <0>         0.0717
     44 H12        -1.4617    2.2228    0.8931 H         1 <0>         0.0782
     45 H13        -0.4437    1.0149    4.6872 H         1 <0>         0.1092
     46 H14         0.2288   -0.6195    4.9275 H         1 <0>         0.0741
     47 H15         0.3122    0.5216    7.0217 H         1 <0>         0.0807
     48 H16         1.0116    1.9431    6.3847 H         1 <0>         0.0968
     49 H17         4.2520   -0.2074    5.7782 H         1 <0>         0.1316
     50 H18         4.6881    1.0715    3.2931 H         1 <0>         0.0899
     51 H19         4.4649   -0.6930    3.2534 H         1 <0>         0.0896
     52 H20         2.7468   -0.5310    1.5827 H         1 <0>         0.0708
     53 H21         4.0693    0.5294    1.0373 H         1 <0>         0.0770
     54 H22        -2.5577    1.6543    3.8189 H         1 <0>         0.1217
     55 H23        -3.3211    3.1851    5.5883 H         1 <0>         0.1233
     56 H24         0.3706    5.3272    5.3138 H         1 <0>         0.1205
     57 H25         1.1285    3.7839    3.5530 H         1 <0>         0.1167
     58 H26        -1.4355    7.2436    6.3062 H         1 <0>         0.0482
     59 H27        -1.2977    6.6355    7.9734 H         1 <0>         0.0661
     60 H28        -0.0903    6.1667    6.7525 H         1 <0>         0.0686
     61 H29        -3.6391    4.0288    6.9236 H         1 <0>         0.0779
     62 H30        -3.0505    4.9453    8.3314 H         1 <0>         0.0562
     63 H31        -3.9260    5.7824    7.0272 H         1 <0>         0.0519
     64 H32         0.3878   -0.3372    0.7982 H         1 <0>         0.0621
     65 H33        -0.9125    0.0804   -0.3434 H         1 <0>         0.0594
     66 H34         0.7434   -0.1863   -0.9394 H         1 <0>         0.0582
     67 H35        -1.2765    3.5972   -2.0210 H         1 <0>         0.3781
@<TRIPOS>BOND
     1    1    2 1
     2    1   36 1
     3    1   37 1
     4    1   38 1
     5    2    3 3
     6    3    4 1
     7    4    9 1
     8    4    5 1
     9    4   35 1
    10    5    6 1
    11    5   39 1
    12    5   40 1
    13    6    7 1
    14    6   41 1
    15    6   42 1
    16    7    8 1
    17    7   23 1
    18    7    9 1
    19    9   10 1
    20    9   34 1
    21   10   11 1
    22   10   43 1
    23   10   44 1
    24   11   12 1
    25   11   13 1
    26   11   25 1
    27   13   23 1
    28   13   14 2
    29   14   20 1
    30   14   15 1
    31   15   16 1
    32   15   45 1
    33   15   46 1
    34   16   17 1
    35   16   47 1
    36   16   48 1
    37   17   18 2
    38   17   19 1
    39   19   20 2
    40   19   49 1
    41   20   21 1
    42   21   22 1
    43   21   50 1
    44   21   51 1
    45   22   23 1
    46   22   52 1
    47   22   53 1
    48   23   24 1
    49   25   30 ar
    50   25   26 ar
    51   26   27 ar
    52   26   54 1
    53   27   28 ar
    54   27   55 1
    55   28   29 ar
    56   28   31 1
    57   29   30 ar
    58   29   56 1
    59   30   57 1
    60   31   32 1
    61   31   33 1
    62   32   58 1
    63   32   59 1
    64   32   60 1
    65   33   61 1
    66   33   62 1
    67   33   63 1
    68   34   64 1
    69   34   65 1
    70   34   66 1
    71   35   67 1
@<TRIPOS>MOLECULE
ZINC01541645
   61    63     0     0     0
SMALL
USER_CHARGES
2-[4-(1,2-diphenylbut-1-enyl)phenoxy]ethyl-trimethyl-ammonium
@<TRIPOS>ATOM
      1 C1         -2.4000    6.1447   -4.2815 C.3       1 <0>        -0.1459
      2 C2         -3.0543    4.9649   -3.5598 C.3       1 <0>        -0.0929
      3 C3         -3.1792    5.2808   -2.0916 C.2       1 <0>        -0.0399
      4 C4         -2.2147    4.8796   -1.2274 C.2       1 <0>        -0.0574
      5 C5         -1.1080    4.0189   -1.7014 C.ar      1 <0>        -0.0394
      6 C6         -1.3680    2.7179   -2.1337 C.ar      1 <0>        -0.1078
      7 C7         -0.3312    1.9188   -2.5695 C.ar      1 <0>        -0.1162
      8 C8          0.9627    2.4085   -2.5882 C.ar      1 <0>        -0.1158
      9 C9          1.2265    3.6992   -2.1653 C.ar      1 <0>        -0.1176
     10 C10         0.1993    4.5066   -1.7223 C.ar      1 <0>        -0.1054
     11 C11        -2.2685    5.3021    0.1893 C.ar      1 <0>        -0.0457
     12 C12        -2.1299    6.6504    0.5232 C.ar      1 <0>        -0.0589
     13 C13        -2.1859    7.0407    1.8440 C.ar      1 <0>        -0.1979
     14 C14        -2.3684    6.0932    2.8428 C.ar      1 <0>         0.1066
     15 C15        -2.5015    4.7502    2.5150 C.ar      1 <0>        -0.1388
     16 C16        -2.4523    4.3527    1.1961 C.ar      1 <0>        -0.0643
     17 O1         -2.4174    6.4812    4.1439 O.3       1 <0>        -0.3226
     18 C17        -2.2736    7.8777    4.4103 C.3       1 <0>         0.0259
     19 C18        -2.3546    8.1201    5.9188 C.3       1 <0>        -0.0007
     20 N1         -1.1930    7.5068    6.5764 N.4       1 <0>        -0.2702
     21 C19         0.0415    8.0125    5.9613 C.3       1 <0>        -0.0538
     22 C20        -1.2031    7.8470    8.0054 C.3       1 <0>        -0.0455
     23 C21        -1.2558    6.0475    6.4200 C.3       1 <0>        -0.0468
     24 C22        -4.3472    6.0244   -1.5962 C.ar      1 <0>        -0.0472
     25 C23        -5.2574    5.4086   -0.7306 C.ar      1 <0>        -0.0994
     26 C24        -6.3469    6.1145   -0.2660 C.ar      1 <0>        -0.1181
     27 C25        -6.5475    7.4251   -0.6630 C.ar      1 <0>        -0.1178
     28 C26        -5.6547    8.0397   -1.5237 C.ar      1 <0>        -0.1184
     29 C27        -4.5571    7.3494   -1.9926 C.ar      1 <0>        -0.1080
     30 H1         -3.0649    7.0076   -4.2439 H         1 <0>         0.0563
     31 H2         -1.4569    6.3912   -3.7938 H         1 <0>         0.0557
     32 H3         -2.2122    5.8758   -5.3210 H         1 <0>         0.0624
     33 H4         -2.4397    4.0740   -3.6887 H         1 <0>         0.0824
     34 H5         -4.0447    4.7868   -3.9786 H         1 <0>         0.0735
     35 H6         -2.3782    2.3359   -2.1235 H         1 <0>         0.1229
     36 H7         -0.5306    0.9104   -2.9008 H         1 <0>         0.1254
     37 H8          1.7704    1.7804   -2.9340 H         1 <0>         0.1236
     38 H9          2.2387    4.0756   -2.1823 H         1 <0>         0.1231
     39 H10         0.4064    5.5141   -1.3928 H         1 <0>         0.1181
     40 H11        -1.9834    7.3873   -0.2527 H         1 <0>         0.1269
     41 H12        -2.0835    8.0843    2.1027 H         1 <0>         0.1256
     42 H13        -2.6440    4.0164    3.2945 H         1 <0>         0.1318
     43 H14        -2.5562    3.3082    0.9420 H         1 <0>         0.1333
     44 H15        -1.3082    8.2211    4.0385 H         1 <0>         0.0874
     45 H16        -3.0716    8.4270    3.9107 H         1 <0>         0.1075
     46 H17        -2.3589    9.1924    6.1148 H         1 <0>         0.1469
     47 H18        -3.2700    7.6757    6.3096 H         1 <0>         0.1400
     48 H19         0.0881    9.0953    6.0774 H         1 <0>         0.1229
     49 H20         0.9034    7.5573    6.4493 H         1 <0>         0.1252
     50 H21         0.0489    7.7600    4.9010 H         1 <0>         0.1213
     51 H22        -2.1191    7.4718    8.4618 H         1 <0>         0.1224
     52 H23        -0.3412    7.3919    8.4934 H         1 <0>         0.1235
     53 H24        -1.1565    8.9298    8.1215 H         1 <0>         0.1213
     54 H25        -1.0243    5.7823    5.3884 H         1 <0>         0.1339
     55 H26        -0.5318    5.5791    7.0868 H         1 <0>         0.1167
     56 H27        -2.2579    5.6982    6.6689 H         1 <0>         0.1215
     57 H28        -5.1048    4.3844   -0.4238 H         1 <0>         0.1193
     58 H29        -7.0483    5.6418    0.4056 H         1 <0>         0.1216
     59 H30        -7.4054    7.9711   -0.2994 H         1 <0>         0.1211
     60 H31        -5.8183    9.0627   -1.8291 H         1 <0>         0.1231
     61 H32        -3.8615    7.8303   -2.6645 H         1 <0>         0.1236
@<TRIPOS>BOND
     1    1    2 1
     2    1   30 1
     3    1   31 1
     4    1   32 1
     5    2    3 1
     6    2   33 1
     7    2   34 1
     8    3    4 2
     9    3   24 1
    10    4    5 1
    11    4   11 1
    12    5   10 ar
    13    5    6 ar
    14    6    7 ar
    15    6   35 1
    16    7    8 ar
    17    7   36 1
    18    8    9 ar
    19    8   37 1
    20    9   10 ar
    21    9   38 1
    22   10   39 1
    23   11   16 ar
    24   11   12 ar
    25   12   13 ar
    26   12   40 1
    27   13   14 ar
    28   13   41 1
    29   14   15 ar
    30   14   17 1
    31   15   16 ar
    32   15   42 1
    33   16   43 1
    34   17   18 1
    35   18   19 1
    36   18   44 1
    37   18   45 1
    38   19   20 1
    39   19   46 1
    40   19   47 1
    41   20   21 1
    42   20   22 1
    43   20   23 1
    44   21   48 1
    45   21   49 1
    46   21   50 1
    47   22   51 1
    48   22   52 1
    49   22   53 1
    50   23   54 1
    51   23   55 1
    52   23   56 1
    53   24   29 ar
    54   24   25 ar
    55   25   26 ar
    56   25   57 1
    57   26   27 ar
    58   26   58 1
    59   27   28 ar
    60   27   59 1
    61   28   29 ar
    62   28   60 1
    63   29   61 1
@<TRIPOS>MOLECULE
ZINC05832614
   47    50     0     0     0
SMALL
USER_CHARGES
13-methyl-17-oxo-3-sulfamoyloxy-7,8,9,11,12,14,15,16-octahydro-6H-cyclopenta[a]phenanthrene
@<TRIPOS>ATOM
      1 C1         -2.3922    9.0554   -4.4937 C.3       1 <0>        -0.1445
      2 C2         -1.3627    9.7780   -3.6226 C.3       1 <0>        -0.1259
      3 C3          0.0087    9.1883   -3.8733 C.3       1 <0>        -0.0974
      4 C4         -0.0803    7.6712   -3.6191 C.3       1 <0>        -0.1159
      5 C5         -0.5980    7.3834   -2.2145 C.3       1 <0>        -0.0495
      6 H1          0.1344    7.8013   -1.5238 H         1 <0>         0.0847
      7 C6         -0.7062    5.9125   -1.9369 C.ar      1 <0>        -0.0487
      8 C7          0.2315    5.0642   -2.5106 C.ar      1 <0>        -0.1006
      9 C8          0.1935    3.7077   -2.2681 C.ar      1 <0>        -0.0948
     10 C9         -0.7926    3.1853   -1.4436 C.ar      1 <0>         0.0629
     11 C10        -1.7341    4.0292   -0.8806 C.ar      1 <0>        -0.1264
     12 C11        -1.6939    5.3957   -1.1242 C.ar      1 <0>        -0.0580
     13 C12        -2.7554    6.2506   -0.4835 C.3       1 <0>        -0.0822
     14 C13        -2.3745    7.7301   -0.5244 C.3       1 <0>        -0.1148
     15 C14        -1.9421    8.0736   -1.9498 C.3       1 <0>        -0.0752
     16 H2         -2.6934    7.7264   -2.6592 H         1 <0>         0.0902
     17 C15        -1.7163    9.5621   -2.1246 C.3       1 <0>        -0.0782
     18 H3         -0.9096    9.9091   -1.4790 H         1 <0>         0.0866
     19 C16        -2.9608   10.4480   -1.9862 C.3       1 <0>        -0.1131
     20 C17        -2.5748   11.7037   -2.8151 C.3       1 <0>        -0.1760
     21 C18        -1.5065   11.2586   -3.8092 C.2       1 <0>         0.3803
     22 O1         -0.9013   11.9560   -4.5874 O.2       1 <0>        -0.4363
     23 O2         -0.8372    1.8501   -1.1944 O.3       1 <0>        -0.6790
     24 S1         -0.0298    1.4201    0.0220 S.o2      1 <0>         2.7726
     25 O3         -0.0121   -0.0008    0.0160 O.2       1 <0>        -0.9510
     26 O4          1.1601    2.1968    0.0149 O.2       1 <0>        -0.9725
     27 N1         -0.8853    1.8771    1.3642 N.pl3     1 <0>        -1.2498
     28 H4         -3.3940    9.3920   -4.2272 H         1 <0>         0.0644
     29 H5         -2.2010    9.2789   -5.5433 H         1 <0>         0.0602
     30 H6         -2.3149    7.9803   -4.3313 H         1 <0>         0.0805
     31 H7          0.3074    9.3731   -4.9051 H         1 <0>         0.0745
     32 H8          0.7333    9.6359   -3.1931 H         1 <0>         0.0687
     33 H9         -0.7677    7.2261   -4.3384 H         1 <0>         0.0721
     34 H10         0.9074    7.2274   -3.7441 H         1 <0>         0.0729
     35 H11         0.9985    5.4712   -3.1528 H         1 <0>         0.1407
     36 H12         0.9276    3.0551   -2.7173 H         1 <0>         0.1399
     37 H13        -2.5043    3.6218   -0.2424 H         1 <0>         0.1392
     38 H14        -3.6965    6.1094   -1.0149 H         1 <0>         0.0827
     39 H15        -2.8830    5.9433    0.5545 H         1 <0>         0.0807
     40 H16        -3.2341    8.3389   -0.2442 H         1 <0>         0.0768
     41 H17        -1.5508    7.9168    0.1647 H         1 <0>         0.0695
     42 H18        -3.8352    9.9565   -2.4129 H         1 <0>         0.0796
     43 H19        -3.1343   10.7114   -0.9428 H         1 <0>         0.0790
     44 H20        -2.2253   12.4128   -2.2027 H         1 <0>         0.0888
     45 H21        -3.4466   12.0823   -3.3486 H         1 <0>         0.0978
     46 H22        -0.7405    2.7522    1.7569 H         1 <0>         0.4212
     47 H23        -1.5312    1.2698    1.7576 H         1 <0>         0.4232
@<TRIPOS>BOND
     1    1    2 1
     2    1   28 1
     3    1   29 1
     4    1   30 1
     5    2   17 1
     6    2   21 1
     7    2    3 1
     8    3    4 1
     9    3   31 1
    10    3   32 1
    11    4    5 1
    12    4   33 1
    13    4   34 1
    14    5    6 1
    15    5   15 1
    16    5    7 1
    17    7   12 ar
    18    7    8 ar
    19    8    9 ar
    20    8   35 1
    21    9   10 ar
    22    9   36 1
    23   10   11 ar
    24   10   23 1
    25   11   12 ar
    26   11   37 1
    27   12   13 1
    28   13   14 1
    29   13   38 1
    30   13   39 1
    31   14   15 1
    32   14   40 1
    33   14   41 1
    34   15   16 1
    35   15   17 1
    36   17   18 1
    37   17   19 1
    38   19   20 1
    39   19   42 1
    40   19   43 1
    41   20   21 1
    42   20   44 1
    43   20   45 1
    44   21   22 2
    45   23   24 1
    46   24   25 2
    47   24   26 2
    48   24   27 1
    49   27   46 1
    50   27   47 1
@<TRIPOS>MOLECULE
ZINC13520815
   44    47     0     0     0
SMALL
USER_CHARGES

@<TRIPOS>ATOM
      1 C1         -0.0187    1.5258    0.0104 C.3       1 <0>        -0.1354
      2 C2          0.0021   -0.0041    0.0020 C.3       1 <0>        -0.0564
      3 C3         -1.4142   -0.5425    0.0489 C.3       1 <0>        -0.1016
      4 C4         -2.0973    0.0441    1.2987 C.3       1 <0>        -0.1130
      5 C5         -1.3125   -0.3073    2.5542 C.3       1 <0>        -0.0424
      6 H1         -1.3075   -1.3927    2.6533 H         1 <0>         0.0765
      7 C6         -1.9424    0.2651    3.7900 C.ar      1 <0>        -0.0773
      8 C7         -3.3273    0.3484    3.8443 C.ar      1 <0>        -0.1030
      9 C8         -3.9576    0.8569    4.9598 C.ar      1 <0>        -0.1472
     10 C9         -3.2003    1.2884    6.0396 C.ar      1 <0>         0.1024
     11 C10        -1.8198    1.2087    5.9840 C.ar      1 <0>        -0.1480
     12 C11        -1.1856    0.7013    4.8579 C.ar      1 <0>        -0.0577
     13 C12         0.3200    0.6669    4.8604 C.3       1 <0>        -0.0825
     14 C13         0.8561   -0.2331    3.7476 C.3       1 <0>        -0.1135
     15 C14         0.1446    0.1628    2.4542 C.3       1 <0>        -0.0739
     16 H2          0.1741    1.2443    2.3212 H         1 <0>         0.0865
     17 C15         0.7512   -0.5345    1.2564 C.3       1 <0>        -0.0835
     18 H3          0.6224   -1.6140    1.3350 H         1 <0>         0.0754
     19 C16         2.2091   -0.2046    0.9567 C.3       1 <0>        -0.1120
     20 C17         2.3296   -0.2454   -0.5872 C.3       1 <0>        -0.1564
     21 C18         0.8992   -0.5108   -1.1319 C.3       1 <0>         0.1090
     22 H4          0.7424   -1.5760   -1.3012 H         1 <0>         0.0609
     23 O1          0.6684    0.2327   -2.3302 O.3       1 <0>        -0.5588
     24 O2         -3.8114    1.7874    7.1461 O.3       1 <0>        -0.5003
     25 H5          1.0039    1.9031    0.0027 H         1 <0>         0.0539
     26 H6         -0.5459    1.8868   -0.8726 H         1 <0>         0.0599
     27 H7         -0.5289    1.8773    0.9072 H         1 <0>         0.0606
     28 H8         -1.9557   -0.2363   -0.8462 H         1 <0>         0.0693
     29 H9         -1.3938   -1.6303    0.1152 H         1 <0>         0.0628
     30 H10        -2.1534    1.1283    1.2019 H         1 <0>         0.0698
     31 H11        -3.1059   -0.3612    1.3804 H         1 <0>         0.0659
     32 H12        -3.9166    0.0119    3.0041 H         1 <0>         0.1276
     33 H13        -5.0353    0.9194    4.9932 H         1 <0>         0.1275
     34 H14        -1.2303    1.5447    6.8243 H         1 <0>         0.1259
     35 H15         0.7005    1.6781    4.7162 H         1 <0>         0.0774
     36 H16         0.6668    0.2900    5.8226 H         1 <0>         0.0749
     37 H17         1.9304   -0.0841    3.6397 H         1 <0>         0.0720
     38 H18         0.6512   -1.2764    3.9877 H         1 <0>         0.0665
     39 H19         2.4554    0.7900    1.3285 H         1 <0>         0.0683
     40 H20         2.8651   -0.9498    1.4065 H         1 <0>         0.0656
     41 H21         2.7000    0.7100   -0.9588 H         1 <0>         0.0739
     42 H22         3.0000   -1.0500   -0.8889 H         1 <0>         0.0643
     43 H23         1.2119   -0.0490   -3.0787 H         1 <0>         0.3759
     44 H24        -4.0214    1.1203    7.8140 H         1 <0>         0.3901
@<TRIPOS>BOND
     1    1    2 1
     2    1   25 1
     3    1   26 1
     4    1   27 1
     5    2   17 1
     6    2   21 1
     7    2    3 1
     8    3    4 1
     9    3   28 1
    10    3   29 1
    11    4    5 1
    12    4   30 1
    13    4   31 1
    14    5    6 1
    15    5   15 1
    16    5    7 1
    17    7   12 ar
    18    7    8 ar
    19    8    9 ar
    20    8   32 1
    21    9   10 ar
    22    9   33 1
    23   10   11 ar
    24   10   24 1
    25   11   12 ar
    26   11   34 1
    27   12   13 1
    28   13   14 1
    29   13   35 1
    30   13   36 1
    31   14   15 1
    32   14   37 1
    33   14   38 1
    34   15   16 1
    35   15   17 1
    36   17   18 1
    37   17   19 1
    38   19   20 1
    39   19   39 1
    40   19   40 1
    41   20   21 1
    42   20   41 1
    43   20   42 1
    44   21   22 1
    45   21   23 1
    46   23   43 1
    47   24   44 1
@<TRIPOS>MOLECULE
ZINC04428377
   40    43     0     0     0
SMALL
USER_CHARGES
13-methyl-11,12,14,15,16,17-hexahydrocyclopenta[a]phenanthrene-3,17-diol
@<TRIPOS>ATOM
      1 C1         -0.5231    3.1154    1.4178 C.3       1 <0>        -0.1476
      2 C2         -0.6907    1.5987    1.3071 C.3       1 <0>        -0.0560
      3 C3          0.0222    0.9068    2.4520 C.3       1 <0>        -0.0917
      4 C4          1.4287    1.5116    2.5322 C.3       1 <0>        -0.0841
      5 C5          2.0417    1.7717    1.1819 C.ar      1 <0>        -0.0576
      6 C6          3.3766    2.2355    1.1540 C.ar      1 <0>        -0.0591
      7 C7          4.1039    2.3832    2.3494 C.ar      1 <0>        -0.0919
      8 C8          5.3846    2.8383    2.3064 C.ar      1 <0>        -0.1399
      9 C9          5.9927    3.1619    1.0893 C.ar      1 <0>         0.1072
     10 C10         5.3158    3.0270   -0.0892 C.ar      1 <0>        -0.1347
     11 C11         3.9917    2.5570   -0.0781 C.ar      1 <0>        -0.0371
     12 C12         3.2660    2.4006   -1.2719 C.ar      1 <0>        -0.1113
     13 C13         1.9915    1.9338   -1.2165 C.ar      1 <0>        -0.1024
     14 C14         1.3820    1.6120   -0.0025 C.ar      1 <0>        -0.0614
     15 C15        -0.0127    1.0858    0.0080 C.3       1 <0>        -0.0537
     16 H1          0.0021   -0.0041    0.0020 H         1 <0>         0.0908
     17 C16        -0.9639    1.5997   -1.0741 C.3       1 <0>        -0.1115
     18 C17        -2.3691    1.3090   -0.4422 C.3       1 <0>        -0.1561
     19 C18        -2.1571    1.2464    1.0924 C.3       1 <0>         0.1120
     20 H2         -2.7977    1.9727    1.5926 H         1 <0>         0.0605
     21 O1         -2.4272   -0.0698    1.5789 O.3       1 <0>        -0.5604
     22 O2          7.2735    3.6157    1.0791 O.3       1 <0>        -0.5005
     23 H3         -0.9868    3.5960    0.5563 H         1 <0>         0.0578
     24 H4         -1.0013    3.4681    2.3316 H         1 <0>         0.0566
     25 H5          0.5381    3.3627    1.4442 H         1 <0>         0.0715
     26 H6          0.0879   -0.1636    2.2569 H         1 <0>         0.0735
     27 H7         -0.5123    1.0826    3.3855 H         1 <0>         0.0703
     28 H8          2.0732    0.8267    3.0831 H         1 <0>         0.0758
     29 H9          1.3741    2.4530    3.0790 H         1 <0>         0.0781
     30 H10         3.6472    2.1367    3.2965 H         1 <0>         0.1331
     31 H11         5.9404    2.9512    3.2256 H         1 <0>         0.1291
     32 H12         5.7951    3.2796   -1.0235 H         1 <0>         0.1329
     33 H13         3.7164    2.6484   -2.2217 H         1 <0>         0.1284
     34 H14         1.4362    1.8081   -2.1342 H         1 <0>         0.1230
     35 H15        -0.8262    2.6691   -1.2335 H         1 <0>         0.0726
     36 H16        -0.8251    1.0483   -2.0040 H         1 <0>         0.0705
     37 H17        -2.7503    0.3551   -0.8066 H         1 <0>         0.0748
     38 H18        -3.0645    2.1105   -0.6915 H         1 <0>         0.0700
     39 H19        -3.3465   -0.3489    1.4688 H         1 <0>         0.3772
     40 H20         7.9377    2.9171    1.0021 H         1 <0>         0.3913
@<TRIPOS>BOND
     1    1    2 1
     2    1   23 1
     3    1   24 1
     4    1   25 1
     5    2   15 1
     6    2   19 1
     7    2    3 1
     8    3    4 1
     9    3   26 1
    10    3   27 1
    11    4    5 1
    12    4   28 1
    13    4   29 1
    14    5   14 ar
    15    5    6 ar
    16    6   11 ar
    17    6    7 ar
    18    7    8 ar
    19    7   30 1
    20    8    9 ar
    21    8   31 1
    22    9   10 ar
    23    9   22 1
    24   10   11 ar
    25   10   32 1
    26   11   12 ar
    27   12   13 ar
    28   12   33 1
    29   13   14 ar
    30   13   34 1
    31   14   15 1
    32   15   16 1
    33   15   17 1
    34   17   18 1
    35   17   35 1
    36   17   36 1
    37   18   19 1
    38   18   37 1
    39   18   38 1
    40   19   20 1
    41   19   21 1
    42   21   39 1
    43   22   40 1
@<TRIPOS>MOLECULE
ZINC05925926
   37    38     0     0     0
SMALL
USER_CHARGES
2,3-bis(4-hydroxyphenyl)pentanenitrile
@<TRIPOS>ATOM
      1 C1          2.4122    0.8440   -2.4717 C.3       1 <0>        -0.1516
      2 C2          3.1183    1.4862   -1.2759 C.3       1 <0>        -0.1145
      3 C3          2.4729    0.9952    0.0214 C.3       1 <0>        -0.0347
      4 H1          2.4777   -0.0947    0.0398 H         1 <0>         0.0911
      5 C4          1.0522    1.4925    0.0954 C.ar      1 <0>        -0.0916
      6 C5          0.0079    0.5895    0.1714 C.ar      1 <0>        -0.0936
      7 C6         -1.2955    1.0428    0.2335 C.ar      1 <0>        -0.1418
      8 C7         -1.5557    2.4056    0.2310 C.ar      1 <0>         0.1051
      9 C8         -0.5061    3.3096    0.1551 C.ar      1 <0>        -0.1418
     10 C9          0.7953    2.8511    0.0874 C.ar      1 <0>        -0.0970
     11 O1         -2.8368    2.8541    0.2972 O.3       1 <0>        -0.4999
     12 C10         3.2630    1.5289    1.2180 C.3       1 <0>         0.0597
     13 H2          3.3008    2.6173    1.1721 H         1 <0>         0.1227
     14 C11         2.6033    1.1131    2.4665 C.1       1 <0>         0.2077
     15 N1          2.0943    0.7922    3.4300 N.1       1 <0>        -0.4171
     16 C12         4.6643    0.9756    1.1818 C.ar      1 <0>        -0.0946
     17 C13         4.8704   -0.3882    1.2775 C.ar      1 <0>        -0.0881
     18 C14         6.1537   -0.8984    1.2389 C.ar      1 <0>        -0.1412
     19 C15         7.2366   -0.0401    1.1159 C.ar      1 <0>         0.1130
     20 C16         7.0274    1.3284    1.0257 C.ar      1 <0>        -0.1423
     21 C17         5.7419    1.8331    1.0587 C.ar      1 <0>        -0.0857
     22 O2          8.5004   -0.5390    1.0842 O.3       1 <0>        -0.4995
     23 H3          1.3812    1.1948   -2.5162 H         1 <0>         0.0561
     24 H4          2.9298    1.1199   -3.3904 H         1 <0>         0.0573
     25 H5          2.4226   -0.2403   -2.3604 H         1 <0>         0.0549
     26 H6          3.0269    2.5705   -1.3395 H         1 <0>         0.0703
     27 H7          4.1725    1.2093   -1.2848 H         1 <0>         0.0753
     28 H8          0.2112   -0.4711    0.1778 H         1 <0>         0.1253
     29 H9         -2.1112    0.3370    0.2881 H         1 <0>         0.1287
     30 H10        -0.7062    4.3708    0.1493 H         1 <0>         0.1297
     31 H11         1.6127    3.5544    0.0280 H         1 <0>         0.1286
     32 H12        -3.2584    2.9688   -0.5654 H         1 <0>         0.3915
     33 H13         4.0273   -1.0556    1.3784 H         1 <0>         0.1262
     34 H14         6.3139   -1.9641    1.3089 H         1 <0>         0.1316
     35 H15         7.8689    1.9987    0.9302 H         1 <0>         0.1332
     36 H16         5.5785    2.8984    0.9885 H         1 <0>         0.1333
     37 H17         8.9139   -0.6181    1.9547 H         1 <0>         0.3938
@<TRIPOS>BOND
     1    1    2 1
     2    1   23 1
     3    1   24 1
     4    1   25 1
     5    2    3 1
     6    2   26 1
     7    2   27 1
     8    3    4 1
     9    3    5 1
    10    3   12 1
    11    5   10 ar
    12    5    6 ar
    13    6    7 ar
    14    6   28 1
    15    7    8 ar
    16    7   29 1
    17    8    9 ar
    18    8   11 1
    19    9   10 ar
    20    9   30 1
    21   10   31 1
    22   11   32 1
    23   12   13 1
    24   12   14 1
    25   12   16 1
    26   14   15 3
    27   16   21 ar
    28   16   17 ar
    29   17   18 ar
    30   17   33 1
    31   18   19 ar
    32   18   34 1
    33   19   20 ar
    34   19   22 1
    35   20   21 ar
    36   20   35 1
    37   21   36 1
    38   22   37 1
@<TRIPOS>MOLECULE
ZINC03926298
   88    91     0     0     0
SMALL
USER_CHARGES
13-methyl-7-[9-(4,4,5,5,5-pentafluoropentylsulfinyl)nonyl]-6,7,8,9,11,12,14,15,16,17-decahydrocyclopenta[a]phenanthrene-3,17-diol
@<TRIPOS>ATOM
      1 C1          5.5194   -1.4119   -2.7282 C.3       1 <0>        -0.1366
      2 C2          5.9770   -1.8885   -1.3482 C.3       1 <0>        -0.0583
      3 C3          4.9454   -2.8442   -0.7869 C.3       1 <0>        -0.0996
      4 C4          3.5862   -2.1190   -0.7908 C.3       1 <0>        -0.1148
      5 C5          3.6494   -0.8137   -0.0105 C.3       1 <0>        -0.0440
      6 H1          3.8712   -1.0806    1.0228 H         1 <0>         0.0795
      7 C6          2.3466   -0.0675   -0.0273 C.ar      1 <0>        -0.0745
      8 C7          1.1684   -0.8020   -0.0406 C.ar      1 <0>        -0.1032
      9 C8         -0.0552   -0.1672   -0.0353 C.ar      1 <0>        -0.1481
     10 C9         -0.1092    1.2193   -0.0164 C.ar      1 <0>         0.1028
     11 C10         1.0651    1.9513   -0.0076 C.ar      1 <0>        -0.1484
     12 C11         2.2972    1.3110   -0.0181 C.ar      1 <0>        -0.0514
     13 C12         3.5318    2.1733   -0.0330 C.3       1 <0>        -0.0806
     14 C13         4.7780    1.3646    0.3256 C.3       1 <0>        -0.0794
     15 H2          5.6714    1.9506    0.1100 H         1 <0>         0.0784
     16 C14         4.7795    0.0906   -0.5191 C.3       1 <0>        -0.0691
     17 H3          4.6066    0.3428   -1.5653 H         1 <0>         0.0841
     18 C15         6.0811   -0.6726   -0.3856 C.3       1 <0>        -0.0801
     19 H4          6.2235   -1.0071    0.6420 H         1 <0>         0.0777
     20 C16         7.3356    0.0451   -0.8960 C.3       1 <0>        -0.1116
     21 C17         8.3085   -1.1269   -1.1995 C.3       1 <0>        -0.1558
     22 C18         7.4251   -2.3752   -1.4474 C.3       1 <0>         0.1111
     23 H5          7.6059   -3.1250   -0.6771 H         1 <0>         0.0544
     24 O1          7.6908   -2.9211   -2.7410 O.3       1 <0>        -0.5598
     25 C19         4.7464    0.9991    1.8109 C.3       1 <0>        -0.1163
     26 C20         4.8390    2.2739    2.6519 C.3       1 <0>        -0.1207
     27 C21         4.8075    1.9084    4.1373 C.3       1 <0>        -0.1188
     28 C22         4.9001    3.1832    4.9782 C.3       1 <0>        -0.1200
     29 C23         4.8686    2.8178    6.4636 C.3       1 <0>        -0.1199
     30 C24         4.9612    4.0926    7.3045 C.3       1 <0>        -0.1225
     31 C25         4.9297    3.7271    8.7899 C.3       1 <0>        -0.1144
     32 C26         5.0223    5.0019    9.6309 C.3       1 <0>        -0.1014
     33 C27         4.9908    4.6364   11.1162 C.3       1 <0>        -0.4483
     34 S1          5.1006    6.1479   12.1133 S.o       1 <0>         1.2424
     35 O2          6.3469    6.7858   11.8706 O.2       1 <0>        -0.8398
     36 C28         5.0510    5.5491   13.8249 C.3       1 <0>        -0.4523
     37 C29         5.1369    6.7381   14.7839 C.3       1 <0>        -0.1018
     38 C30         5.0951    6.2331   16.2275 C.3       1 <0>        -0.1625
     39 C31         5.1810    7.4221   17.1865 C.3       1 <0>         0.2636
     40 C32         5.1391    6.9171   18.6301 C.3       1 <0>         0.4251
     41 F1          6.2199    6.0576   18.8550 F         1 <0>        -0.1581
     42 F2          5.2177    8.0044   19.5070 F         1 <0>        -0.1606
     43 F3          3.9416    6.2275   18.8484 F         1 <0>        -0.1574
     44 F4          6.3785    8.1117   16.9682 F         1 <0>        -0.1607
     45 F5          4.1003    8.2816   16.9616 F         1 <0>        -0.1601
     46 O3         -1.3101    1.8555   -0.0121 O.3       1 <0>        -0.5003
     47 H6          6.2090   -0.6528   -3.0975 H         1 <0>         0.0535
     48 H7          5.5049   -2.2559   -3.4177 H         1 <0>         0.0601
     49 H8          4.5183   -0.9873   -2.6524 H         1 <0>         0.0600
     50 H9          4.8901   -3.7365   -1.4106 H         1 <0>         0.0683
     51 H10         5.2145   -3.1218    0.2322 H         1 <0>         0.0627
     52 H11         3.3034   -1.8918   -1.8187 H         1 <0>         0.0691
     53 H12         2.8318   -2.7679   -0.3460 H         1 <0>         0.0653
     54 H13         1.2111   -1.8811   -0.0555 H         1 <0>         0.1264
     55 H14        -0.9670   -0.7459   -0.0463 H         1 <0>         0.1265
     56 H15         1.0230    3.0304    0.0071 H         1 <0>         0.1249
     57 H16         3.6573    2.5999   -1.0282 H         1 <0>         0.0761
     58 H17         3.4113    2.9818    0.6881 H         1 <0>         0.0794
     59 H18         7.1155    0.6081   -1.8030 H         1 <0>         0.0704
     60 H19         7.7466    0.6978   -0.1259 H         1 <0>         0.0670
     61 H20         8.8979   -0.9032   -2.0887 H         1 <0>         0.0723
     62 H21         8.9670   -1.2967   -0.3476 H         1 <0>         0.0671
     63 H22         8.6024   -3.2200   -2.8621 H         1 <0>         0.3755
     64 H23         3.8147    0.4810    2.0379 H         1 <0>         0.0669
     65 H24         5.5897    0.3486    2.0430 H         1 <0>         0.0627
     66 H25         5.7708    2.7920    2.4249 H         1 <0>         0.0598
     67 H26         3.9958    2.9244    2.4198 H         1 <0>         0.0625
     68 H27         3.8758    1.3903    4.3642 H         1 <0>         0.0592
     69 H28         5.6508    1.2580    4.3694 H         1 <0>         0.0590
     70 H29         5.8319    3.7013    4.7512 H         1 <0>         0.0602
     71 H30         4.0568    3.8337    4.7461 H         1 <0>         0.0606
     72 H31         3.9369    2.2997    6.6906 H         1 <0>         0.0608
     73 H32         5.7119    2.1673    6.6957 H         1 <0>         0.0594
     74 H33         5.8930    4.6107    7.0775 H         1 <0>         0.0614
     75 H34         4.1179    4.7430    7.0724 H         1 <0>         0.0639
     76 H35         3.9979    3.2090    9.0169 H         1 <0>         0.0651
     77 H36         5.7730    3.0766    9.0220 H         1 <0>         0.0597
     78 H37         5.9541    5.5200    9.4039 H         1 <0>         0.0671
     79 H38         4.1790    5.6524    9.3987 H         1 <0>         0.0753
     80 H39         4.0590    4.1183   11.3432 H         1 <0>         0.1180
     81 H40         5.8341    3.9860   11.3483 H         1 <0>         0.0845
     82 H41         4.1180    5.0118   13.9950 H         1 <0>         0.1225
     83 H42         5.8930    4.8794   14.0001 H         1 <0>         0.0893
     84 H43         6.0699    7.2754   14.6138 H         1 <0>         0.0826
     85 H44         4.2949    7.4078   14.6087 H         1 <0>         0.0906
     86 H45         4.1621    5.6958   16.3976 H         1 <0>         0.1159
     87 H46         5.9371    5.5634   16.4027 H         1 <0>         0.1107
     88 H47        -1.6610    2.0274    0.8725 H         1 <0>         0.3895
@<TRIPOS>BOND
     1    1    2 1
     2    1   47 1
     3    1   48 1
     4    1   49 1
     5    2   18 1
     6    2   22 1
     7    2    3 1
     8    3    4 1
     9    3   50 1
    10    3   51 1
    11    4    5 1
    12    4   52 1
    13    4   53 1
    14    5    6 1
    15    5   16 1
    16    5    7 1
    17    7   12 ar
    18    7    8 ar
    19    8    9 ar
    20    8   54 1
    21    9   10 ar
    22    9   55 1
    23   10   11 ar
    24   10   46 1
    25   11   12 ar
    26   11   56 1
    27   12   13 1
    28   13   14 1
    29   13   57 1
    30   13   58 1
    31   14   15 1
    32   14   16 1
    33   14   25 1
    34   16   17 1
    35   16   18 1
    36   18   19 1
    37   18   20 1
    38   20   21 1
    39   20   59 1
    40   20   60 1
    41   21   22 1
    42   21   61 1
    43   21   62 1
    44   22   23 1
    45   22   24 1
    46   24   63 1
    47   25   26 1
    48   25   64 1
    49   25   65 1
    50   26   27 1
    51   26   66 1
    52   26   67 1
    53   27   28 1
    54   27   68 1
    55   27   69 1
    56   28   29 1
    57   28   70 1
    58   28   71 1
    59   29   30 1
    60   29   72 1
    61   29   73 1
    62   30   31 1
    63   30   74 1
    64   30   75 1
    65   31   32 1
    66   31   76 1
    67   31   77 1
    68   32   33 1
    69   32   78 1
    70   32   79 1
    71   33   34 1
    72   33   80 1
    73   33   81 1
    74   34   35 2
    75   34   36 1
    76   36   37 1
    77   36   82 1
    78   36   83 1
    79   37   38 1
    80   37   84 1
    81   37   85 1
    82   38   39 1
    83   38   86 1
    84   38   87 1
    85   39   40 1
    86   39   44 1
    87   39   45 1
    88   40   41 1
    89   40   42 1
    90   40   43 1
    91   46   88 1
@<TRIPOS>MOLECULE
ZINC03995809
   88    91     0     0     0
SMALL
USER_CHARGES
13-methyl-7-[9-(4,4,5,5,5-pentafluoropentylsulfinyl)nonyl]-6,7,8,9,11,12,14,15,16,17-decahydrocyclopenta[a]phenanthrene-3,17-diol
@<TRIPOS>ATOM
      1 C1          5.5194   -1.4119   -2.7282 C.3       1 <0>        -0.1366
      2 C2          5.9770   -1.8885   -1.3482 C.3       1 <0>        -0.0584
      3 C3          4.9454   -2.8442   -0.7869 C.3       1 <0>        -0.0996
      4 C4          3.5862   -2.1190   -0.7908 C.3       1 <0>        -0.1149
      5 C5          3.6494   -0.8137   -0.0105 C.3       1 <0>        -0.0440
      6 H1          3.8712   -1.0806    1.0228 H         1 <0>         0.0795
      7 C6          2.3466   -0.0675   -0.0273 C.ar      1 <0>        -0.0746
      8 C7          1.1684   -0.8020   -0.0406 C.ar      1 <0>        -0.1032
      9 C8         -0.0552   -0.1672   -0.0353 C.ar      1 <0>        -0.1481
     10 C9         -0.1092    1.2193   -0.0164 C.ar      1 <0>         0.1027
     11 C10         1.0651    1.9513   -0.0076 C.ar      1 <0>        -0.1485
     12 C11         2.2972    1.3110   -0.0181 C.ar      1 <0>        -0.0514
     13 C12         3.5318    2.1733   -0.0330 C.3       1 <0>        -0.0807
     14 C13         4.7780    1.3646    0.3256 C.3       1 <0>        -0.0792
     15 H2          5.6714    1.9506    0.1100 H         1 <0>         0.0785
     16 C14         4.7795    0.0906   -0.5191 C.3       1 <0>        -0.0691
     17 H3          4.6066    0.3428   -1.5653 H         1 <0>         0.0840
     18 C15         6.0811   -0.6726   -0.3856 C.3       1 <0>        -0.0800
     19 H4          6.2235   -1.0071    0.6420 H         1 <0>         0.0778
     20 C16         7.3356    0.0451   -0.8960 C.3       1 <0>        -0.1115
     21 C17         8.3085   -1.1269   -1.1995 C.3       1 <0>        -0.1556
     22 C18         7.4251   -2.3752   -1.4474 C.3       1 <0>         0.1111
     23 H5          7.6059   -3.1250   -0.6771 H         1 <0>         0.0544
     24 O1          7.6908   -2.9211   -2.7410 O.3       1 <0>        -0.5598
     25 C19         4.7464    0.9991    1.8109 C.3       1 <0>        -0.1163
     26 C20         4.8390    2.2739    2.6519 C.3       1 <0>        -0.1207
     27 C21         4.8075    1.9084    4.1373 C.3       1 <0>        -0.1188
     28 C22         4.9001    3.1832    4.9782 C.3       1 <0>        -0.1200
     29 C23         4.8686    2.8178    6.4636 C.3       1 <0>        -0.1199
     30 C24         4.9612    4.0926    7.3045 C.3       1 <0>        -0.1225
     31 C25         4.9297    3.7271    8.7899 C.3       1 <0>        -0.1144
     32 C26         5.0223    5.0019    9.6309 C.3       1 <0>        -0.1014
     33 C27         4.9908    4.6364   11.1162 C.3       1 <0>        -0.4483
     34 S1          5.1006    6.1479   12.1133 S.o       1 <0>         1.2424
     35 O2          3.9641    6.9635   11.8637 O.2       1 <0>        -0.8397
     36 C28         5.0510    5.5491   13.8249 C.3       1 <0>        -0.4523
     37 C29         5.1369    6.7381   14.7839 C.3       1 <0>        -0.1018
     38 C30         5.0951    6.2331   16.2275 C.3       1 <0>        -0.1625
     39 C31         5.1810    7.4221   17.1865 C.3       1 <0>         0.2636
     40 C32         5.1391    6.9171   18.6301 C.3       1 <0>         0.4251
     41 F1          6.2199    6.0576   18.8550 F         1 <0>        -0.1574
     42 F2          5.2177    8.0044   19.5070 F         1 <0>        -0.1606
     43 F3          3.9416    6.2275   18.8484 F         1 <0>        -0.1581
     44 F4          6.3785    8.1117   16.9682 F         1 <0>        -0.1601
     45 F5          4.1003    8.2816   16.9616 F         1 <0>        -0.1607
     46 O3         -1.3101    1.8555   -0.0121 O.3       1 <0>        -0.5004
     47 H6          6.2090   -0.6528   -3.0975 H         1 <0>         0.0535
     48 H7          5.5049   -2.2559   -3.4177 H         1 <0>         0.0601
     49 H8          4.5183   -0.9873   -2.6524 H         1 <0>         0.0599
     50 H9          4.8901   -3.7365   -1.4106 H         1 <0>         0.0683
     51 H10         5.2145   -3.1218    0.2322 H         1 <0>         0.0627
     52 H11         3.3034   -1.8918   -1.8187 H         1 <0>         0.0691
     53 H12         2.8318   -2.7679   -0.3460 H         1 <0>         0.0653
     54 H13         1.2111   -1.8811   -0.0555 H         1 <0>         0.1265
     55 H14        -0.9670   -0.7459   -0.0463 H         1 <0>         0.1265
     56 H15         1.0230    3.0304    0.0071 H         1 <0>         0.1249
     57 H16         3.6573    2.5999   -1.0282 H         1 <0>         0.0762
     58 H17         3.4113    2.9818    0.6881 H         1 <0>         0.0793
     59 H18         7.1155    0.6081   -1.8030 H         1 <0>         0.0703
     60 H19         7.7466    0.6978   -0.1259 H         1 <0>         0.0671
     61 H20         8.8979   -0.9032   -2.0887 H         1 <0>         0.0723
     62 H21         8.9670   -1.2967   -0.3476 H         1 <0>         0.0672
     63 H22         8.6024   -3.2200   -2.8621 H         1 <0>         0.3755
     64 H23         3.8147    0.4810    2.0379 H         1 <0>         0.0667
     65 H24         5.5897    0.3486    2.0430 H         1 <0>         0.0630
     66 H25         5.7708    2.7920    2.4249 H         1 <0>         0.0601
     67 H26         3.9958    2.9244    2.4198 H         1 <0>         0.0622
     68 H27         3.8758    1.3903    4.3642 H         1 <0>         0.0586
     69 H28         5.6508    1.2580    4.3694 H         1 <0>         0.0596
     70 H29         5.8319    3.7013    4.7512 H         1 <0>         0.0611
     71 H30         4.0568    3.8337    4.7461 H         1 <0>         0.0598
     72 H31         3.9369    2.2997    6.6906 H         1 <0>         0.0592
     73 H32         5.7119    2.1673    6.6957 H         1 <0>         0.0610
     74 H33         5.8930    4.6107    7.0775 H         1 <0>         0.0640
     75 H34         4.1179    4.7430    7.0724 H         1 <0>         0.0612
     76 H35         3.9979    3.2090    9.0169 H         1 <0>         0.0596
     77 H36         5.7730    3.0766    9.0220 H         1 <0>         0.0651
     78 H37         5.9541    5.5200    9.4039 H         1 <0>         0.0753
     79 H38         4.1790    5.6524    9.3987 H         1 <0>         0.0670
     80 H39         4.0590    4.1183   11.3432 H         1 <0>         0.0845
     81 H40         5.8341    3.9860   11.3483 H         1 <0>         0.1180
     82 H41         4.1180    5.0118   13.9950 H         1 <0>         0.0893
     83 H42         5.8930    4.8794   14.0001 H         1 <0>         0.1225
     84 H43         6.0699    7.2754   14.6138 H         1 <0>         0.0906
     85 H44         4.2949    7.4078   14.6087 H         1 <0>         0.0826
     86 H45         4.1621    5.6958   16.3976 H         1 <0>         0.1107
     87 H46         5.9371    5.5634   16.4027 H         1 <0>         0.1159
     88 H47        -1.6610    2.0274    0.8725 H         1 <0>         0.3896
@<TRIPOS>BOND
     1    1    2 1
     2    1   47 1
     3    1   48 1
     4    1   49 1
     5    2   18 1
     6    2   22 1
     7    2    3 1
     8    3    4 1
     9    3   50 1
    10    3   51 1
    11    4    5 1
    12    4   52 1
    13    4   53 1
    14    5    6 1
    15    5   16 1
    16    5    7 1
    17    7   12 ar
    18    7    8 ar
    19    8    9 ar
    20    8   54 1
    21    9   10 ar
    22    9   55 1
    23   10   11 ar
    24   10   46 1
    25   11   12 ar
    26   11   56 1
    27   12   13 1
    28   13   14 1
    29   13   57 1
    30   13   58 1
    31   14   15 1
    32   14   16 1
    33   14   25 1
    34   16   17 1
    35   16   18 1
    36   18   19 1
    37   18   20 1
    38   20   21 1
    39   20   59 1
    40   20   60 1
    41   21   22 1
    42   21   61 1
    43   21   62 1
    44   22   23 1
    45   22   24 1
    46   24   63 1
    47   25   26 1
    48   25   64 1
    49   25   65 1
    50   26   27 1
    51   26   66 1
    52   26   67 1
    53   27   28 1
    54   27   68 1
    55   27   69 1
    56   28   29 1
    57   28   70 1
    58   28   71 1
    59   29   30 1
    60   29   72 1
    61   29   73 1
    62   30   31 1
    63   30   74 1
    64   30   75 1
    65   31   32 1
    66   31   76 1
    67   31   77 1
    68   32   33 1
    69   32   78 1
    70   32   79 1
    71   33   34 1
    72   33   80 1
    73   33   81 1
    74   34   35 2
    75   34   36 1
    76   36   37 1
    77   36   82 1
    78   36   83 1
    79   37   38 1
    80   37   84 1
    81   37   85 1
    82   38   39 1
    83   38   86 1
    84   38   87 1
    85   39   40 1
    86   39   44 1
    87   39   45 1
    88   40   41 1
    89   40   42 1
    90   40   43 1
    91   46   88 1
@<TRIPOS>MOLECULE
ZINC14978643
   59    61     0     0     0
SMALL
USER_CHARGES
4-[(Z)-4-chloro-1-[4-(2-dimethylaminoethoxy)phenyl]-2-phenyl-but-1-enyl]phenol
@<TRIPOS>ATOM
      1 C1          0.9342    2.7473    9.0640 C.3       1 <0>        -0.0488
      2 C2          3.1714    3.5960    9.4345 C.3       1 <0>        -0.0426
      3 C3          2.7254    2.1392    7.5527 C.3       1 <0>         0.0032
      4 C4          1.7753    1.9162    6.3744 C.3       1 <0>         0.0239
      5 O1          1.7306    3.0956    5.5687 O.3       1 <0>        -0.3295
      6 C5          0.9273    3.0644    4.4735 C.ar      1 <0>         0.1128
      7 C6          0.8382    4.1776    3.6480 C.ar      1 <0>        -0.1378
      8 C7          0.0243    4.1498    2.5358 C.ar      1 <0>        -0.0666
      9 C8         -0.7112    3.0008    2.2401 C.ar      1 <0>        -0.0498
     10 C9         -0.6238    1.8861    3.0758 C.ar      1 <0>        -0.0558
     11 C10         0.1971    1.9194    4.1826 C.ar      1 <0>        -0.1973
     12 C11        -1.5859    2.9667    1.0474 C.2       1 <0>        -0.0397
     13 C12        -1.3088    2.1172    0.0274 C.2       1 <0>        -0.0470
     14 C13        -2.2605    1.9998   -1.1351 C.3       1 <0>        -0.0973
     15 C14        -1.8110    2.9360   -2.2587 C.3       1 <0>        -0.0268
     16 Cl1        -2.8626    2.6902   -3.7025 Cl        1 <0>        -0.1753
     17 C15        -0.0797    1.3105    0.0558 C.ar      1 <0>        -0.0513
     18 C16         1.1715    1.9329   -0.0078 C.ar      1 <0>        -0.0986
     19 C17         2.3192    1.1690    0.0131 C.ar      1 <0>        -0.1177
     20 C18         2.2356   -0.2100    0.0976 C.ar      1 <0>        -0.1151
     21 C19         1.0015   -0.8334    0.1609 C.ar      1 <0>        -0.1168
     22 C20        -0.1555   -0.0838    0.1406 C.ar      1 <0>        -0.1051
     23 C21        -2.7629    3.8595    0.9675 C.ar      1 <0>        -0.0566
     24 C22        -2.5877    5.2379    0.8332 C.ar      1 <0>        -0.0912
     25 C23        -3.6868    6.0660    0.7547 C.ar      1 <0>        -0.1411
     26 C24        -4.9671    5.5317    0.8188 C.ar      1 <0>         0.1138
     27 C25        -5.1454    4.1614    0.9577 C.ar      1 <0>        -0.1403
     28 C26        -4.0513    3.3263    1.0320 C.ar      1 <0>        -0.0890
     29 O2         -6.0479    6.3516    0.7459 O.3       1 <0>        -0.4975
     30 H1          1.1255    1.8567    9.6626 H         1 <0>         0.1256
     31 H2          0.5542    3.5419    9.7062 H         1 <0>         0.1254
     32 H3          0.1963    2.5171    8.2956 H         1 <0>         0.1191
     33 H4          4.0599    3.9827    8.9353 H         1 <0>         0.1228
     34 H5          2.7440    4.3726   10.0688 H         1 <0>         0.1239
     35 H6          3.4437    2.7361   10.0465 H         1 <0>         0.1241
     36 H7          2.8284    1.2122    8.1168 H         1 <0>         0.1502
     37 H8          3.7018    2.4474    7.1788 H         1 <0>         0.1409
     38 H9          0.7763    1.6948    6.7500 H         1 <0>         0.0862
     39 H10         2.1314    1.0792    5.7738 H         1 <0>         0.1082
     40 H11         1.4076    5.0662    3.8774 H         1 <0>         0.1334
     41 H12        -0.0439    5.0156    1.8939 H         1 <0>         0.1340
     42 H13        -1.1950    0.9970    2.8528 H         1 <0>         0.1286
     43 H14         0.2690    1.0557    4.8270 H         1 <0>         0.1269
     44 H15        -2.2653    0.9722   -1.4985 H         1 <0>         0.0891
     45 H16        -3.2644    2.2757   -0.8121 H         1 <0>         0.0936
     46 H17        -1.8901    3.9702   -1.9234 H         1 <0>         0.0927
     47 H18        -0.7760    2.7174   -2.5215 H         1 <0>         0.0930
     48 H19         1.2384    3.0088   -0.0738 H         1 <0>         0.1195
     49 H20         3.2859    1.6479   -0.0366 H         1 <0>         0.1224
     50 H21         3.1382   -0.8028    0.1139 H         1 <0>         0.1220
     51 H22         0.9446   -1.9100    0.2260 H         1 <0>         0.1243
     52 H23        -1.1178   -0.5718    0.1897 H         1 <0>         0.1235
     53 H24        -1.5924    5.6546    0.7874 H         1 <0>         0.1257
     54 H25        -3.5522    7.1322    0.6467 H         1 <0>         0.1322
     55 H26        -6.1426    3.7495    1.0072 H         1 <0>         0.1329
     56 H27        -4.1907    2.2607    1.1397 H         1 <0>         0.1286
     57 H28        -6.3533    6.6771    1.6038 H         1 <0>         0.3936
     58 N1          2.1770    3.2100    8.4113 N.4       1 <0>        -0.3998
     59 H29         1.9632    4.0280    7.8287 H         1 <0>         0.4384
@<TRIPOS>BOND
     1    1   30 1
     2    1   31 1
     3    1   32 1
     4    1   58 1
     5    2   33 1
     6    2   34 1
     7    2   35 1
     8    2   58 1
     9    3    4 1
    10    3   36 1
    11    3   37 1
    12    3   58 1
    13    4    5 1
    14    4   38 1
    15    4   39 1
    16    5    6 1
    17    6   11 ar
    18    6    7 ar
    19    7    8 ar
    20    7   40 1
    21    8    9 ar
    22    8   41 1
    23    9   10 ar
    24    9   12 1
    25   10   11 ar
    26   10   42 1
    27   11   43 1
    28   12   13 2
    29   12   23 1
    30   13   14 1
    31   13   17 1
    32   14   15 1
    33   14   44 1
    34   14   45 1
    35   15   16 1
    36   15   46 1
    37   15   47 1
    38   17   22 ar
    39   17   18 ar
    40   18   19 ar
    41   18   48 1
    42   19   20 ar
    43   19   49 1
    44   20   21 ar
    45   20   50 1
    46   21   22 ar
    47   21   51 1
    48   22   52 1
    49   23   28 ar
    50   23   24 ar
    51   24   25 ar
    52   24   53 1
    53   25   26 ar
    54   25   54 1
    55   26   27 ar
    56   26   29 1
    57   27   28 ar
    58   27   55 1
    59   28   56 1
    60   29   57 1
    61   58   59 1
@<TRIPOS>MOLECULE
ZINC13509425
   42    45     0     0     0
SMALL
USER_CHARGES

@<TRIPOS>ATOM
      1 C1         -0.0187    1.5258    0.0104 C.3       1 <0>        -0.1441
      2 C2          0.0021   -0.0041    0.0020 C.3       1 <0>        -0.1261
      3 C3         -1.4074   -0.5256    0.1829 C.3       1 <0>        -0.0977
      4 C4         -1.9733    0.0969    1.4736 C.3       1 <0>        -0.1140
      5 C5         -1.0810   -0.2282    2.6627 C.3       1 <0>        -0.0432
      6 H1         -1.0782   -1.3101    2.7958 H         1 <0>         0.0788
      7 C6         -1.5931    0.3931    3.9301 C.ar      1 <0>        -0.0786
      8 C7         -2.9665    0.5118    4.0958 C.ar      1 <0>        -0.1029
      9 C8         -3.4900    1.0660    5.2445 C.ar      1 <0>        -0.1471
     10 C9         -2.6356    1.5075    6.2447 C.ar      1 <0>         0.1033
     11 C10        -1.2666    1.3928    6.0776 C.ar      1 <0>        -0.1480
     12 C11        -0.7400    0.8406    4.9173 C.ar      1 <0>        -0.0576
     13 C12         0.7595    0.7756    4.7933 C.3       1 <0>        -0.0825
     14 C13         1.1841   -0.1541    3.6574 C.3       1 <0>        -0.1134
     15 C14         0.3656    0.2227    2.4221 C.3       1 <0>        -0.0748
     16 H2          0.3966    1.2998    2.2579 H         1 <0>         0.0887
     17 C15         0.8620   -0.5119    1.1930 C.3       1 <0>        -0.0782
     18 H3          0.7512   -1.5883    1.3238 H         1 <0>         0.0848
     19 C16         2.2729   -0.1511    0.7109 C.3       1 <0>        -0.1112
     20 C17         2.2205   -0.5241   -0.7959 C.3       1 <0>        -0.1833
     21 C18         0.7513   -0.4835   -1.2046 C.2       1 <0>         0.3798
     22 O1          0.2870   -0.7771   -2.2801 O.2       1 <0>        -0.4385
     23 O2         -3.1409    2.0507    7.3833 O.3       1 <0>        -0.5004
     24 H4          1.0038    1.9031   -0.0041 H         1 <0>         0.0636
     25 H5         -0.5517    1.8867   -0.8692 H         1 <0>         0.0594
     26 H6         -0.5229    1.8774    0.9105 H         1 <0>         0.0807
     27 H7         -2.0218   -0.2335   -0.6688 H         1 <0>         0.0727
     28 H8         -1.3910   -1.6118    0.2726 H         1 <0>         0.0674
     29 H9         -2.0328    1.1787    1.3544 H         1 <0>         0.0719
     30 H10        -2.9724   -0.2993    1.6553 H         1 <0>         0.0695
     31 H11        -3.6309    0.1671    3.3173 H         1 <0>         0.1279
     32 H12        -4.5595    1.1563    5.3650 H         1 <0>         0.1277
     33 H13        -0.6018    1.7357    6.8566 H         1 <0>         0.1263
     34 H14         1.1450    1.7763    4.5982 H         1 <0>         0.0780
     35 H15         1.1794    0.4091    5.7301 H         1 <0>         0.0756
     36 H16         2.2463   -0.0219    3.4518 H         1 <0>         0.0737
     37 H17         0.9894   -1.1893    3.9375 H         1 <0>         0.0677
     38 H18         2.4651    0.9141    0.8393 H         1 <0>         0.0788
     39 H19         3.0235   -0.7463    1.2309 H         1 <0>         0.0784
     40 H20         2.7904    0.1988   -1.3795 H         1 <0>         0.0984
     41 H21         2.6224   -1.5261   -0.9467 H         1 <0>         0.0978
     42 H22        -3.3092    1.4071    8.0851 H         1 <0>         0.3905
@<TRIPOS>BOND
     1    1    2 1
     2    1   24 1
     3    1   25 1
     4    1   26 1
     5    2   17 1
     6    2   21 1
     7    2    3 1
     8    3    4 1
     9    3   27 1
    10    3   28 1
    11    4    5 1
    12    4   29 1
    13    4   30 1
    14    5    6 1
    15    5   15 1
    16    5    7 1
    17    7   12 ar
    18    7    8 ar
    19    8    9 ar
    20    8   31 1
    21    9   10 ar
    22    9   32 1
    23   10   11 ar
    24   10   23 1
    25   11   12 ar
    26   11   33 1
    27   12   13 1
    28   13   14 1
    29   13   34 1
    30   13   35 1
    31   14   15 1
    32   14   36 1
    33   14   37 1
    34   15   16 1
    35   15   17 1
    36   17   18 1
    37   17   19 1
    38   19   20 1
    39   19   38 1
    40   19   39 1
    41   20   21 1
    42   20   40 1
    43   20   41 1
    44   21   22 2
    45   23   42 1
@<TRIPOS>MOLECULE
ZINC03814410
   45    48     0     0     0
SMALL
USER_CHARGES

@<TRIPOS>ATOM
      1 C1         -0.0187    1.5258    0.0104 C.3       1 <0>        -0.1354
      2 C2          0.0021   -0.0041    0.0020 C.3       1 <0>        -0.0590
      3 C3         -1.4063   -0.5323    0.1774 C.3       1 <0>        -0.1024
      4 C4         -1.9755    0.0796    1.4717 C.3       1 <0>        -0.1140
      5 C5         -1.0848   -0.2522    2.6600 C.3       1 <0>        -0.0420
      6 H1         -1.0807   -1.3349    2.7859 H         1 <0>         0.0789
      7 C6         -1.5998    0.3600    3.9307 C.ar      1 <0>        -0.0632
      8 C7         -2.9732    0.4767    4.0948 C.ar      1 <0>        -0.1114
      9 C8         -3.5013    1.0233    5.2463 C.ar      1 <0>        -0.1329
     10 C9         -2.6534    1.4593    6.2518 C.ar      1 <0>         0.0777
     11 C10        -1.2793    1.3468    6.0881 C.ar      1 <0>         0.0766
     12 C11        -0.7484    0.8010    4.9223 C.ar      1 <0>        -0.0832
     13 C12         0.7514    0.7375    4.8010 C.3       1 <0>        -0.0739
     14 C13         1.1787   -0.1833    3.6588 C.3       1 <0>        -0.1141
     15 C14         0.3617    0.2024    2.4252 C.3       1 <0>        -0.0752
     16 H2          0.3891    1.2817    2.2751 H         1 <0>         0.0870
     17 C15         0.8604   -0.5199    1.1906 C.3       1 <0>        -0.0824
     18 H3          0.7388   -1.5961    1.3134 H         1 <0>         0.0777
     19 C16         2.2767   -0.1706    0.7202 C.3       1 <0>        -0.1119
     20 C17         2.2488   -0.5548   -0.7844 C.3       1 <0>        -0.1567
     21 C18         0.7638   -0.4984   -1.2222 C.3       1 <0>         0.1105
     22 H4          0.4161   -1.4912   -1.5079 H         1 <0>         0.0572
     23 O1          0.6020    0.4157   -2.3086 O.3       1 <0>        -0.5597
     24 O2         -0.4453    1.7731    7.0741 O.3       1 <0>        -0.4851
     25 O3         -3.1644    1.9949    7.3926 O.3       1 <0>        -0.4881
     26 H5          1.0033    1.9032   -0.0253 H         1 <0>         0.0544
     27 H6         -0.5698    1.8864   -0.8581 H         1 <0>         0.0612
     28 H7         -0.5043    1.8775    0.9207 H         1 <0>         0.0596
     29 H8         -2.0208   -0.2365   -0.6729 H         1 <0>         0.0689
     30 H9         -1.3861   -1.6190    0.2599 H         1 <0>         0.0636
     31 H10        -2.0370    1.1622    1.3603 H         1 <0>         0.0715
     32 H11        -2.9741   -0.3197    1.6488 H         1 <0>         0.0668
     33 H12        -3.6354    0.1363    3.3126 H         1 <0>         0.1312
     34 H13        -4.5714    1.1114    5.3633 H         1 <0>         0.1326
     35 H14         1.1369    1.7398    4.6144 H         1 <0>         0.0794
     36 H15         1.1694    0.3640    5.7358 H         1 <0>         0.0734
     37 H16         2.2411   -0.0486    3.4559 H         1 <0>         0.0727
     38 H17         0.9843   -1.2208    3.9307 H         1 <0>         0.0659
     39 H18         2.4719    0.8948    0.8425 H         1 <0>         0.0715
     40 H19         3.0181   -0.7634    1.2558 H         1 <0>         0.0668
     41 H20         2.8368    0.1573   -1.3634 H         1 <0>         0.0728
     42 H21         2.6410   -1.5627   -0.9205 H         1 <0>         0.0670
     43 H22         1.0651    0.1530   -3.1159 H         1 <0>         0.3751
     44 H23        -0.2263    1.0929    7.7255 H         1 <0>         0.3843
     45 H24        -3.3345    1.3466    8.0896 H         1 <0>         0.3863
@<TRIPOS>BOND
     1    1    2 1
     2    1   26 1
     3    1   27 1
     4    1   28 1
     5    2   17 1
     6    2   21 1
     7    2    3 1
     8    3    4 1
     9    3   29 1
    10    3   30 1
    11    4    5 1
    12    4   31 1
    13    4   32 1
    14    5    6 1
    15    5   15 1
    16    5    7 1
    17    7   12 ar
    18    7    8 ar
    19    8    9 ar
    20    8   33 1
    21    9   10 ar
    22    9   34 1
    23   10   11 ar
    24   10   25 1
    25   11   12 ar
    26   11   24 1
    27   12   13 1
    28   13   14 1
    29   13   35 1
    30   13   36 1
    31   14   15 1
    32   14   37 1
    33   14   38 1
    34   15   16 1
    35   15   17 1
    36   17   18 1
    37   17   19 1
    38   19   20 1
    39   19   39 1
    40   19   40 1
    41   20   21 1
    42   20   41 1
    43   20   42 1
    44   21   22 1
    45   21   23 1
    46   23   43 1
    47   24   44 1
    48   25   45 1
@<TRIPOS>MOLECULE
ZINC03815417
   50    53     0     0     0
SMALL
USER_CHARGES
17-ethynyl-11-methoxy-13-methyl-7,8,9,11,12,14,15,16-octahydro-6H-cyclopenta[a]phenanthrene-3,17-diol
@<TRIPOS>ATOM
      1 C1         -0.0981    3.4841   -0.7859 C.3       1 <0>        -0.1299
      2 C2          1.1667    3.0809   -0.0252 C.3       1 <0>        -0.0391
      3 C3          1.3088    3.9389    1.2143 C.3       1 <0>        -0.1231
      4 C4          1.2612    5.4130    0.7689 C.3       1 <0>         0.0982
      5 H1          1.3976    6.0552    1.6390 H         1 <0>         0.0632
      6 C5          2.3666    5.6925   -0.2389 C.3       1 <0>        -0.0405
      7 H2          3.3170    5.5091    0.2624 H         1 <0>         0.0863
      8 C6          2.3548    7.1214   -0.6995 C.ar      1 <0>        -0.0652
      9 C7          1.9755    8.1016    0.2077 C.ar      1 <0>        -0.0992
     10 C8          1.9562    9.4299   -0.1605 C.ar      1 <0>        -0.1465
     11 C9          2.3209    9.7903   -1.4498 C.ar      1 <0>         0.1023
     12 C10         2.6958    8.8129   -2.3551 C.ar      1 <0>        -0.1467
     13 C11         2.7089    7.4745   -1.9851 C.ar      1 <0>        -0.0549
     14 C12         3.1018    6.4649   -3.0313 C.3       1 <0>        -0.0812
     15 C13         3.4164    5.1078   -2.4032 C.3       1 <0>        -0.1135
     16 C14         2.2795    4.7495   -1.4459 C.3       1 <0>        -0.0736
     17 H3          1.3139    4.8683   -1.9373 H         1 <0>         0.0988
     18 C15         2.4139    3.3365   -0.9168 C.3       1 <0>        -0.0844
     19 H4          3.3298    3.2326   -0.3349 H         1 <0>         0.0771
     20 C16         2.2837    2.2158   -1.9544 C.3       1 <0>        -0.1103
     21 C17         1.8535    0.9930   -1.0951 C.3       1 <0>        -0.1442
     22 C18         1.1820    1.5703    0.1762 C.3       1 <0>         0.2492
     23 C19         1.9684    1.2229    1.3710 C.1       1 <0>        -0.2082
     24 C20         2.5956    0.9459    2.3240 C.1       1 <0>        -0.1842
     25 O1         -0.1521    1.0737    0.3007 O.3       1 <0>        -0.5391
     26 O2          2.3098   11.0972   -1.8222 O.3       1 <0>        -0.5007
     27 O3         -0.0049    5.6953    0.1693 O.3       1 <0>        -0.3612
     28 C21        -1.0030    6.1287    1.0957 C.3       1 <0>         0.0234
     29 H5         -0.9515    3.4649   -0.1081 H         1 <0>         0.0540
     30 H6          0.0245    4.4901   -1.1873 H         1 <0>         0.0955
     31 H7         -0.2684    2.7847   -1.6044 H         1 <0>         0.0445
     32 H8          0.4835    3.7403    1.8981 H         1 <0>         0.0690
     33 H9          2.2575    3.7237    1.7061 H         1 <0>         0.0732
     34 H10         1.6926    7.8207    1.2114 H         1 <0>         0.1202
     35 H11         1.6583   10.1861    0.5507 H         1 <0>         0.1259
     36 H12         2.9802    9.0936   -3.3584 H         1 <0>         0.1259
     37 H13         2.2824    6.3486   -3.7405 H         1 <0>         0.0787
     38 H14         3.9838    6.8249   -3.5611 H         1 <0>         0.0754
     39 H15         4.3557    5.1659   -1.8533 H         1 <0>         0.0651
     40 H16         3.4926    4.3504   -3.1834 H         1 <0>         0.0734
     41 H17         1.5178    2.4592   -2.6908 H         1 <0>         0.0764
     42 H18         3.2410    2.0269   -2.4401 H         1 <0>         0.0704
     43 H19         2.7266    0.4009   -0.8210 H         1 <0>         0.0719
     44 H20         1.1425    0.3786   -1.6475 H         1 <0>         0.0807
     45 H21         3.1566    0.6981    3.1763 H         1 <0>         0.2178
     46 H22        -0.2060    0.1145    0.4109 H         1 <0>         0.3770
     47 H23         1.4662   11.3942   -2.1901 H         1 <0>         0.3898
     48 H24        -1.1669    5.3521    1.8428 H         1 <0>         0.0400
     49 H25        -0.6695    7.0421    1.5882 H         1 <0>         0.0378
     50 H26        -1.9338    6.3223    0.5626 H         1 <0>         0.0842
@<TRIPOS>BOND
     1    1    2 1
     2    1   29 1
     3    1   30 1
     4    1   31 1
     5    2   18 1
     6    2   22 1
     7    2    3 1
     8    3    4 1
     9    3   32 1
    10    3   33 1
    11    4    5 1
    12    4    6 1
    13    4   27 1
    14    6    7 1
    15    6   16 1
    16    6    8 1
    17    8   13 ar
    18    8    9 ar
    19    9   10 ar
    20    9   34 1
    21   10   11 ar
    22   10   35 1
    23   11   12 ar
    24   11   26 1
    25   12   13 ar
    26   12   36 1
    27   13   14 1
    28   14   15 1
    29   14   37 1
    30   14   38 1
    31   15   16 1
    32   15   39 1
    33   15   40 1
    34   16   17 1
    35   16   18 1
    36   18   19 1
    37   18   20 1
    38   20   21 1
    39   20   41 1
    40   20   42 1
    41   21   22 1
    42   21   43 1
    43   21   44 1
    44   22   23 1
    45   22   25 1
    46   23   24 3
    47   24   45 1
    48   25   46 1
    49   26   47 1
    50   27   28 1
    51   28   48 1
    52   28   49 1
    53   28   50 1
@<TRIPOS>MOLECULE
ZINC00006787
   29    30     0     0     0
SMALL
USER_CHARGES

@<TRIPOS>ATOM
      1 C1         -0.0169    1.3936    0.0097 C.ar      1 <0>        -0.0880
      2 C2          1.1682    2.0965    0.0022 C.ar      1 <0>        -0.1444
      3 C3          2.3804    1.4185   -0.0131 C.ar      1 <0>         0.1088
      4 C4          2.4043    0.0297   -0.0212 C.ar      1 <0>        -0.1437
      5 C5          1.2244   -0.6820   -0.0142 C.ar      1 <0>        -0.0943
      6 C6          0.0021   -0.0041    0.0020 C.ar      1 <0>        -0.0701
      7 C7         -1.2624   -0.7604    0.0105 C.2       1 <0>        -0.0946
      8 C8         -1.2417   -2.1029    0.0031 C.2       1 <0>        -0.1125
      9 C9         -2.5067   -2.8595    0.0116 C.ar      1 <0>        -0.0208
     10 C10        -3.7282   -2.1821    0.0216 C.ar      1 <0>        -0.1505
     11 C11        -4.9138   -2.8974    0.0296 C.ar      1 <0>         0.1270
     12 C12        -4.8898   -4.2848    0.0277 C.ar      1 <0>        -0.1731
     13 C13        -3.6788   -4.9623    0.0183 C.ar      1 <0>         0.1263
     14 C14        -2.4878   -4.2561    0.0039 C.ar      1 <0>        -0.1438
     15 O1         -3.6617   -6.3213    0.0174 O.3       1 <0>        -0.4960
     16 O2         -6.1029   -2.2395    0.0398 O.3       1 <0>        -0.4960
     17 O3          3.5463    2.1158   -0.0204 O.3       1 <0>        -0.4996
     18 H1         -0.9588    1.9217    0.0260 H         1 <0>         0.1307
     19 H2          1.1546    3.1764    0.0077 H         1 <0>         0.1317
     20 H3          3.3492   -0.4932   -0.0334 H         1 <0>         0.1314
     21 H4          1.2440   -1.7618   -0.0209 H         1 <0>         0.1307
     22 H5         -2.2059   -0.2349    0.0227 H         1 <0>         0.1259
     23 H6         -0.2983   -2.6284   -0.0091 H         1 <0>         0.1276
     24 H7         -3.7479   -1.1023    0.0234 H         1 <0>         0.1351
     25 H8         -5.8166   -4.8392    0.0340 H         1 <0>         0.1362
     26 H9         -1.5459   -4.7843   -0.0083 H         1 <0>         0.1350
     27 H10        -3.6634   -6.7141   -0.8663 H         1 <0>         0.3942
     28 H11        -6.4539   -2.0477   -0.8406 H         1 <0>         0.3942
     29 H12         3.8923    2.3129    0.8608 H         1 <0>         0.3928
@<TRIPOS>BOND
     1    1    6 ar
     2    1    2 ar
     3    1   18 1
     4    2    3 ar
     5    2   19 1
     6    3    4 ar
     7    3   17 1
     8    4    5 ar
     9    4   20 1
    10    5    6 ar
    11    5   21 1
    12    6    7 1
    13    7    8 2
    14    7   22 1
    15    8    9 1
    16    8   23 1
    17    9   14 ar
    18    9   10 ar
    19   10   11 ar
    20   10   24 1
    21   11   12 ar
    22   11   16 1
    23   12   13 ar
    24   12   25 1
    25   13   14 ar
    26   13   15 1
    27   14   26 1
    28   15   27 1
    29   16   28 1
    30   17   29 1
@<TRIPOS>MOLECULE
ZINC13831249
   63    67     0     0     0
SMALL
USER_CHARGES

@<TRIPOS>ATOM
      1 C1          0.8679    1.8818   -1.8452 C.3       1 <0>        -0.1843
      2 C2          0.7962    0.3774   -1.5761 C.3       1 <0>         0.0225
      3 C3          1.6242    0.0414   -0.3342 C.3       1 <0>        -0.1845
      4 N1         -0.6021   -0.0140   -1.3529 N.4       1 <0>        -0.3808
      5 C4         -0.6679   -1.4560   -1.0841 C.3       1 <0>        -0.0279
      6 C5         -2.1091   -1.8448   -0.7385 C.3       1 <0>         0.0966
      7 N2         -2.9886   -1.3892   -1.8261 N.pl3     1 <0>        -0.6384
      8 C6         -2.8725    0.0078   -2.2724 C.3       1 <0>         0.0976
      9 C7         -1.3952    0.3092   -2.5456 C.3       1 <0>        -0.0273
     10 C8         -3.9038   -2.2548   -2.4160 C.ar      1 <0>         0.2334
     11 C9         -3.9216   -3.5989   -2.0540 C.ar      1 <0>        -0.2008
     12 C10        -4.8262   -4.4577   -2.6356 C.ar      1 <0>        -0.0077
     13 C11        -5.7277   -3.9791   -3.5907 C.ar      1 <0>        -0.1995
     14 C12        -5.7073   -2.6288   -3.9521 C.ar      1 <0>        -0.0104
     15 C13        -4.8039   -1.7739   -3.3631 C.ar      1 <0>        -0.2000
     16 C14        -6.6990   -4.8977   -4.2169 C.2       1 <0>         0.4627
     17 O1         -6.7868   -6.0488   -3.8279 O.2       1 <0>        -0.4356
     18 C15        -7.5561   -4.4257   -5.3046 C.2       1 <0>        -0.1612
     19 C16        -8.8969   -3.8999   -5.0359 C.ar      1 <0>        -0.0745
     20 C17        -9.5483   -3.7653   -3.7890 C.ar      1 <0>        -0.0603
     21 C18       -10.8155   -3.2502   -3.7119 C.ar      1 <0>        -0.1366
     22 C19       -11.4994   -2.8441   -4.8543 C.ar      1 <0>         0.1381
     23 C20       -10.8864   -2.9634   -6.0911 C.ar      1 <0>        -0.1013
     24 C21        -9.6111   -3.4817   -6.1744 C.ar      1 <0>        -0.1019
     25 S1         -8.5062   -3.7929   -7.5275 S.3       1 <0>         0.0940
     26 C22        -7.1219   -4.4568   -6.6233 C.2       1 <0>        -0.0538
     27 C23        -5.8274   -4.9275   -7.1489 C.ar      1 <0>        -0.0403
     28 C24        -5.2988   -6.1486   -6.7200 C.ar      1 <0>        -0.0723
     29 C25        -4.0890   -6.5844   -7.2137 C.ar      1 <0>        -0.1391
     30 C26        -3.3939   -5.8121   -8.1364 C.ar      1 <0>         0.1254
     31 C27        -3.9153   -4.5976   -8.5653 C.ar      1 <0>        -0.1474
     32 C28        -5.1276   -4.1569   -8.0821 C.ar      1 <0>        -0.0737
     33 O2         -2.2014   -6.2455   -8.6202 O.3       1 <0>        -0.4992
     34 O3        -12.7564   -2.3359   -4.7575 O.3       1 <0>        -0.4891
     35 H1          1.9054    2.1722   -2.0108 H         1 <0>         0.1072
     36 H2          0.2780    2.1212   -2.7300 H         1 <0>         0.0818
     37 H3          0.4715    2.4239   -0.9867 H         1 <0>         0.0820
     38 H4          1.1925   -0.1646   -2.4346 H         1 <0>         0.1361
     39 H5          1.5731   -1.0303   -0.1424 H         1 <0>         0.0821
     40 H6          2.6617    0.3318   -0.4998 H         1 <0>         0.1072
     41 H7          1.2279    0.5835    0.5244 H         1 <0>         0.0820
     42 H8         -0.3452   -2.0056   -1.9683 H         1 <0>         0.1334
     43 H9         -0.0148   -1.6997   -0.2461 H         1 <0>         0.1446
     44 H10        -2.1822   -2.9277   -0.6376 H         1 <0>         0.1294
     45 H11        -2.4036   -1.3664    0.1956 H         1 <0>         0.0913
     46 H12        -3.4503    0.1497   -3.1857 H         1 <0>         0.1285
     47 H13        -3.2441    0.6733   -1.4932 H         1 <0>         0.0908
     48 H14        -1.2781    1.3662   -2.7846 H         1 <0>         0.1443
     49 H15        -1.0506   -0.2939   -3.3856 H         1 <0>         0.1334
     50 H16        -3.2247   -3.9682   -1.3163 H         1 <0>         0.1308
     51 H17        -4.8393   -5.5004   -2.3546 H         1 <0>         0.1398
     52 H18        -6.4023   -2.2561   -4.6900 H         1 <0>         0.1333
     53 H19        -4.7903   -0.7298   -3.6388 H         1 <0>         0.1301
     54 H20        -9.0413   -4.0724   -2.8862 H         1 <0>         0.1279
     55 H21       -11.2926   -3.1580   -2.7474 H         1 <0>         0.1393
     56 H22       -11.4052   -2.6527   -6.9859 H         1 <0>         0.1428
     57 H23        -5.8380   -6.7491   -6.0023 H         1 <0>         0.1347
     58 H24        -3.6799   -7.5276   -6.8829 H         1 <0>         0.1372
     59 H25        -3.3713   -4.0003   -9.2821 H         1 <0>         0.1365
     60 H26        -5.5345   -3.2153   -8.4199 H         1 <0>         0.1338
     61 H27        -2.2667   -6.7200   -9.4603 H         1 <0>         0.3986
     62 H28       -12.7849   -1.3763   -4.6413 H         1 <0>         0.3978
     63 H29        -0.9688    0.4906   -0.5598 H         1 <0>         0.4205
@<TRIPOS>BOND
     1    1    2 1
     2    1   35 1
     3    1   36 1
     4    1   37 1
     5    2    3 1
     6    2    4 1
     7    2   38 1
     8    3   39 1
     9    3   40 1
    10    3   41 1
    11    4    9 1
    12    4    5 1
    13    4   63 1
    14    5    6 1
    15    5   42 1
    16    5   43 1
    17    6    7 1
    18    6   44 1
    19    6   45 1
    20    7    8 1
    21    7   10 1
    22    8    9 1
    23    8   46 1
    24    8   47 1
    25    9   48 1
    26    9   49 1
    27   10   15 ar
    28   10   11 ar
    29   11   12 ar
    30   11   50 1
    31   12   13 ar
    32   12   51 1
    33   13   14 ar
    34   13   16 1
    35   14   15 ar
    36   14   52 1
    37   15   53 1
    38   16   17 2
    39   16   18 1
    40   18   26 2
    41   18   19 1
    42   19   24 ar
    43   19   20 ar
    44   20   21 ar
    45   20   54 1
    46   21   22 ar
    47   21   55 1
    48   22   23 ar
    49   22   34 1
    50   23   24 ar
    51   23   56 1
    52   24   25 1
    53   25   26 1
    54   26   27 1
    55   27   32 ar
    56   27   28 ar
    57   28   29 ar
    58   28   57 1
    59   29   30 ar
    60   29   58 1
    61   30   31 ar
    62   30   33 1
    63   31   32 ar
    64   31   59 1
    65   32   60 1
    66   33   61 1
    67   34   62 1
@<TRIPOS>MOLECULE
ZINC13831249
   62    66     0     0     0
SMALL
USER_CHARGES

@<TRIPOS>ATOM
      1 C1          1.4239    0.4537    0.5463 C.3       1 <0>        -0.1468
      2 C2          1.2759   -1.0654    0.6529 C.3       1 <0>         0.0762
      3 C3          1.7494   -1.5284    2.0321 C.3       1 <0>        -0.1880
      4 N1         -0.1344   -1.4340    0.4701 N.3       1 <0>        -0.5300
      5 C4         -0.9775   -0.8187    1.5037 C.3       1 <0>         0.0325
      6 C5         -2.4520   -1.0762    1.1754 C.3       1 <0>         0.1201
      7 N2         -2.6449   -2.5232    0.9956 N.pl3     1 <0>        -0.6185
      8 C6         -1.7450   -3.2362    0.0763 C.3       1 <0>         0.1214
      9 C7         -0.2984   -2.8936    0.4479 C.3       1 <0>         0.0376
     10 C8         -3.6513   -3.1994    1.6772 C.ar      1 <0>         0.2597
     11 C9         -4.4213   -2.5286    2.6234 C.ar      1 <0>        -0.2170
     12 C10        -5.4180   -3.1948    3.2991 C.ar      1 <0>        -0.0031
     13 C11        -5.6569   -4.5465    3.0346 C.ar      1 <0>        -0.2300
     14 C12        -4.8819   -5.2173    2.0840 C.ar      1 <0>        -0.0076
     15 C13        -3.8902   -4.5442    1.4078 C.ar      1 <0>        -0.2160
     16 C14        -6.7250   -5.2643    3.7581 C.2       1 <0>         0.4653
     17 O1         -7.4670   -4.6561    4.5088 O.2       1 <0>        -0.4497
     18 C15        -6.8923   -6.7060    3.5735 C.2       1 <0>        -0.1526
     19 C16        -7.8203   -7.2366    2.5717 C.ar      1 <0>        -0.0717
     20 C17        -8.6489   -6.5170    1.6812 C.ar      1 <0>        -0.0569
     21 C18        -9.4667   -7.1729    0.7992 C.ar      1 <0>        -0.1383
     22 C19        -9.5074   -8.5635    0.7514 C.ar      1 <0>         0.1340
     23 C20        -8.7060   -9.2964    1.6118 C.ar      1 <0>        -0.1024
     24 C21        -7.8813   -8.6410    2.5020 C.ar      1 <0>        -0.1018
     25 S1         -6.7338   -9.1945    3.7372 S.3       1 <0>         0.0833
     26 C22        -6.1722   -7.6141    4.3385 C.2       1 <0>        -0.0552
     27 C23        -5.1822   -7.3372    5.3953 C.ar      1 <0>        -0.0370
     28 C24        -5.4613   -6.3923    6.3872 C.ar      1 <0>        -0.0714
     29 C25        -4.5333   -6.1368    7.3725 C.ar      1 <0>        -0.1390
     30 C26        -3.3212   -6.8162    7.3814 C.ar      1 <0>         0.1233
     31 C27        -3.0393   -7.7558    6.3973 C.ar      1 <0>        -0.1467
     32 C28        -3.9640   -8.0227    5.4119 C.ar      1 <0>        -0.0736
     33 O2         -2.4092   -6.5607    8.3545 O.3       1 <0>        -0.4976
     34 O3        -10.3257   -9.1963   -0.1305 O.3       1 <0>        -0.4909
     35 H1          2.4703    0.7272    0.6819 H         1 <0>         0.0614
     36 H2          1.0866    0.7836   -0.4363 H         1 <0>         0.0646
     37 H3          0.8203    0.9326    1.3173 H         1 <0>         0.0561
     38 H4          1.8794   -1.5443   -0.1182 H         1 <0>         0.0847
     39 H5          2.7957   -1.2549    2.1677 H         1 <0>         0.0636
     40 H6          1.1458   -1.0496    2.8031 H         1 <0>         0.0576
     41 H7          1.6439   -2.6106    2.1080 H         1 <0>         0.0553
     42 H8         -0.7395   -1.2543    2.4741 H         1 <0>         0.0429
     43 H9         -0.7933    0.2553    1.5316 H         1 <0>         0.0914
     44 H10        -3.0769   -0.7226    1.9955 H         1 <0>         0.0891
     45 H11        -2.7191   -0.5542    0.2565 H         1 <0>         0.0745
     46 H12        -1.9024   -4.3107    0.1698 H         1 <0>         0.0885
     47 H13        -1.9441   -2.9218   -0.9482 H         1 <0>         0.0742
     48 H14         0.3785   -3.3245   -0.2900 H         1 <0>         0.0869
     49 H15        -0.0698   -3.3003    1.4330 H         1 <0>         0.0424
     50 H16        -4.2360   -1.4844    2.8275 H         1 <0>         0.1294
     51 H17        -6.0148   -2.6739    4.0332 H         1 <0>         0.1322
     52 H18        -5.0638   -6.2617    1.8778 H         1 <0>         0.1247
     53 H19        -3.2938   -5.0608    0.6703 H         1 <0>         0.1283
     54 H20        -8.6376   -5.4371    1.6965 H         1 <0>         0.1298
     55 H21       -10.0912   -6.6008    0.1291 H         1 <0>         0.1382
     56 H22        -8.7275  -10.3759    1.5861 H         1 <0>         0.1407
     57 H23        -6.4028   -5.8633    6.3806 H         1 <0>         0.1350
     58 H24        -4.7480   -5.4070    8.1392 H         1 <0>         0.1362
     59 H25        -2.0956   -8.2810    6.4078 H         1 <0>         0.1359
     60 H26        -3.7462   -8.7570    4.6504 H         1 <0>         0.1334
     61 H27        -2.4552   -7.1677    9.1058 H         1 <0>         0.3949
     62 H28        -9.9156   -9.3777   -0.9873 H         1 <0>         0.3962
@<TRIPOS>BOND
     1    1    2 1
     2    1   35 1
     3    1   36 1
     4    1   37 1
     5    2    3 1
     6    2    4 1
     7    2   38 1
     8    3   39 1
     9    3   40 1
    10    3   41 1
    11    4    9 1
    12    4    5 1
    13    5    6 1
    14    5   42 1
    15    5   43 1
    16    6    7 1
    17    6   44 1
    18    6   45 1
    19    7    8 1
    20    7   10 1
    21    8    9 1
    22    8   46 1
    23    8   47 1
    24    9   48 1
    25    9   49 1
    26   10   15 ar
    27   10   11 ar
    28   11   12 ar
    29   11   50 1
    30   12   13 ar
    31   12   51 1
    32   13   14 ar
    33   13   16 1
    34   14   15 ar
    35   14   52 1
    36   15   53 1
    37   16   17 2
    38   16   18 1
    39   18   26 2
    40   18   19 1
    41   19   24 ar
    42   19   20 ar
    43   20   21 ar
    44   20   54 1
    45   21   22 ar
    46   21   55 1
    47   22   23 ar
    48   22   34 1
    49   23   24 ar
    50   23   56 1
    51   24   25 1
    52   25   26 1
    53   26   27 1
    54   27   32 ar
    55   27   28 ar
    56   28   29 ar
    57   28   57 1
    58   29   30 ar
    59   29   58 1
    60   30   31 ar
    61   30   33 1
    62   31   32 ar
    63   31   59 1
    64   32   60 1
    65   33   61 1
    66   34   62 1
@<TRIPOS>MOLECULE
ZINC13583640
   26    28     0     0     0
SMALL
USER_CHARGES
7-bromo-2-(3-fluoro-4-hydroxy-phenyl)-1,3-benzoxazol-5-ol
@<TRIPOS>ATOM
      1 C1         -1.1370    3.5650    0.0323 C.ar      1 <0>        -0.0528
      2 C2         -2.2789    4.3375    0.0372 C.ar      1 <0>        -0.1192
      3 C3         -3.5286    3.7332    0.0405 C.ar      1 <0>         0.1073
      4 C4         -3.6343    2.3458    0.0336 C.ar      1 <0>         0.0748
      5 C5         -2.4963    1.5665    0.0233 C.ar      1 <0>        -0.1006
      6 C6         -1.2376    2.1725    0.0199 C.ar      1 <0>        -0.0167
      7 C7         -0.0162    1.3422    0.0094 C.2       1 <0>         0.3053
      8 N1          1.2080    1.8073    0.0002 N.2       1 <0>        -0.4588
      9 C8          2.0728    0.7604   -0.0136 C.ar      1 <0>         0.0524
     10 C9          3.4665    0.6624   -0.0275 C.ar      1 <0>        -0.0717
     11 C10         4.0649   -0.5825   -0.0399 C.ar      1 <0>         0.1185
     12 C11         3.2865   -1.7359   -0.0382 C.ar      1 <0>        -0.0840
     13 C12         1.9093   -1.6497   -0.0254 C.ar      1 <0>        -0.0528
     14 C13         1.2933   -0.4071   -0.0125 C.ar      1 <0>         0.0261
     15 O1          0.0021   -0.0041    0.0020 O.3       1 <0>        -0.1938
     16 Br1         0.8628   -3.2247   -0.0233 Br        1 <0>        -0.0172
     17 O2          5.4209   -0.6813   -0.0534 O.3       1 <0>        -0.4840
     18 F1         -4.8525    1.7617    0.0373 F         1 <0>        -0.1234
     19 O3         -4.6511    4.4982    0.0511 O.3       1 <0>        -0.4842
     20 H1         -0.1655    4.0367    0.0342 H         1 <0>         0.1546
     21 H2         -2.2010    5.4146    0.0427 H         1 <0>         0.1543
     22 H3         -2.5782    0.4896    0.0175 H         1 <0>         0.1526
     23 H4          4.0732    1.5559   -0.0288 H         1 <0>         0.1535
     24 H5          3.7634   -2.7049   -0.0472 H         1 <0>         0.1597
     25 H6          5.8216   -0.7146    0.8261 H         1 <0>         0.3994
     26 H7         -4.9711    4.7149    0.9375 H         1 <0>         0.4008
@<TRIPOS>BOND
     1    1    6 ar
     2    1    2 ar
     3    1   20 1
     4    2    3 ar
     5    2   21 1
     6    3    4 ar
     7    3   19 1
     8    4    5 ar
     9    4   18 1
    10    5    6 ar
    11    5   22 1
    12    6    7 1
    13    7   15 1
    14    7    8 2
    15    8    9 1
    16    9   14 ar
    17    9   10 ar
    18   10   11 ar
    19   10   23 1
    20   11   12 ar
    21   11   17 1
    22   12   13 ar
    23   12   24 1
    24   13   14 ar
    25   13   16 1
    26   14   15 1
    27   17   25 1
    28   19   26 1
@<TRIPOS>MOLECULE
ZINC00009308
   26    28     0     0     0
SMALL
USER_CHARGES

@<TRIPOS>ATOM
      1 C1          5.3638    4.6176   -0.0274 C.ar      1 <0>        -0.0418
      2 C2          6.7413    4.6465   -0.0341 C.ar      1 <0>        -0.1497
      3 C3          7.4628    3.4594   -0.0463 C.ar      1 <0>         0.1396
      4 C4          6.7993    2.2388   -0.0464 C.ar      1 <0>        -0.1489
      5 C5          5.4220    2.2014   -0.0344 C.ar      1 <0>        -0.0594
      6 C6          4.6930    3.3926   -0.0221 C.ar      1 <0>        -0.0501
      7 C7          3.2165    3.3570   -0.0098 C.2       1 <0>         0.3105
      8 N1          2.4401    4.4115    0.0025 N.2       1 <0>        -0.4671
      9 C8          1.1457    4.0007    0.0121 C.ar      1 <0>         0.0540
     10 C9         -0.0786    4.6737    0.0265 C.ar      1 <0>        -0.0739
     11 C10        -1.2563    3.9521    0.0335 C.ar      1 <0>         0.1182
     12 C11        -1.2276    2.5608    0.0218 C.ar      1 <0>        -0.0869
     13 C12        -0.0236    1.8867    0.0124 C.ar      1 <0>        -0.0516
     14 C13         1.1678    2.5970    0.0049 C.ar      1 <0>         0.0228
     15 O1          2.4713    2.2357   -0.0087 O.3       1 <0>        -0.1951
     16 Br1         0.0021   -0.0041    0.0020 Br        1 <0>        -0.0189
     17 O2         -2.4493    4.6041    0.0475 O.3       1 <0>        -0.4844
     18 O3          8.8204    3.4921   -0.0586 O.3       1 <0>        -0.4964
     19 H1          4.8036    5.5409   -0.0225 H         1 <0>         0.1465
     20 H2          7.2609    5.5933   -0.0337 H         1 <0>         0.1426
     21 H3          7.3637    1.3181   -0.0563 H         1 <0>         0.1413
     22 H4          4.9069    1.2521   -0.0349 H         1 <0>         0.1399
     23 H5         -0.1040    5.7534    0.0326 H         1 <0>         0.1524
     24 H6         -2.1536    2.0051    0.0235 H         1 <0>         0.1589
     25 H7         -2.8024    4.7972   -0.8318 H         1 <0>         0.3988
     26 H8          9.2054    3.5061   -0.9455 H         1 <0>         0.3987
@<TRIPOS>BOND
     1    1    6 ar
     2    1    2 ar
     3    1   19 1
     4    2    3 ar
     5    2   20 1
     6    3    4 ar
     7    3   18 1
     8    4    5 ar
     9    4   21 1
    10    5    6 ar
    11    5   22 1
    12    6    7 1
    13    7   15 1
    14    7    8 2
    15    8    9 1
    16    9   14 ar
    17    9   10 ar
    18   10   11 ar
    19   10   23 1
    20   11   12 ar
    21   11   17 1
    22   12   13 ar
    23   12   24 1
    24   13   14 ar
    25   13   16 1
    26   14   15 1
    27   17   25 1
    28   18   26 1
@<TRIPOS>MOLECULE
ZINC13584996
   41    44     0     0     0
SMALL
USER_CHARGES

@<TRIPOS>ATOM
      1 C1         -0.1139    1.1898   -0.2410 C.ar      1 <0>        -0.0984
      2 C2          0.3912    0.7549    0.9711 C.ar      1 <0>        -0.1193
      3 C3          1.6210    0.1311    1.0253 C.ar      1 <0>        -0.0781
      4 C4          2.3544   -0.0605   -0.1444 C.ar      1 <0>        -0.0339
      5 C5          1.8405    0.3798   -1.3629 C.ar      1 <0>        -0.0812
      6 C6          0.6095    1.0023   -1.4051 C.ar      1 <0>        -0.1205
      7 C7          3.6767   -0.7297   -0.0926 C.2       1 <0>         0.1791
      8 C8          3.9960   -1.8601    0.6837 C.2       1 <0>        -0.1254
      9 C9          5.3396   -2.1636    0.4389 C.2       1 <0>         0.2565
     10 N1          6.1463   -3.1231    0.9048 N.2       1 <0>        -0.3636
     11 C10         7.3976   -3.1995    0.5141 C.2       1 <0>         0.1116
     12 C11         7.9089   -2.2699   -0.4024 C.2       1 <0>        -0.1291
     13 C12         7.1004   -1.2928   -0.8816 C.2       1 <0>         0.1081
     14 N2          5.8028   -1.2364   -0.4592 N.pl3     1 <0>        -0.2910
     15 N3          4.7500   -0.3690   -0.7708 N.2       1 <0>        -0.2598
     16 C13         7.6268   -0.2817   -1.8673 C.3       1 <0>         0.5274
     17 F1          8.9725   -0.5515   -2.1383 F         1 <0>        -0.1529
     18 F2          6.8880   -0.3577   -3.0528 F         1 <0>        -0.1523
     19 F3          7.5086    1.0028   -1.3257 F         1 <0>        -0.1520
     20 C14         8.2873   -4.2898    1.0532 C.3       1 <0>         0.5324
     21 F4          7.5605   -5.0871    1.9438 F         1 <0>        -0.1496
     22 F5          8.7528   -5.0778   -0.0049 F         1 <0>        -0.1577
     23 F6          9.3747   -3.7166    1.7213 F         1 <0>        -0.1578
     24 C15         3.0812   -2.5905    1.5903 C.ar      1 <0>        -0.0223
     25 C16         3.3044   -2.5783    2.9675 C.ar      1 <0>        -0.0776
     26 C17         2.4497   -3.2595    3.8087 C.ar      1 <0>        -0.1420
     27 C18         1.3686   -3.9565    3.2869 C.ar      1 <0>         0.1151
     28 C19         1.1433   -3.9709    1.9173 C.ar      1 <0>        -0.1415
     29 C20         1.9904   -3.2878    1.0700 C.ar      1 <0>        -0.0754
     30 O1          0.5287   -4.6270    4.1192 O.3       1 <0>        -0.4988
     31 H1         -1.0788    1.6735   -0.2793 H         1 <0>         0.1283
     32 H2         -0.1778    0.9042    1.8768 H         1 <0>         0.1302
     33 H3          2.0146   -0.2077    1.9722 H         1 <0>         0.1281
     34 H4          2.4046    0.2343   -2.2723 H         1 <0>         0.1282
     35 H5          0.2101    1.3435   -2.3487 H         1 <0>         0.1303
     36 H6          8.9381   -2.3315   -0.7238 H         1 <0>         0.1956
     37 H7          4.1455   -2.0366    3.3742 H         1 <0>         0.1253
     38 H8          2.6220   -3.2509    4.8748 H         1 <0>         0.1327
     39 H9          0.3011   -4.5143    1.5149 H         1 <0>         0.1325
     40 H10         1.8119   -3.2957    0.0049 H         1 <0>         0.1264
     41 H11        -0.2166   -4.0983    4.4354 H         1 <0>         0.3926
@<TRIPOS>BOND
     1    1    6 ar
     2    1    2 ar
     3    1   31 1
     4    2    3 ar
     5    2   32 1
     6    3    4 ar
     7    3   33 1
     8    4    5 ar
     9    4    7 1
    10    5    6 ar
    11    5   34 1
    12    6   35 1
    13    7   15 2
    14    7    8 1
    15    8    9 2
    16    8   24 1
    17    9   14 1
    18    9   10 1
    19   10   11 2
    20   11   12 1
    21   11   20 1
    22   12   13 2
    23   12   36 1
    24   13   14 1
    25   13   16 1
    26   14   15 1
    27   16   17 1
    28   16   18 1
    29   16   19 1
    30   20   21 1
    31   20   22 1
    32   20   23 1
    33   24   29 ar
    34   24   25 ar
    35   25   26 ar
    36   25   37 1
    37   26   27 ar
    38   26   38 1
    39   27   28 ar
    40   27   30 1
    41   28   29 ar
    42   28   39 1
    43   29   40 1
    44   30   41 1
@<TRIPOS>MOLECULE
ZINC00123397
   37    40     0     0     0
SMALL
USER_CHARGES
(2-oxo-4-phenyl-chromen-7-yl) furan-2-carboxylate
@<TRIPOS>ATOM
      1 C1         -9.6781    4.1744    0.4295 C.ar      1 <0>        -0.1018
      2 C2         -9.4134    5.2046    1.3144 C.ar      1 <0>        -0.1170
      3 C3         -8.2154    5.8853    1.2467 C.ar      1 <0>        -0.0894
      4 C4         -7.2696    5.5330    0.2826 C.ar      1 <0>        -0.0744
      5 C5         -7.5455    4.4969   -0.6109 C.ar      1 <0>        -0.0975
      6 C6         -8.7446    3.8198   -0.5283 C.ar      1 <0>        -0.1181
      7 C7         -5.9827    6.2587    0.2043 C.2       1 <0>         0.0742
      8 C8         -5.9436    7.6397    0.1722 C.2       1 <0>        -0.2364
      9 C9         -4.7029    8.2956    0.0972 C.2       1 <0>         0.5125
     10 O1         -4.6775    9.5135    0.0693 O.2       1 <0>        -0.4557
     11 O2         -3.5452    7.6177    0.0559 O.3       1 <0>        -0.2688
     12 C10        -3.5070    6.2682    0.0835 C.ar      1 <0>         0.1687
     13 C11        -4.7024    5.5326    0.1576 C.ar      1 <0>        -0.1411
     14 C12        -4.6663    4.1368    0.1869 C.ar      1 <0>        -0.0410
     15 C13        -3.4657    3.4873    0.1380 C.ar      1 <0>        -0.1345
     16 C14        -2.2767    4.2092    0.0698 C.ar      1 <0>         0.1420
     17 C15        -2.2955    5.5943    0.0400 C.ar      1 <0>        -0.1344
     18 O3         -1.0901    3.5505    0.0267 O.3       1 <0>        -0.2828
     19 C16        -0.3503    3.5037    1.1541 C.2       1 <0>         0.5560
     20 O4         -0.7081    4.1161    2.1422 O.2       1 <0>        -0.4617
     21 C17         0.8836    2.7156    1.1879 C.2       1 <0>        -0.0741
     22 C18         1.7225    2.5826    2.2585 C.2       1 <0>        -0.0914
     23 C19         2.7670    1.7395    1.8499 C.2       1 <0>        -0.2285
     24 C20         2.5239    1.3987    0.5646 C.2       1 <0>         0.0192
     25 O5          1.3885    1.9886    0.1694 O.3       1 <0>        -0.1502
     26 H1        -10.6174    3.6444    0.4870 H         1 <0>         0.1285
     27 H2        -10.1460    5.4762    2.0599 H         1 <0>         0.1309
     28 H3         -8.0096    6.6888    1.9384 H         1 <0>         0.1302
     29 H4         -6.8198    4.2227   -1.3624 H         1 <0>         0.1302
     30 H5         -8.9572    3.0145   -1.2158 H         1 <0>         0.1310
     31 H6         -6.8597    8.2107    0.2049 H         1 <0>         0.1690
     32 H7         -5.5854    3.5724    0.2438 H         1 <0>         0.1526
     33 H8         -3.4380    2.4078    0.1565 H         1 <0>         0.1483
     34 H9         -1.3697    6.1475   -0.0174 H         1 <0>         0.1535
     35 H10         1.6046    3.0384    3.2304 H         1 <0>         0.1679
     36 H11         3.6075    1.4227    2.4496 H         1 <0>         0.1653
     37 H12         3.1432    0.7558   -0.0433 H         1 <0>         0.2187
@<TRIPOS>BOND
     1    1    6 ar
     2    1    2 ar
     3    1   26 1
     4    2    3 ar
     5    2   27 1
     6    3    4 ar
     7    3   28 1
     8    4    5 ar
     9    4    7 1
    10    5    6 ar
    11    5   29 1
    12    6   30 1
    13    7   13 1
    14    7    8 2
    15    8    9 1
    16    8   31 1
    17    9   10 2
    18    9   11 1
    19   11   12 1
    20   12   17 ar
    21   12   13 ar
    22   13   14 ar
    23   14   15 ar
    24   14   32 1
    25   15   16 ar
    26   15   33 1
    27   16   17 ar
    28   16   18 1
    29   17   34 1
    30   18   19 1
    31   19   20 2
    32   19   21 1
    33   21   25 1
    34   21   22 2
    35   22   23 1
    36   22   35 1
    37   23   24 2
    38   23   36 1
    39   24   25 1
    40   24   37 1
@<TRIPOS>MOLECULE
ZINC02581709
   41    44     0     0     0
SMALL
USER_CHARGES
4-benzyl-3-(4-chlorophenyl)-7-hydroxy-chromen-2-one
@<TRIPOS>ATOM
      1 C1         -2.6150    6.9600    4.0893 C.ar      1 <0>        -0.1162
      2 C2         -1.8341    7.8933    3.4337 C.ar      1 <0>        -0.1158
      3 C3         -1.4453    7.6729    2.1256 C.ar      1 <0>        -0.1072
      4 C4         -1.8379    6.5192    1.4729 C.ar      1 <0>        -0.0837
      5 C5         -2.6236    5.5886    2.1267 C.ar      1 <0>        -0.1143
      6 C6         -3.0080    5.8066    3.4365 C.ar      1 <0>        -0.1175
      7 C7         -1.4145    6.2791    0.0467 C.3       1 <0>        -0.0594
      8 C8         -0.1011    5.5404    0.0303 C.2       1 <0>         0.0486
      9 C9         -0.0713    4.1223    0.0239 C.ar      1 <0>        -0.1524
     10 C10        -1.2692    3.3917    0.0315 C.ar      1 <0>        -0.0405
     11 C11        -1.2355    2.0287    0.0189 C.ar      1 <0>        -0.1633
     12 C12        -0.0163    1.3533    0.0095 C.ar      1 <0>         0.1718
     13 C13         1.1763    2.0570    0.0019 C.ar      1 <0>        -0.1655
     14 C14         1.1615    3.4450    0.0090 C.ar      1 <0>         0.1678
     15 O1          2.3250    4.1315    0.0011 O.3       1 <0>        -0.2632
     16 C15         2.3407    5.4752    0.0062 C.2       1 <0>         0.5160
     17 O2          3.4029    6.0697   -0.0012 O.2       1 <0>        -0.4417
     18 C16         1.0833    6.2267    0.0216 C.2       1 <0>        -0.1764
     19 C17         1.0933    7.7084    0.0274 C.ar      1 <0>        -0.0224
     20 C18         0.5831    8.4159   -1.0608 C.ar      1 <0>        -0.0936
     21 C19         0.5906    9.7955   -1.0481 C.ar      1 <0>        -0.1078
     22 C20         1.1130   10.4775    0.0377 C.ar      1 <0>        -0.0283
     23 C21         1.6256    9.7801    1.1184 C.ar      1 <0>        -0.1075
     24 C22         1.6183    8.4004    1.1184 C.ar      1 <0>        -0.0766
     25 Cl1         1.1248   12.2135    0.0444 Cl        1 <0>        -0.0648
     26 O3          0.0021   -0.0041    0.0020 O.3       1 <0>        -0.4900
     27 H1         -2.9184    7.1321    5.1114 H         1 <0>         0.1230
     28 H2         -1.5273    8.7946    3.9436 H         1 <0>         0.1235
     29 H3         -0.8352    8.4020    1.6133 H         1 <0>         0.1239
     30 H4         -2.9340    4.6894    1.6154 H         1 <0>         0.1214
     31 H5         -3.6185    5.0776    3.9486 H         1 <0>         0.1237
     32 H6         -1.3001    7.2351   -0.4642 H         1 <0>         0.1021
     33 H7         -2.1726    5.6836   -0.4620 H         1 <0>         0.0968
     34 H8         -2.2174    3.9086    0.0426 H         1 <0>         0.1456
     35 H9         -2.1592    1.4689    0.0207 H         1 <0>         0.1443
     36 H10         2.1169    1.5264   -0.0092 H         1 <0>         0.1522
     37 H11         0.1795    7.8848   -1.9101 H         1 <0>         0.1353
     38 H12         0.1917   10.3444   -1.8883 H         1 <0>         0.1388
     39 H13         2.0323   10.3170    1.9626 H         1 <0>         0.1383
     40 H14         2.0187    7.8573    1.9617 H         1 <0>         0.1320
     41 H15         0.0158   -0.4021    0.8832 H         1 <0>         0.4029
@<TRIPOS>BOND
     1    1    6 ar
     2    1    2 ar
     3    1   27 1
     4    2    3 ar
     5    2   28 1
     6    3    4 ar
     7    3   29 1
     8    4    5 ar
     9    4    7 1
    10    5    6 ar
    11    5   30 1
    12    6   31 1
    13    7    8 1
    14    7   32 1
    15    7   33 1
    16    8   18 2
    17    8    9 1
    18    9   14 ar
    19    9   10 ar
    20   10   11 ar
    21   10   34 1
    22   11   12 ar
    23   11   35 1
    24   12   13 ar
    25   12   26 1
    26   13   14 ar
    27   13   36 1
    28   14   15 1
    29   15   16 1
    30   16   17 2
    31   16   18 1
    32   18   19 1
    33   19   24 ar
    34   19   20 ar
    35   20   21 ar
    36   20   37 1
    37   21   22 ar
    38   21   38 1
    39   22   23 ar
    40   22   25 1
    41   23   24 ar
    42   23   39 1
    43   24   40 1
    44   26   41 1
@<TRIPOS>MOLECULE
ZINC01671629
   29    31     0     0     0
SMALL
USER_CHARGES
4-(2-naphthyl)phenol
@<TRIPOS>ATOM
      1 C1          2.3798    1.4246   -0.0130 C.ar      1 <0>        -0.1155
      2 C2          1.1562    2.0916    0.0023 C.ar      1 <0>        -0.1148
      3 C3         -0.0170    1.4021    0.0098 C.ar      1 <0>        -0.1067
      4 C4          0.0021   -0.0041    0.0020 C.ar      1 <0>        -0.0486
      5 C5         -1.1891   -0.7463    0.0089 C.ar      1 <0>        -0.0973
      6 C6         -1.1298   -2.1272    0.0005 C.ar      1 <0>        -0.0409
      7 C7          0.1090   -2.7888   -0.0152 C.ar      1 <0>        -0.1083
      8 C8          1.2726   -2.0888   -0.0220 C.ar      1 <0>        -0.1010
      9 C9          1.2469   -0.6825   -0.0134 C.ar      1 <0>        -0.0520
     10 C10         2.4370    0.0646   -0.0208 C.ar      1 <0>        -0.1063
     11 C11        -2.3852   -2.9171    0.0077 C.ar      1 <0>        -0.0554
     12 C12        -3.6187   -2.2680    0.0285 C.ar      1 <0>        -0.0941
     13 C13        -4.7841   -3.0051    0.0293 C.ar      1 <0>        -0.1417
     14 C14        -4.7298   -4.3924    0.0205 C.ar      1 <0>         0.1068
     15 C15        -3.5027   -5.0418    0.0059 C.ar      1 <0>        -0.1419
     16 C16        -2.3339   -4.3102   -0.0007 C.ar      1 <0>        -0.0931
     17 O1         -5.8798   -5.1160    0.0265 O.3       1 <0>        -0.4993
     18 H1          3.2966    1.9954   -0.0187 H         1 <0>         0.1242
     19 H2          1.1389    3.1715    0.0078 H         1 <0>         0.1244
     20 H3         -0.9580    1.9321    0.0171 H         1 <0>         0.1277
     21 H4         -2.1443   -0.2425    0.0209 H         1 <0>         0.1310
     22 H5          0.1366   -3.8684   -0.0215 H         1 <0>         0.1272
     23 H6          2.2175   -2.6117   -0.0344 H         1 <0>         0.1301
     24 H7          3.3928   -0.4380   -0.0330 H         1 <0>         0.1279
     25 H8         -3.6615   -1.1889    0.0395 H         1 <0>         0.1305
     26 H9         -5.7401   -2.5028    0.0413 H         1 <0>         0.1319
     27 H10        -3.4636   -6.1211   -0.0005 H         1 <0>         0.1320
     28 H11        -1.3796   -4.8159   -0.0120 H         1 <0>         0.1313
     29 H12        -6.2048   -5.3305    0.9116 H         1 <0>         0.3924
@<TRIPOS>BOND
     1    1   10 ar
     2    1    2 ar
     3    1   18 1
     4    2    3 ar
     5    2   19 1
     6    3    4 ar
     7    3   20 1
     8    4    9 ar
     9    4    5 ar
    10    5    6 ar
    11    5   21 1
    12    6    7 ar
    13    6   11 1
    14    7    8 ar
    15    7   22 1
    16    8    9 ar
    17    8   23 1
    18    9   10 ar
    19   10   24 1
    20   11   16 ar
    21   11   12 ar
    22   12   13 ar
    23   12   25 1
    24   13   14 ar
    25   13   26 1
    26   14   15 ar
    27   14   17 1
    28   15   16 ar
    29   15   27 1
    30   16   28 1
    31   17   29 1
@<TRIPOS>MOLECULE
ZINC01036850
   36    39     0     0     0
SMALL
USER_CHARGES
2,3-diphenyl-1H-indole
@<TRIPOS>ATOM
      1 C1          3.6280   -5.3906    0.1410 C.ar      1 <0>        -0.1213
      2 C2          3.6244   -4.4607    1.1655 C.ar      1 <0>        -0.1189
      3 C3          2.7439   -3.3990    1.1343 C.ar      1 <0>        -0.1086
      4 C4          1.8561   -3.2639    0.0663 C.ar      1 <0>        -0.0043
      5 C5          1.8615   -4.2078   -0.9614 C.ar      1 <0>        -0.1024
      6 C6          2.7503   -5.2623   -0.9208 C.ar      1 <0>        -0.1181
      7 C7          0.9086   -2.1278    0.0267 C.2       1 <0>        -0.1198
      8 C8          1.2474   -0.7045   -0.1149 C.ar      1 <0>        -0.0897
      9 C9          2.4499   -0.0083   -0.2462 C.ar      1 <0>        -0.0684
     10 C10         2.4374    1.3534   -0.3616 C.ar      1 <0>        -0.1431
     11 C11         1.2368    2.0498   -0.3478 C.ar      1 <0>        -0.0963
     12 C12         0.0386    1.3820   -0.2200 C.ar      1 <0>        -0.1297
     13 C13         0.0280   -0.0049   -0.1017 C.ar      1 <0>         0.1012
     14 N1         -0.9868   -0.9274    0.0376 N.pl3     1 <0>        -0.5841
     15 H1         -1.9318   -0.7118    0.0760 H         1 <0>         0.4169
     16 C14        -0.4658   -2.1962    0.1147 C.2       1 <0>         0.1340
     17 C15        -1.2526   -3.4361    0.2683 C.ar      1 <0>        -0.0368
     18 C16        -2.3776   -3.6564   -0.5295 C.ar      1 <0>        -0.1066
     19 C17        -3.1049   -4.8194   -0.3843 C.ar      1 <0>        -0.1184
     20 C18        -2.7289   -5.7614    0.5569 C.ar      1 <0>        -0.1094
     21 C19        -1.6185   -5.5473    1.3543 C.ar      1 <0>        -0.1166
     22 C20        -0.8786   -4.3914    1.2160 C.ar      1 <0>        -0.0835
     23 H2          4.3193   -6.2199    0.1700 H         1 <0>         0.1205
     24 H3          4.3120   -4.5664    1.9916 H         1 <0>         0.1222
     25 H4          2.7420   -2.6738    1.9346 H         1 <0>         0.1211
     26 H5          1.1738   -4.1113   -1.7885 H         1 <0>         0.1181
     27 H6          2.7581   -5.9915   -1.7175 H         1 <0>         0.1214
     28 H7          3.3875   -0.5442   -0.2569 H         1 <0>         0.1219
     29 H8          3.3682    1.8914   -0.4635 H         1 <0>         0.1240
     30 H9          1.2420    3.1259   -0.4394 H         1 <0>         0.1267
     31 H10        -0.8904    1.9328   -0.2159 H         1 <0>         0.1212
     32 H11        -2.6749   -2.9198   -1.2612 H         1 <0>         0.1213
     33 H12        -3.9727   -4.9930   -1.0034 H         1 <0>         0.1264
     34 H13        -3.3046   -6.6682    0.6695 H         1 <0>         0.1254
     35 H14        -1.3303   -6.2870    2.0865 H         1 <0>         0.1275
     36 H15        -0.0119   -4.2257    1.8387 H         1 <0>         0.1267
@<TRIPOS>BOND
     1    1    6 ar
     2    1    2 ar
     3    1   23 1
     4    2    3 ar
     5    2   24 1
     6    3    4 ar
     7    3   25 1
     8    4    5 ar
     9    4    7 1
    10    5    6 ar
    11    5   26 1
    12    6   27 1
    13    7   16 2
    14    7    8 1
    15    8   13 ar
    16    8    9 ar
    17    9   10 ar
    18    9   28 1
    19   10   11 ar
    20   10   29 1
    21   11   12 ar
    22   11   30 1
    23   12   13 ar
    24   12   31 1
    25   13   14 1
    26   14   15 1
    27   14   16 1
    28   16   17 1
    29   17   22 ar
    30   17   18 ar
    31   18   19 ar
    32   18   32 1
    33   19   20 ar
    34   19   33 1
    35   20   21 ar
    36   20   34 1
    37   21   22 ar
    38   21   35 1
    39   22   36 1
@<TRIPOS>MOLECULE
ZINC01588038
   35    37     0     0     0
SMALL
USER_CHARGES
1-methyl-5-vinyl-9,10-dihydrophenanthrene-2,7-diol
@<TRIPOS>ATOM
      1 C1         -6.2244    5.7580    1.2728 C.3       1 <0>        -0.1166
      2 C2         -4.9490    5.0966    0.8180 C.ar      1 <0>        -0.1076
      3 C3         -3.8383    5.8702    0.5068 C.ar      1 <0>         0.1088
      4 C4         -2.6612    5.2667    0.0859 C.ar      1 <0>        -0.1443
      5 C5         -2.5929    3.8936   -0.0330 C.ar      1 <0>        -0.1176
      6 C6         -3.7076    3.1169    0.2725 C.ar      1 <0>        -0.0478
      7 C7         -4.8846    3.7237    0.7113 C.ar      1 <0>        -0.0573
      8 C8         -6.0680    2.8755    1.0940 C.3       1 <0>        -0.0839
      9 C9         -6.1743    1.6582    0.1809 C.3       1 <0>        -0.0797
     10 C10        -4.8592    0.9298    0.1049 C.ar      1 <0>        -0.0531
     11 C11        -3.6629    1.6438    0.1340 C.ar      1 <0>        -0.0428
     12 C12        -2.4389    0.9681    0.0189 C.ar      1 <0>        -0.0273
     13 C13        -2.4283   -0.4210   -0.0995 C.ar      1 <0>        -0.1386
     14 C14        -3.6235   -1.1211   -0.0990 C.ar      1 <0>         0.1133
     15 C15        -4.8339   -0.4459   -0.0020 C.ar      1 <0>        -0.1422
     16 O1         -3.6125   -2.4762   -0.2003 O.3       1 <0>        -0.4978
     17 C16        -1.1705    1.7235    0.0170 C.2       1 <0>        -0.1290
     18 C17        -0.2054    1.3975   -0.8332 C.2       1 <0>        -0.1729
     19 O2         -3.9042    7.2231    0.6145 O.3       1 <0>        -0.4958
     20 H1         -6.2157    5.8564    2.3583 H         1 <0>         0.0705
     21 H2         -6.3033    6.7459    0.8189 H         1 <0>         0.0743
     22 H3         -7.0770    5.1500    0.9700 H         1 <0>         0.0720
     23 H4         -1.7982    5.8722   -0.1485 H         1 <0>         0.1309
     24 H5         -1.6780    3.4229   -0.3615 H         1 <0>         0.1545
     25 H6         -5.9527    2.5421    2.1253 H         1 <0>         0.0824
     26 H7         -6.9782    3.4692    1.0086 H         1 <0>         0.0884
     27 H8         -6.9362    0.9830    0.5706 H         1 <0>         0.0845
     28 H9         -6.4614    1.9838   -0.8189 H         1 <0>         0.0823
     29 H10        -1.4908   -0.9500   -0.1867 H         1 <0>         0.1333
     30 H11        -5.7603   -1.0008   -0.0107 H         1 <0>         0.1322
     31 H12        -3.6433   -2.8030   -1.1099 H         1 <0>         0.3921
     32 H13        -1.0282    2.5416    0.7076 H         1 <0>         0.1335
     33 H14        -0.3478    0.5795   -1.5238 H         1 <0>         0.1019
     34 H15         0.7207    1.9530   -0.8376 H         1 <0>         0.1094
     35 H16        -3.6511    7.5613    1.4844 H         1 <0>         0.3900
@<TRIPOS>BOND
     1    1    2 1
     2    1   20 1
     3    1   21 1
     4    1   22 1
     5    2    7 ar
     6    2    3 ar
     7    3    4 ar
     8    3   19 1
     9    4    5 ar
    10    4   23 1
    11    5    6 ar
    12    5   24 1
    13    6   11 1
    14    6    7 ar
    15    7    8 1
    16    8    9 1
    17    8   25 1
    18    8   26 1
    19    9   10 1
    20    9   27 1
    21    9   28 1
    22   10   15 ar
    23   10   11 ar
    24   11   12 ar
    25   12   13 ar
    26   12   17 1
    27   13   14 ar
    28   13   29 1
    29   14   15 ar
    30   14   16 1
    31   15   30 1
    32   16   31 1
    33   17   18 2
    34   17   32 1
    35   18   33 1
    36   18   34 1
    37   19   35 1
@<TRIPOS>MOLECULE
ZINC06716152
   37    39     0     0     0
SMALL
USER_CHARGES
4-[1-allyl-7-(trifluoromethyl)indazol-3-yl]benzene-1,3-diol
@<TRIPOS>ATOM
      1 C1          2.0544    4.4530    4.3104 C.2       1 <0>        -0.1539
      2 C2          1.6333    3.3376    4.8530 C.2       1 <0>        -0.1820
      3 C3          0.1893    2.9296    4.7128 C.3       1 <0>         0.1464
      4 N1          0.1156    1.5847    4.1367 N.pl3     1 <0>        -0.3897
      5 C4         -0.0182    0.4217    4.8509 C.ar      1 <0>         0.1667
      6 C5         -0.0476   -0.6309    3.9176 C.ar      1 <0>        -0.1670
      7 C6         -0.1784   -1.9487    4.3611 C.ar      1 <0>        -0.0032
      8 C7         -0.2766   -2.2082    5.6982 C.ar      1 <0>        -0.1636
      9 C8         -0.2485   -1.1725    6.6233 C.ar      1 <0>        -0.0118
     10 C9         -0.1204    0.1340    6.2099 C.ar      1 <0>        -0.2126
     11 C10        -0.0903    1.2487    7.2236 C.3       1 <0>         0.5081
     12 F1         -0.0793    0.7063    8.5131 F         1 <0>        -0.1709
     13 F2          1.0603    2.0214    7.0329 F         1 <0>        -0.1718
     14 F3         -1.2238    2.0533    7.0657 F         1 <0>        -0.1739
     15 C11         0.0785   -0.0108    2.5941 C.2       1 <0>         0.1408
     16 N2          0.1767    1.2843    2.7722 N.2       1 <0>        -0.2032
     17 C12         0.0977   -0.7196    1.2932 C.ar      1 <0>        -0.0571
     18 C13        -0.8336   -1.7229    1.0298 C.ar      1 <0>        -0.0610
     19 C14        -0.8137   -2.3807   -0.1820 C.ar      1 <0>        -0.1522
     20 C15         0.1325   -2.0467   -1.1425 C.ar      1 <0>         0.1375
     21 C16         1.0591   -1.0458   -0.8907 C.ar      1 <0>        -0.1738
     22 C17         1.0504   -0.3838    0.3251 C.ar      1 <0>         0.1570
     23 O1          1.9608    0.5929    0.5755 O.3       1 <0>        -0.4830
     24 O2          0.1465   -2.6983   -2.3347 O.3       1 <0>        -0.4964
     25 H1          1.3668    5.0803    3.7625 H         1 <0>         0.1014
     26 H2          3.0892    4.7454    4.4108 H         1 <0>         0.1061
     27 H3          2.3209    2.7103    5.4009 H         1 <0>         0.1178
     28 H4         -0.3253    3.6337    4.0590 H         1 <0>         0.1005
     29 H5         -0.2855    2.9312    5.6940 H         1 <0>         0.1082
     30 H6         -0.2018   -2.7601    3.6488 H         1 <0>         0.1385
     31 H7         -0.3769   -3.2279    6.0394 H         1 <0>         0.1429
     32 H8         -0.3277   -1.3946    7.6773 H         1 <0>         0.1472
     33 H9         -1.5703   -1.9851    1.7748 H         1 <0>         0.1375
     34 H10        -1.5356   -3.1580   -0.3846 H         1 <0>         0.1394
     35 H11         1.7902   -0.7855   -1.6418 H         1 <0>         0.1411
     36 H12         2.7775    0.2741    0.9836 H         1 <0>         0.3928
     37 H13        -0.4024   -2.2852   -3.0153 H         1 <0>         0.3971
@<TRIPOS>BOND
     1    1    2 2
     2    1   25 1
     3    1   26 1
     4    2    3 1
     5    2   27 1
     6    3    4 1
     7    3   28 1
     8    3   29 1
     9    4   16 1
    10    4    5 1
    11    5   10 ar
    12    5    6 ar
    13    6    7 ar
    14    6   15 1
    15    7    8 ar
    16    7   30 1
    17    8    9 ar
    18    8   31 1
    19    9   10 ar
    20    9   32 1
    21   10   11 1
    22   11   12 1
    23   11   13 1
    24   11   14 1
    25   15   16 2
    26   15   17 1
    27   17   22 ar
    28   17   18 ar
    29   18   19 ar
    30   18   33 1
    31   19   20 ar
    32   19   34 1
    33   20   21 ar
    34   20   24 1
    35   21   22 ar
    36   21   35 1
    37   22   23 1
    38   23   36 1
    39   24   37 1
@<TRIPOS>MOLECULE
ZINC13586321
   28    30     0     0     0
SMALL
USER_CHARGES

@<TRIPOS>ATOM
      1 C1          0.0016    1.3841   -0.3909 C.ar      1 <0>        -0.1783
      2 C2          1.1625    2.0949   -0.2963 C.ar      1 <0>        -0.0239
      3 C3          2.3793    1.4241   -0.1511 C.ar      1 <0>        -0.1734
      4 C4          2.4039    0.0179   -0.1029 C.ar      1 <0>         0.1445
      5 C5          1.2101   -0.6917   -0.2006 C.ar      1 <0>        -0.1730
      6 C6          0.0180   -0.0088   -0.3440 C.ar      1 <0>         0.1589
      7 O1         -1.1480   -0.7005   -0.4393 O.3       1 <0>        -0.4960
      8 N1          3.7161   -0.3537    0.0428 N.pl3     1 <0>        -0.5057
      9 H1          4.0373   -1.2668    0.1051 H         1 <0>         0.4433
     10 N2          4.5180    0.7911    0.0872 N.2       1 <0>        -0.2126
     11 C7          3.7731    1.8642   -0.0235 C.2       1 <0>         0.1405
     12 C8          4.2518    3.2663   -0.0208 C.ar      1 <0>        -0.0565
     13 C9          3.6141    4.2213    0.7695 C.ar      1 <0>        -0.0608
     14 C10         4.0617    5.5256    0.7701 C.ar      1 <0>        -0.1522
     15 C11         5.1474    5.8917   -0.0152 C.ar      1 <0>         0.1361
     16 C12         5.7876    4.9478   -0.8044 C.ar      1 <0>        -0.1741
     17 C13         5.3489    3.6347   -0.8070 C.ar      1 <0>         0.1550
     18 O2          5.9784    2.7078   -1.5752 O.3       1 <0>        -0.4840
     19 O3          5.5833    7.1787   -0.0106 O.3       1 <0>        -0.4966
     20 H2         -0.9382    1.9053   -0.4986 H         1 <0>         0.1364
     21 H3          1.1408    3.1740   -0.3339 H         1 <0>         0.1340
     22 H4          1.2161   -1.7711   -0.1652 H         1 <0>         0.1347
     23 H5         -1.3967   -0.9292   -1.3453 H         1 <0>         0.3966
     24 H6          2.7694    3.9398    1.3809 H         1 <0>         0.1378
     25 H7          3.5665    6.2646    1.3825 H         1 <0>         0.1391
     26 H8          6.6315    5.2363   -1.4137 H         1 <0>         0.1409
     27 H9          5.6171    2.6263   -2.4685 H         1 <0>         0.3925
     28 H10         6.2560    7.3637    0.6590 H         1 <0>         0.3969
@<TRIPOS>BOND
     1    1    6 ar
     2    1    2 ar
     3    1   20 1
     4    2    3 ar
     5    2   21 1
     6    3   11 1
     7    3    4 ar
     8    4    5 ar
     9    4    8 1
    10    5    6 ar
    11    5   22 1
    12    6    7 1
    13    7   23 1
    14    8    9 1
    15    8   10 1
    16   10   11 2
    17   11   12 1
    18   12   17 ar
    19   12   13 ar
    20   13   14 ar
    21   13   24 1
    22   14   15 ar
    23   14   25 1
    24   15   16 ar
    25   15   19 1
    26   16   17 ar
    27   16   26 1
    28   17   18 1
    29   18   27 1
    30   19   28 1
@<TRIPOS>MOLECULE
ZINC01544683
   64    68     0     0     0
SMALL
USER_CHARGES
2-(4-methoxyphenyl)-3-[4-[2-(1-piperidyl)ethoxy]phenoxy]-benzothiophen-6-ol
@<TRIPOS>ATOM
      1 C1         -9.7085   -0.2018    0.4161 C.3       1 <0>         0.0244
      2 O1         -9.2722    1.1588    0.3945 O.3       1 <0>        -0.3114
      3 C2         -7.9332    1.3761    0.3102 C.ar      1 <0>         0.1482
      4 C3         -7.4430    2.6749    0.2848 C.ar      1 <0>        -0.1483
      5 C4         -6.0855    2.9000    0.1994 C.ar      1 <0>        -0.0539
      6 C5         -5.2031    1.8193    0.1383 C.ar      1 <0>        -0.0655
      7 C6         -5.7009    0.5147    0.1588 C.ar      1 <0>        -0.0509
      8 C7         -7.0595    0.2987    0.2492 C.ar      1 <0>        -0.2085
      9 C8         -3.7480    2.0555    0.0462 C.2       1 <0>        -0.0742
     10 C9         -2.7501    1.1381   -0.0216 C.2       1 <0>         0.0485
     11 C10        -1.3727    1.6013   -0.1082 C.ar      1 <0>        -0.1051
     12 C11        -0.1862    0.8321   -0.1879 C.ar      1 <0>        -0.0507
     13 C12         1.0291    1.4336   -0.2697 C.ar      1 <0>        -0.1406
     14 C13         1.1549    2.8213   -0.2725 C.ar      1 <0>         0.1404
     15 C14         0.0172    3.6078   -0.1902 C.ar      1 <0>        -0.1012
     16 C15        -1.2198    3.0056   -0.1069 C.ar      1 <0>        -0.0988
     17 S1         -2.8825    3.6134    0.0111 S.3       1 <0>         0.0995
     18 O2          2.3828    3.3983   -0.3556 O.3       1 <0>        -0.4913
     19 O3         -3.0325   -0.1928   -0.0083 O.3       1 <0>        -0.2353
     20 C16        -3.0881   -0.8214    1.1957 C.ar      1 <0>         0.1011
     21 C17        -2.8546   -0.1078    2.3625 C.ar      1 <0>        -0.1456
     22 C18        -2.9154   -0.7457    3.5859 C.ar      1 <0>        -0.1603
     23 C19        -3.2005   -2.1018    3.6477 C.ar      1 <0>         0.0803
     24 C20        -3.4288   -2.8165    2.4811 C.ar      1 <0>        -0.1011
     25 C21        -3.3728   -2.1780    1.2577 C.ar      1 <0>        -0.1077
     26 O4         -3.2557   -2.7307    4.8521 O.3       1 <0>        -0.3279
     27 C22        -3.0102   -1.9332    6.0122 C.3       1 <0>         0.0247
     28 C23        -3.1146   -2.8075    7.2634 C.3       1 <0>         0.0035
     29 C24        -2.3659   -4.9382    8.1354 C.3       1 <0>        -0.0016
     30 C25        -1.3024   -6.0283    7.9854 C.3       1 <0>        -0.1480
     31 C26         0.0691   -5.4493    8.3438 C.3       1 <0>        -0.1387
     32 C27         0.3597   -4.2487    7.4390 C.3       1 <0>        -0.1473
     33 C28        -0.7520   -3.2102    7.6049 C.3       1 <0>        -0.0062
     34 H1         -9.3878   -0.7008   -0.4983 H         1 <0>         0.0595
     35 H2         -9.2746   -0.7088    1.2780 H         1 <0>         0.0564
     36 H3        -10.7958   -0.2337    0.4853 H         1 <0>         0.1054
     37 H4         -8.1262    3.5101    0.3317 H         1 <0>         0.1410
     38 H5         -5.7051    3.9106    0.1793 H         1 <0>         0.1343
     39 H6         -5.0223   -0.3239    0.1073 H         1 <0>         0.1398
     40 H7         -7.4451   -0.7099    0.2693 H         1 <0>         0.1348
     41 H8         -0.2487   -0.2461   -0.1882 H         1 <0>         0.1303
     42 H9          1.9175    0.8228   -0.3336 H         1 <0>         0.1380
     43 H10         0.0991    4.6847   -0.1909 H         1 <0>         0.1441
     44 H11         2.6766    3.5691   -1.2609 H         1 <0>         0.4005
     45 H12        -2.6289    0.9473    2.3142 H         1 <0>         0.1333
     46 H13        -2.7377   -0.1894    4.4944 H         1 <0>         0.1301
     47 H14        -3.6507   -3.8724    2.5294 H         1 <0>         0.1420
     48 H15        -3.5509   -2.7344    0.3494 H         1 <0>         0.1468
     49 H16        -2.0107   -1.5026    5.9522 H         1 <0>         0.0843
     50 H17        -3.7482   -1.1328    6.0657 H         1 <0>         0.1081
     51 H18        -3.0160   -2.1837    8.1518 H         1 <0>         0.1498
     52 H19        -4.0825   -3.3085    7.2769 H         1 <0>         0.1412
     53 H20        -2.3881   -4.5922    9.1688 H         1 <0>         0.1304
     54 H21        -3.3416   -5.3434    7.8672 H         1 <0>         0.1290
     55 H22        -1.2891   -6.3845    6.9553 H         1 <0>         0.0876
     56 H23        -1.5334   -6.8574    8.6542 H         1 <0>         0.1126
     57 H24         0.8355   -6.2102    8.1967 H         1 <0>         0.0943
     58 H25         0.0692   -5.1288    9.3856 H         1 <0>         0.0820
     59 H26         0.3992   -4.5769    6.4003 H         1 <0>         0.0874
     60 H27         1.3159   -3.8059    7.7179 H         1 <0>         0.1121
     61 H28        -0.5555   -2.3603    6.9513 H         1 <0>         0.1246
     62 H29        -0.7817   -2.8724    8.6408 H         1 <0>         0.1319
     63 N1         -2.0416   -3.8224    7.2211 N.4       1 <0>        -0.3960
     64 H30        -1.9654   -4.1873    6.2644 H         1 <0>         0.4336
@<TRIPOS>BOND
     1    1    2 1
     2    1   34 1
     3    1   35 1
     4    1   36 1
     5    2    3 1
     6    3    8 ar
     7    3    4 ar
     8    4    5 ar
     9    4   37 1
    10    5    6 ar
    11    5   38 1
    12    6    7 ar
    13    6    9 1
    14    7    8 ar
    15    7   39 1
    16    8   40 1
    17    9   17 1
    18    9   10 2
    19   10   11 1
    20   10   19 1
    21   11   16 ar
    22   11   12 ar
    23   12   13 ar
    24   12   41 1
    25   13   14 ar
    26   13   42 1
    27   14   15 ar
    28   14   18 1
    29   15   16 ar
    30   15   43 1
    31   16   17 1
    32   18   44 1
    33   19   20 1
    34   20   25 ar
    35   20   21 ar
    36   21   22 ar
    37   21   45 1
    38   22   23 ar
    39   22   46 1
    40   23   24 ar
    41   23   26 1
    42   24   25 ar
    43   24   47 1
    44   25   48 1
    45   26   27 1
    46   27   28 1
    47   27   49 1
    48   27   50 1
    49   28   51 1
    50   28   52 1
    51   28   63 1
    52   29   30 1
    53   29   53 1
    54   29   54 1
    55   29   63 1
    56   30   31 1
    57   30   55 1
    58   30   56 1
    59   31   32 1
    60   31   57 1
    61   31   58 1
    62   32   33 1
    63   32   59 1
    64   32   60 1
    65   33   61 1
    66   33   62 1
    67   33   63 1
    68   63   64 1
@<TRIPOS>MOLECULE
ZINC00639294
   51    54     0     0     0
SMALL
USER_CHARGES
methyl 2-amino-4-[4-[(2-fluorophenyl)methoxy]phenyl]-7-hydroxy-4H-chromene-3-carboxylate
@<TRIPOS>ATOM
      1 C1          0.2534   -2.1000   -1.0696 C.3       1 <0>         0.0286
      2 O1          0.2329   -0.6729   -1.1415 O.3       1 <0>        -0.3512
      3 C2          0.0280   -0.0036    0.0137 C.2       1 <0>         0.5422
      4 O2         -0.1290   -0.6179    1.0539 O.2       1 <0>        -0.5012
      5 C3         -0.0040    1.3984    0.0155 C.2       1 <0>        -0.3747
      6 C4          1.1629    2.0907   -0.0230 C.2       1 <0>         0.4323
      7 O3          1.1923    3.4324   -0.0235 O.3       1 <0>        -0.2462
      8 C5          0.1124    4.1336    0.4014 C.ar      1 <0>         0.1330
      9 C6          0.2690    5.4617    0.7770 C.ar      1 <0>        -0.1527
     10 C7         -0.8236    6.1927    1.2134 C.ar      1 <0>         0.1376
     11 C8         -2.0752    5.5960    1.2750 C.ar      1 <0>        -0.1527
     12 C9         -2.2293    4.2758    0.9012 C.ar      1 <0>        -0.0601
     13 C10        -1.1398    3.5429    0.4643 C.ar      1 <0>        -0.1273
     14 C11        -1.3298    2.1050    0.0539 C.3       1 <0>         0.0931
     15 H1         -1.9824    1.6094    0.7727 H         1 <0>         0.0972
     16 C12        -1.9642    2.0506   -1.3119 C.ar      1 <0>        -0.1117
     17 C13        -1.3182    2.6157   -2.3959 C.ar      1 <0>        -0.0535
     18 C14        -1.8950    2.5622   -3.6501 C.ar      1 <0>        -0.2035
     19 C15        -3.1291    1.9512   -3.8192 C.ar      1 <0>         0.1307
     20 C16        -3.7778    1.3900   -2.7289 C.ar      1 <0>        -0.1464
     21 C17        -3.1940    1.4408   -1.4779 C.ar      1 <0>        -0.0723
     22 O4         -3.7016    1.9030   -5.0508 O.3       1 <0>        -0.3100
     23 C18        -2.9766    2.5012   -6.1271 C.3       1 <0>         0.1063
     24 C19        -3.7608    2.3518   -7.4053 C.ar      1 <0>        -0.1271
     25 C20        -4.9822    1.7050   -7.3954 C.ar      1 <0>        -0.0697
     26 C21        -5.7044    1.5729   -8.5666 C.ar      1 <0>        -0.1284
     27 C22        -5.2007    2.0775   -9.7513 C.ar      1 <0>        -0.0886
     28 C23        -3.9773    2.7195   -9.7646 C.ar      1 <0>        -0.1513
     29 C24        -3.2555    2.8575   -8.5908 C.ar      1 <0>         0.1045
     30 F1         -2.0590    3.4846   -8.6028 F         1 <0>        -0.1369
     31 O5         -0.6702    7.4919    1.5813 O.3       1 <0>        -0.4922
     32 N1          2.3444    1.4000   -0.0630 N.pl3     1 <0>        -0.8325
     33 H2          1.0528   -2.4187   -0.4007 H         1 <0>         0.0585
     34 H3         -0.7032   -2.4584   -0.6892 H         1 <0>         0.0608
     35 H4          0.4260   -2.5114   -2.0641 H         1 <0>         0.1002
     36 H5          1.2436    5.9246    0.7290 H         1 <0>         0.1433
     37 H6         -2.9285    6.1643    1.6148 H         1 <0>         0.1385
     38 H7         -3.2041    3.8133    0.9497 H         1 <0>         0.1389
     39 H8         -0.3599    3.0957   -2.2628 H         1 <0>         0.1170
     40 H9         -1.3878    2.9995   -4.4974 H         1 <0>         0.1268
     41 H10        -4.7387    0.9142   -2.8579 H         1 <0>         0.1318
     42 H11        -3.6986    1.0040   -0.6288 H         1 <0>         0.1293
     43 H12        -2.8221    3.5596   -5.9172 H         1 <0>         0.0794
     44 H13        -2.0108    2.0072   -6.2335 H         1 <0>         0.0794
     45 H14        -5.3746    1.3065   -6.4714 H         1 <0>         0.1425
     46 H15        -6.6608    1.0712   -8.5571 H         1 <0>         0.1330
     47 H16        -5.7637    1.9695  -10.6666 H         1 <0>         0.1352
     48 H17        -3.5839    3.1133  -10.6901 H         1 <0>         0.1391
     49 H18        -0.4637    7.6137    2.5181 H         1 <0>         0.3966
     50 H19         2.3386    0.4331   -0.1405 H         1 <0>         0.4231
     51 H20         3.1873    1.8776   -0.0139 H         1 <0>         0.4112
@<TRIPOS>BOND
     1    1    2 1
     2    1   33 1
     3    1   34 1
     4    1   35 1
     5    2    3 1
     6    3    4 2
     7    3    5 1
     8    5   14 1
     9    5    6 2
    10    6    7 1
    11    6   32 1
    12    7    8 1
    13    8   13 ar
    14    8    9 ar
    15    9   10 ar
    16    9   36 1
    17   10   11 ar
    18   10   31 1
    19   11   12 ar
    20   11   37 1
    21   12   13 ar
    22   12   38 1
    23   13   14 1
    24   14   15 1
    25   14   16 1
    26   16   21 ar
    27   16   17 ar
    28   17   18 ar
    29   17   39 1
    30   18   19 ar
    31   18   40 1
    32   19   20 ar
    33   19   22 1
    34   20   21 ar
    35   20   41 1
    36   21   42 1
    37   22   23 1
    38   23   24 1
    39   23   43 1
    40   23   44 1
    41   24   29 ar
    42   24   25 ar
    43   25   26 ar
    44   25   45 1
    45   26   27 ar
    46   26   46 1
    47   27   28 ar
    48   27   47 1
    49   28   29 ar
    50   28   48 1
    51   29   30 1
    52   31   49 1
    53   32   50 1
    54   32   51 1
@<TRIPOS>MOLECULE
ZINC00639297
   51    54     0     0     0
SMALL
USER_CHARGES
methyl 2-amino-4-[4-[(2-fluorophenyl)methoxy]phenyl]-7-hydroxy-4H-chromene-3-carboxylate
@<TRIPOS>ATOM
      1 C1         -7.7247   -0.7312    4.1981 C.3       1 <0>         0.0375
      2 O1         -7.5918   -1.1912    2.8517 O.3       1 <0>        -0.3488
      3 C2         -7.7513   -2.5152    2.6375 C.2       1 <0>         0.5309
      4 O2         -7.9969   -3.2581    3.5713 O.2       1 <0>        -0.5374
      5 C3         -7.6342   -3.0347    1.3402 C.2       1 <0>        -0.3449
      6 C4         -7.9273   -4.3413    1.1175 C.2       1 <0>         0.4591
      7 O3         -7.8325   -4.8917   -0.1029 O.3       1 <0>        -0.2543
      8 C5         -7.8265   -4.1001   -1.2038 C.ar      1 <0>         0.1298
      9 C6         -8.1318   -4.6534   -2.4407 C.ar      1 <0>        -0.1526
     10 C7         -8.1309   -3.8589   -3.5754 C.ar      1 <0>         0.1371
     11 C8         -7.8244   -2.5090   -3.4744 C.ar      1 <0>        -0.1534
     12 C9         -7.5209   -1.9605   -2.2441 C.ar      1 <0>        -0.0602
     13 C10        -7.5208   -2.7515   -1.1087 C.ar      1 <0>        -0.1323
     14 C11        -7.1863   -2.1343    0.2234 C.3       1 <0>         0.0769
     15 H1         -7.6917   -1.1724    0.3103 H         1 <0>         0.1028
     16 C12        -5.6967   -1.9258    0.3171 C.ar      1 <0>        -0.1055
     17 C13        -5.1872   -0.6510    0.4811 C.ar      1 <0>        -0.0629
     18 C14        -3.8222   -0.4573    0.5673 C.ar      1 <0>        -0.1481
     19 C15        -2.9623   -1.5432    0.4891 C.ar      1 <0>         0.1294
     20 C16        -3.4758   -2.8207    0.3189 C.ar      1 <0>        -0.2059
     21 C17        -4.8419   -3.0098    0.2394 C.ar      1 <0>        -0.0619
     22 O4         -1.6190   -1.3552    0.5737 O.3       1 <0>        -0.3099
     23 C18        -0.7943   -2.5188    0.4854 C.3       1 <0>         0.1063
     24 C19         0.6540   -2.1178    0.5983 C.ar      1 <0>        -0.1272
     25 C20         0.9924   -0.7875    0.7602 C.ar      1 <0>        -0.0696
     26 C21         2.3207   -0.4194    0.8634 C.ar      1 <0>        -0.1284
     27 C22         3.3124   -1.3811    0.8047 C.ar      1 <0>        -0.0885
     28 C23         2.9764   -2.7116    0.6428 C.ar      1 <0>        -0.1513
     29 C24         1.6460   -3.0816    0.5394 C.ar      1 <0>         0.1044
     30 F1          1.3164   -4.3822    0.3806 F         1 <0>        -0.1370
     31 O5         -8.4302   -4.4002   -4.7855 O.3       1 <0>        -0.4923
     32 N1         -8.3309   -5.1205    2.1685 N.pl3     1 <0>        -0.8236
     33 H2         -8.7225   -0.9693    4.5666 H         1 <0>         0.0572
     34 H3         -6.9795   -1.2211    4.8247 H         1 <0>         0.0576
     35 H4         -7.5736    0.3478    4.2300 H         1 <0>         0.0992
     36 H5         -8.3704   -5.7039   -2.5178 H         1 <0>         0.1428
     37 H6         -7.8230   -1.8878   -4.3579 H         1 <0>         0.1382
     38 H7         -7.2825   -0.9099   -2.1676 H         1 <0>         0.1392
     39 H8         -5.8570    0.1941    0.5415 H         1 <0>         0.1328
     40 H9         -3.4246    0.5388    0.6950 H         1 <0>         0.1319
     41 H10        -2.8083   -3.6672    0.2533 H         1 <0>         0.1260
     42 H11        -5.2424   -4.0046    0.1113 H         1 <0>         0.1149
     43 H12        -0.9614   -3.0108   -0.4728 H         1 <0>         0.0793
     44 H13        -1.0456   -3.2045    1.2945 H         1 <0>         0.0788
     45 H14         0.2189   -0.0350    0.8017 H         1 <0>         0.1426
     46 H15         2.5842    0.6203    0.9900 H         1 <0>         0.1331
     47 H16         4.3499   -1.0923    0.8853 H         1 <0>         0.1353
     48 H17         3.7512   -3.4626    0.5966 H         1 <0>         0.1391
     49 H18        -9.3710   -4.3722   -5.0070 H         1 <0>         0.3964
     50 H19        -8.9475   -4.7646    2.8274 H         1 <0>         0.4304
     51 H20        -8.0003   -6.0284    2.2543 H         1 <0>         0.4070
@<TRIPOS>BOND
     1    1    2 1
     2    1   33 1
     3    1   34 1
     4    1   35 1
     5    2    3 1
     6    3    4 2
     7    3    5 1
     8    5   14 1
     9    5    6 2
    10    6    7 1
    11    6   32 1
    12    7    8 1
    13    8   13 ar
    14    8    9 ar
    15    9   10 ar
    16    9   36 1
    17   10   11 ar
    18   10   31 1
    19   11   12 ar
    20   11   37 1
    21   12   13 ar
    22   12   38 1
    23   13   14 1
    24   14   15 1
    25   14   16 1
    26   16   21 ar
    27   16   17 ar
    28   17   18 ar
    29   17   39 1
    30   18   19 ar
    31   18   40 1
    32   19   20 ar
    33   19   22 1
    34   20   21 ar
    35   20   41 1
    36   21   42 1
    37   22   23 1
    38   23   24 1
    39   23   43 1
    40   23   44 1
    41   24   29 ar
    42   24   25 ar
    43   25   26 ar
    44   25   45 1
    45   26   27 ar
    46   26   46 1
    47   27   28 ar
    48   27   47 1
    49   28   29 ar
    50   28   48 1
    51   29   30 1
    52   31   49 1
    53   32   50 1
    54   32   51 1
@<TRIPOS>MOLECULE
ZINC00639306
   54    57     0     0     0
SMALL
USER_CHARGES
methyl 2-amino-7-hydroxy-4-[4-(p-tolylmethoxy)phenyl]-4H-chromene-3-carboxylate
@<TRIPOS>ATOM
      1 C1         -1.2709    7.9194   10.8039 C.3       1 <0>        -0.1186
      2 C2         -0.7571    7.2506    9.5550 C.ar      1 <0>        -0.0747
      3 C3         -1.1620    5.9665    9.2420 C.ar      1 <0>        -0.1243
      4 C4         -0.6903    5.3529    8.0966 C.ar      1 <0>        -0.0905
      5 C5          0.1856    6.0237    7.2638 C.ar      1 <0>        -0.1039
      6 C6          0.5942    7.3061    7.5792 C.ar      1 <0>        -0.0904
      7 C7          0.1195    7.9211    8.7226 C.ar      1 <0>        -0.1242
      8 C8          0.6998    5.3548    6.0151 C.3       1 <0>         0.1035
      9 O1         -0.1793    5.6403    4.9253 O.3       1 <0>        -0.3088
     10 C9          0.1427    5.1079    3.7171 C.ar      1 <0>         0.1315
     11 C10        -0.6666    5.3447    2.6155 C.ar      1 <0>        -0.1487
     12 C11        -0.3374    4.8020    1.3885 C.ar      1 <0>        -0.0721
     13 C12         0.7975    4.0231    1.2579 C.ar      1 <0>        -0.1141
     14 C13         1.6028    3.7810    2.3555 C.ar      1 <0>        -0.0530
     15 C14         1.2812    4.3264    3.5833 C.ar      1 <0>        -0.2058
     16 C15         1.1541    3.4320   -0.0817 C.3       1 <0>         0.0927
     17 H1          0.4007    3.7222   -0.8140 H         1 <0>         0.0968
     18 C16         2.4975    3.9558   -0.5103 C.ar      1 <0>        -0.1270
     19 C17         2.5979    5.2449   -1.0031 C.ar      1 <0>        -0.0600
     20 C18         3.8213    5.7426   -1.4059 C.ar      1 <0>        -0.1529
     21 C19         4.9562    4.9485   -1.3172 C.ar      1 <0>         0.1373
     22 C20         4.8588    3.6575   -0.8249 C.ar      1 <0>        -0.1528
     23 C21         3.6273    3.1582   -0.4205 C.ar      1 <0>         0.1334
     24 O2          3.5493    1.8921    0.0585 O.3       1 <0>        -0.2474
     25 C22         2.3662    1.2592    0.0893 C.2       1 <0>         0.4316
     26 C23         1.1897    1.9336    0.0290 C.2       1 <0>        -0.3722
     27 C24        -0.0158    1.2179    0.0647 C.2       1 <0>         0.5421
     28 O3         -0.6373    1.0200   -0.9642 O.2       1 <0>        -0.5029
     29 O4         -0.4905    0.7528    1.2406 O.3       1 <0>        -0.3490
     30 C25        -1.7270    0.0375    1.2037 C.3       1 <0>         0.0287
     31 N1          2.3453   -0.1066    0.1840 N.pl3     1 <0>        -0.8330
     32 O5          6.1612    5.4371   -1.7125 O.3       1 <0>        -0.4923
     33 H2         -0.6005    7.7010   11.6351 H         1 <0>         0.0729
     34 H3         -1.3157    8.9971   10.6468 H         1 <0>         0.0682
     35 H4         -2.2682    7.5439   11.0331 H         1 <0>         0.0681
     36 H5         -1.8466    5.4425    9.8925 H         1 <0>         0.1252
     37 H6         -1.0064    4.3495    7.8523 H         1 <0>         0.1241
     38 H7          1.2820    7.8285    6.9308 H         1 <0>         0.1243
     39 H8          0.4362    8.9243    8.9673 H         1 <0>         0.1254
     40 H9          0.7452    4.2772    6.1726 H         1 <0>         0.0708
     41 H10         1.6969    5.7308    5.7858 H         1 <0>         0.0709
     42 H11        -1.5532    5.9530    2.7170 H         1 <0>         0.1307
     43 H12        -0.9671    4.9860    0.5306 H         1 <0>         0.1283
     44 H13         2.4861    3.1683    2.2520 H         1 <0>         0.1162
     45 H14         1.9127    4.1404    4.4395 H         1 <0>         0.1262
     46 H15         1.7159    5.8643   -1.0731 H         1 <0>         0.1388
     47 H16         3.8951    6.7495   -1.7894 H         1 <0>         0.1384
     48 H17         5.7411    3.0384   -0.7556 H         1 <0>         0.1432
     49 H18        -1.6210   -0.8384    0.5636 H         1 <0>         0.0582
     50 H19        -1.9936   -0.2794    2.2119 H         1 <0>         0.1001
     51 H20        -2.5094    0.6846    0.8073 H         1 <0>         0.0607
     52 H21         1.5043   -0.5848    0.1145 H         1 <0>         0.4225
     53 H22         3.1716   -0.5960    0.3207 H         1 <0>         0.4112
     54 H23         6.3637    5.2777   -2.6445 H         1 <0>         0.3965
@<TRIPOS>BOND
     1    1    2 1
     2    1   33 1
     3    1   34 1
     4    1   35 1
     5    2    7 ar
     6    2    3 ar
     7    3    4 ar
     8    3   36 1
     9    4    5 ar
    10    4   37 1
    11    5    6 ar
    12    5    8 1
    13    6    7 ar
    14    6   38 1
    15    7   39 1
    16    8    9 1
    17    8   40 1
    18    8   41 1
    19    9   10 1
    20   10   15 ar
    21   10   11 ar
    22   11   12 ar
    23   11   42 1
    24   12   13 ar
    25   12   43 1
    26   13   14 ar
    27   13   16 1
    28   14   15 ar
    29   14   44 1
    30   15   45 1
    31   16   17 1
    32   16   26 1
    33   16   18 1
    34   18   23 ar
    35   18   19 ar
    36   19   20 ar
    37   19   46 1
    38   20   21 ar
    39   20   47 1
    40   21   22 ar
    41   21   32 1
    42   22   23 ar
    43   22   48 1
    44   23   24 1
    45   24   25 1
    46   25   26 2
    47   25   31 1
    48   26   27 1
    49   27   28 2
    50   27   29 1
    51   29   30 1
    52   30   49 1
    53   30   50 1
    54   30   51 1
    55   31   52 1
    56   31   53 1
    57   32   54 1
@<TRIPOS>MOLECULE
ZINC00639309
   54    57     0     0     0
SMALL
USER_CHARGES
methyl 2-amino-7-hydroxy-4-[4-(p-tolylmethoxy)phenyl]-4H-chromene-3-carboxylate
@<TRIPOS>ATOM
      1 C1         -8.3411    6.1827    0.1521 C.3       1 <0>        -0.1186
      2 C2         -7.1137    5.3086    0.1283 C.ar      1 <0>        -0.0747
      3 C3         -6.5618    4.9248   -1.0796 C.ar      1 <0>        -0.1243
      4 C4         -5.4357    4.1234   -1.1014 C.ar      1 <0>        -0.0904
      5 C5         -4.8612    3.7061    0.0846 C.ar      1 <0>        -0.1042
      6 C6         -5.4162    4.0855    1.2925 C.ar      1 <0>        -0.0904
      7 C7         -6.5401    4.8901    1.3144 C.ar      1 <0>        -0.1242
      8 C8         -3.6336    2.8324    0.0608 C.3       1 <0>         0.1036
      9 O1         -2.4643    3.6539    0.0611 O.3       1 <0>        -0.3089
     10 C9         -1.2634    3.0179    0.0409 C.ar      1 <0>         0.1316
     11 C10        -1.2117    1.6317    0.0154 C.ar      1 <0>        -0.2069
     12 C11         0.0103    0.9875    0.0001 C.ar      1 <0>        -0.0714
     13 C12         1.1810    1.7232   -0.0013 C.ar      1 <0>        -0.1137
     14 C13         1.1320    3.1048    0.0189 C.ar      1 <0>        -0.0547
     15 C14        -0.0874    3.7537    0.0399 C.ar      1 <0>        -0.1474
     16 C15         2.5126    1.0179   -0.0242 C.3       1 <0>         0.0934
     17 H1          2.3501   -0.0597   -0.0431 H         1 <0>         0.0962
     18 C16         3.2904    1.3804    1.2132 C.ar      1 <0>        -0.1268
     19 C17         2.9557    0.7961    2.4221 C.ar      1 <0>        -0.0603
     20 C18         3.6575    1.1159    3.5674 C.ar      1 <0>        -0.1527
     21 C19         4.7029    2.0271    3.5086 C.ar      1 <0>         0.1374
     22 C20         5.0401    2.6139    2.3000 C.ar      1 <0>        -0.1521
     23 C21         4.3334    2.2907    1.1487 C.ar      1 <0>         0.1332
     24 O2          4.6768    2.8739   -0.0263 O.3       1 <0>        -0.2458
     25 C22         4.2946    2.3189   -1.1868 C.2       1 <0>         0.4327
     26 C23         3.2722    1.4285   -1.2542 C.2       1 <0>        -0.3749
     27 C24         2.9176    0.8814   -2.4958 C.2       1 <0>         0.5425
     28 O3          3.2818   -0.2426   -2.7926 O.2       1 <0>        -0.5020
     29 O4          2.1723    1.6007   -3.3627 O.3       1 <0>        -0.3507
     30 C25         1.8483    0.9812   -4.6090 C.3       1 <0>         0.0287
     31 N1          4.9549    2.6610   -2.3365 N.pl3     1 <0>        -0.8325
     32 O5          5.3945    2.3430    4.6350 O.3       1 <0>        -0.4921
     33 H2         -9.2332    5.5564    0.1513 H         1 <0>         0.0730
     34 H3         -8.3307    6.7992    1.0510 H         1 <0>         0.0682
     35 H4         -8.3470    6.8247   -0.7287 H         1 <0>         0.0681
     36 H5         -7.0102    5.2515   -2.0062 H         1 <0>         0.1252
     37 H6         -5.0045    3.8236   -2.0451 H         1 <0>         0.1241
     38 H7         -4.9700    3.7558    2.2191 H         1 <0>         0.1243
     39 H8         -6.9715    5.1896    2.2581 H         1 <0>         0.1254
     40 H9         -3.6440    2.2155   -0.8378 H         1 <0>         0.0707
     41 H10        -3.6271    2.1908    0.9419 H         1 <0>         0.0710
     42 H11        -2.1259    1.0567    0.0116 H         1 <0>         0.1275
     43 H12         0.0511   -0.0916   -0.0153 H         1 <0>         0.1238
     44 H13         2.0479    3.6772    0.0178 H         1 <0>         0.1203
     45 H14        -0.1251    4.8329    0.0553 H         1 <0>         0.1294
     46 H15         2.1426    0.0869    2.4699 H         1 <0>         0.1381
     47 H16         3.3928    0.6575    4.5088 H         1 <0>         0.1382
     48 H17         5.8533    3.3230    2.2528 H         1 <0>         0.1435
     49 H18         1.2482    1.6649   -5.2095 H         1 <0>         0.1003
     50 H19         2.7665    0.7384   -5.1437 H         1 <0>         0.0585
     51 H20         1.2828    0.0678   -4.4245 H         1 <0>         0.0601
     52 H21         4.6425    2.3284   -3.1925 H         1 <0>         0.4230
     53 H22         5.7350    3.2359   -2.2950 H         1 <0>         0.4112
     54 H23         6.1600    1.7753    4.7987 H         1 <0>         0.3965
@<TRIPOS>BOND
     1    1    2 1
     2    1   33 1
     3    1   34 1
     4    1   35 1
     5    2    7 ar
     6    2    3 ar
     7    3    4 ar
     8    3   36 1
     9    4    5 ar
    10    4   37 1
    11    5    6 ar
    12    5    8 1
    13    6    7 ar
    14    6   38 1
    15    7   39 1
    16    8    9 1
    17    8   40 1
    18    8   41 1
    19    9   10 1
    20   10   15 ar
    21   10   11 ar
    22   11   12 ar
    23   11   42 1
    24   12   13 ar
    25   12   43 1
    26   13   14 ar
    27   13   16 1
    28   14   15 ar
    29   14   44 1
    30   15   45 1
    31   16   17 1
    32   16   26 1
    33   16   18 1
    34   18   23 ar
    35   18   19 ar
    36   19   20 ar
    37   19   46 1
    38   20   21 ar
    39   20   47 1
    40   21   22 ar
    41   21   32 1
    42   22   23 ar
    43   22   48 1
    44   23   24 1
    45   24   25 1
    46   25   26 2
    47   25   31 1
    48   26   27 1
    49   27   28 2
    50   27   29 1
    51   29   30 1
    52   30   49 1
    53   30   50 1
    54   30   51 1
    55   31   52 1
    56   31   53 1
    57   32   54 1
@<TRIPOS>MOLECULE
ZINC14711629
   62    64     0     0     0
SMALL
USER_CHARGES
(2S)-2-(2,4-dihydroxyphenyl)-7-hydroxy-8-[(2R)-2-isopropenyl-5-methyl-hex-4-enyl]-5-methoxy-chroman-4-one
@<TRIPOS>ATOM
      1 C1          6.6800    4.2333    3.4176 C.3       1 <0>        -0.1174
      2 C2          7.4033    3.5596    2.2801 C.2       1 <0>        -0.1366
      3 C3          7.2441    2.2762    2.0712 C.2       1 <0>        -0.1589
      4 C4          6.2523    1.4960    2.8952 C.3       1 <0>        -0.0856
      5 C5          5.2804    0.7654    1.9664 C.3       1 <0>        -0.0382
      6 H1          4.8150    1.4829    1.2905 H         1 <0>         0.0736
      7 C6          4.1994    0.0751    2.8005 C.3       1 <0>        -0.0520
      8 C7          3.1601   -0.5178    1.8843 C.ar      1 <0>        -0.1829
      9 C8          3.2453   -1.8540    1.5133 C.ar      1 <0>         0.2289
     10 C9          2.2962   -2.4174    0.6698 C.ar      1 <0>        -0.2820
     11 C10         1.2529   -1.6468    0.1876 C.ar      1 <0>         0.2319
     12 C11         1.1641   -0.2953    0.5555 C.ar      1 <0>        -0.2939
     13 C12         2.1246    0.2703    1.4149 C.ar      1 <0>         0.2346
     14 O1          2.0417    1.5693    1.7867 O.3       1 <0>        -0.2927
     15 C13         1.3021    2.4716    0.9643 C.3       1 <0>         0.1493
     16 H2          1.8153    2.5989    0.0111 H         1 <0>         0.0973
     17 C14        -0.1020    1.9002    0.7180 C.3       1 <0>        -0.1816
     18 C15         0.0746    0.5478    0.0512 C.2       1 <0>         0.4029
     19 O2         -0.6484    0.1829   -0.8530 O.2       1 <0>        -0.4277
     20 C16         1.1880    3.8051    1.6569 C.ar      1 <0>        -0.1268
     21 C17         1.2570    3.8753    3.0353 C.ar      1 <0>        -0.0581
     22 C18         1.1584    5.0970    3.6729 C.ar      1 <0>        -0.1536
     23 C19         0.9785    6.2559    2.9306 C.ar      1 <0>         0.1331
     24 C20         0.9034    6.1875    1.5482 C.ar      1 <0>        -0.1712
     25 C21         1.0083    4.9608    0.9104 C.ar      1 <0>         0.1415
     26 O3          0.9355    4.8906   -0.4448 O.3       1 <0>        -0.4929
     27 O4          0.8756    7.4567    3.5586 O.3       1 <0>        -0.4959
     28 O5          0.3230   -2.1936   -0.6342 O.3       1 <0>        -0.2858
     29 C22         0.4804   -3.5751   -0.9638 C.3       1 <0>         0.0209
     30 O6          4.2662   -2.6163    1.9794 O.3       1 <0>        -0.4813
     31 C23         6.0314   -0.2661    1.1645 C.2       1 <0>        -0.0949
     32 C24         5.9490   -0.2665   -0.1429 C.2       1 <0>        -0.2047
     33 C25         6.8771   -1.2970    1.8666 C.3       1 <0>        -0.1119
     34 C26         8.3098    4.3622    1.3829 C.3       1 <0>        -0.1170
     35 H3          7.0354    3.8281    4.3650 H         1 <0>         0.0645
     36 H4          6.8724    5.3057    3.3861 H         1 <0>         0.0576
     37 H5          5.6090    4.0535    3.3245 H         1 <0>         0.0664
     38 H6          7.8235    1.7772    1.3086 H         1 <0>         0.1067
     39 H7          5.6967    2.1791    3.5378 H         1 <0>         0.0730
     40 H8          6.7829    0.7692    3.5102 H         1 <0>         0.0715
     41 H9          3.7288    0.8039    3.4603 H         1 <0>         0.0770
     42 H10         4.6516   -0.7168    3.3976 H         1 <0>         0.0759
     43 H11         2.3724   -3.4578    0.3904 H         1 <0>         0.1429
     44 H12        -0.6166    2.5230    0.1286 H         1 <0>         0.0972
     45 H13        -0.6258    1.7810    1.6664 H         1 <0>         0.1139
     46 H14         1.3925    2.9741    3.6149 H         1 <0>         0.1406
     47 H15         1.2166    5.1498    4.7500 H         1 <0>         0.1361
     48 H16         0.7631    7.0881    0.9689 H         1 <0>         0.1402
     49 H17         0.0385    4.7678   -0.7847 H         1 <0>         0.3953
     50 H18        -0.0300    7.7016    3.7931 H         1 <0>         0.3957
     51 H19         0.4523   -4.1716   -0.0520 H         1 <0>         0.0598
     52 H20        -0.3282   -3.8851   -1.6258 H         1 <0>         0.1064
     53 H21         1.4370   -3.7223   -1.4650 H         1 <0>         0.0609
     54 H22         4.0738   -3.0630    2.8152 H         1 <0>         0.3966
     55 H23         6.4872   -1.0058   -0.7176 H         1 <0>         0.0918
     56 H24         5.3429    0.4723   -0.6461 H         1 <0>         0.0881
     57 H25         6.7517   -1.1968    2.9447 H         1 <0>         0.0577
     58 H26         6.5665   -2.2946    1.5558 H         1 <0>         0.0720
     59 H27         7.9249   -1.1454    1.6070 H         1 <0>         0.0565
     60 H28         8.7410    3.7092    0.6241 H         1 <0>         0.0588
     61 H29         7.7354    5.1519    0.8987 H         1 <0>         0.0645
     62 H30         9.1088    4.8060    1.9768 H         1 <0>         0.0624
@<TRIPOS>BOND
     1    1    2 1
     2    1   35 1
     3    1   36 1
     4    1   37 1
     5    2    3 2
     6    2   34 1
     7    3    4 1
     8    3   38 1
     9    4    5 1
    10    4   39 1
    11    4   40 1
    12    5    6 1
    13    5    7 1
    14    5   31 1
    15    7    8 1
    16    7   41 1
    17    7   42 1
    18    8   13 ar
    19    8    9 ar
    20    9   10 ar
    21    9   30 1
    22   10   11 ar
    23   10   43 1
    24   11   12 ar
    25   11   28 1
    26   12   18 1
    27   12   13 ar
    28   13   14 1
    29   14   15 1
    30   15   16 1
    31   15   17 1
    32   15   20 1
    33   17   18 1
    34   17   44 1
    35   17   45 1
    36   18   19 2
    37   20   25 ar
    38   20   21 ar
    39   21   22 ar
    40   21   46 1
    41   22   23 ar
    42   22   47 1
    43   23   24 ar
    44   23   27 1
    45   24   25 ar
    46   24   48 1
    47   25   26 1
    48   26   49 1
    49   27   50 1
    50   28   29 1
    51   29   51 1
    52   29   52 1
    53   29   53 1
    54   30   54 1
    55   31   32 2
    56   31   33 1
    57   32   55 1
    58   32   56 1
    59   33   57 1
    60   33   58 1
    61   33   59 1
    62   34   60 1
    63   34   61 1
    64   34   62 1
@<TRIPOS>MOLECULE
ZINC14711632
   62    64     0     0     0
SMALL
USER_CHARGES
(2S)-2-(2,4-dihydroxyphenyl)-7-hydroxy-8-[(2S)-2-isopropenyl-5-methyl-hex-4-enyl]-5-methoxy-chroman-4-one
@<TRIPOS>ATOM
      1 C1          9.9905    1.1899    2.6220 C.3       1 <0>        -0.1193
      2 C2          9.5228    1.9402    1.4016 C.2       1 <0>        -0.1380
      3 C3          8.2449    2.0013    1.1201 C.2       1 <0>        -0.1580
      4 C4          7.2510    1.2423    1.9610 C.3       1 <0>        -0.0858
      5 C5          6.3843    0.3632    1.0571 C.3       1 <0>        -0.0379
      6 H1          7.0248   -0.2805    0.4541 H         1 <0>         0.0775
      7 C6          5.4604   -0.4996    1.9189 C.3       1 <0>        -0.0519
      8 C7          4.7037   -1.4601    1.0379 C.ar      1 <0>        -0.1812
      9 C8          5.2672   -2.6857    0.7056 C.ar      1 <0>         0.2193
     10 C9          4.5844   -3.5834   -0.1054 C.ar      1 <0>        -0.2857
     11 C10         3.3304   -3.2610   -0.5935 C.ar      1 <0>         0.2320
     12 C11         2.7578   -2.0225   -0.2646 C.ar      1 <0>        -0.2934
     13 C12         3.4505   -1.1183    0.5623 C.ar      1 <0>         0.2442
     14 O1          2.9014    0.0726    0.8985 O.3       1 <0>        -0.2863
     15 C13         1.8808    0.6170    0.0622 C.3       1 <0>         0.1497
     16 H2          2.3086    0.8916   -0.9019 H         1 <0>         0.0974
     17 C14         0.7802   -0.4336   -0.1460 C.3       1 <0>        -0.1827
     18 C15         1.4343   -1.6501   -0.7762 C.2       1 <0>         0.4035
     19 O2          0.8904   -2.2819   -1.6584 O.2       1 <0>        -0.4282
     20 C16         1.2917    1.8391    0.7183 C.ar      1 <0>        -0.1243
     21 C17         1.3483    1.9804    2.0918 C.ar      1 <0>        -0.0582
     22 C18         0.8142    3.1024    2.6957 C.ar      1 <0>        -0.1532
     23 C19         0.2093    4.0853    1.9248 C.ar      1 <0>         0.1327
     24 C20         0.1463    3.9432    0.5474 C.ar      1 <0>        -0.1711
     25 C21         0.6881    2.8190   -0.0568 C.ar      1 <0>         0.1405
     26 O3          0.6283    2.6771   -1.4070 O.3       1 <0>        -0.4929
     27 O4         -0.3212    5.1859    2.5199 O.3       1 <0>        -0.4961
     28 O5          2.6593   -4.1355   -1.3835 O.3       1 <0>        -0.2857
     29 C22         3.3069   -5.3757   -1.6744 C.3       1 <0>         0.0208
     30 O6          6.4974   -3.0092    1.1777 O.3       1 <0>        -0.4869
     31 C23         5.5553    1.2372    0.1515 C.2       1 <0>        -0.0964
     32 C24         5.5644    1.0343   -1.1426 C.2       1 <0>        -0.2078
     33 C25         4.7159    2.3446    0.7348 C.3       1 <0>        -0.1112
     34 C26        10.5252    2.6203    0.5051 C.3       1 <0>        -0.1174
     35 H3         10.0902    0.1314    2.3816 H         1 <0>         0.0655
     36 H4         10.9558    1.5823    2.9420 H         1 <0>         0.0594
     37 H5          9.2639    1.3133    3.4250 H         1 <0>         0.0651
     38 H6          7.9036    2.5956    0.2854 H         1 <0>         0.1068
     39 H7          6.6167    1.9472    2.4986 H         1 <0>         0.0710
     40 H8          7.7837    0.6149    2.6755 H         1 <0>         0.0734
     41 H9          4.7548    0.1405    2.4485 H         1 <0>         0.0794
     42 H10         6.0550   -1.0599    2.6405 H         1 <0>         0.0741
     43 H11         5.0324   -4.5339   -0.3547 H         1 <0>         0.1429
     44 H12         0.0720   -0.0602   -0.7451 H         1 <0>         0.0965
     45 H13         0.3392   -0.7044    0.8133 H         1 <0>         0.1135
     46 H14         1.8146    1.2145    2.6938 H         1 <0>         0.1405
     47 H15         0.8632    3.2124    3.7690 H         1 <0>         0.1356
     48 H16        -0.3243    4.7068   -0.0541 H         1 <0>         0.1396
     49 H17        -0.1645    2.2201   -1.7197 H         1 <0>         0.3950
     50 H18        -1.2500    5.0883    2.7705 H         1 <0>         0.3955
     51 H19         3.5017   -5.9106   -0.7449 H         1 <0>         0.0597
     52 H20         2.6635   -5.9803   -2.3136 H         1 <0>         0.1065
     53 H21         4.2494   -5.1821   -2.1866 H         1 <0>         0.0608
     54 H22         6.4815   -3.5336    1.9900 H         1 <0>         0.3994
     55 H23         6.1660    0.2407   -1.5606 H         1 <0>         0.0909
     56 H24         4.9703    1.6606   -1.7916 H         1 <0>         0.0917
     57 H25         5.2757    3.2793    0.7045 H         1 <0>         0.0593
     58 H26         3.7999    2.4507    0.1537 H         1 <0>         0.0600
     59 H27         4.4651    2.1046    1.7680 H         1 <0>         0.0638
     60 H28        10.6848    3.6425    0.8481 H         1 <0>         0.0639
     61 H29        11.4687    2.0753    0.5359 H         1 <0>         0.0616
     62 H30        10.1473    2.6349   -0.5172 H         1 <0>         0.0605
@<TRIPOS>BOND
     1    1    2 1
     2    1   35 1
     3    1   36 1
     4    1   37 1
     5    2    3 2
     6    2   34 1
     7    3    4 1
     8    3   38 1
     9    4    5 1
    10    4   39 1
    11    4   40 1
    12    5    6 1
    13    5    7 1
    14    5   31 1
    15    7    8 1
    16    7   41 1
    17    7   42 1
    18    8   13 ar
    19    8    9 ar
    20    9   10 ar
    21    9   30 1
    22   10   11 ar
    23   10   43 1
    24   11   12 ar
    25   11   28 1
    26   12   18 1
    27   12   13 ar
    28   13   14 1
    29   14   15 1
    30   15   16 1
    31   15   17 1
    32   15   20 1
    33   17   18 1
    34   17   44 1
    35   17   45 1
    36   18   19 2
    37   20   25 ar
    38   20   21 ar
    39   21   22 ar
    40   21   46 1
    41   22   23 ar
    42   22   47 1
    43   23   24 ar
    44   23   27 1
    45   24   25 ar
    46   24   48 1
    47   25   26 1
    48   26   49 1
    49   27   50 1
    50   28   29 1
    51   29   51 1
    52   29   52 1
    53   29   53 1
    54   30   54 1
    55   31   32 2
    56   31   33 1
    57   32   55 1
    58   32   56 1
    59   33   57 1
    60   33   58 1
    61   33   59 1
    62   34   60 1
    63   34   61 1
    64   34   62 1
@<TRIPOS>MOLECULE
ZINC26020837
   27    29     0     0     0
SMALL
USER_CHARGES
5-hydroxy-2-phenyl-isoindoline-1,3-dione
@<TRIPOS>ATOM
      1 C1          2.3962    0.0307   -0.0211 C.ar      1 <0>        -0.1252
      2 C2          1.2082   -0.6769   -0.0131 C.ar      1 <0>        -0.0992
      3 C3          0.0021   -0.0041    0.0020 C.ar      1 <0>        -0.1387
      4 C4         -0.0168    1.3841    0.0097 C.ar      1 <0>         0.1229
      5 C5          1.1777    2.0918    0.0020 C.ar      1 <0>        -0.1400
      6 C6          2.3807    1.4134   -0.0131 C.ar      1 <0>        -0.0995
      7 N1         -1.2391    2.0698    0.0192 N.am      1 <0>        -0.5190
      8 C7         -2.4453    1.4746    0.0158 C.2       1 <0>         0.5796
      9 O1         -2.6440    0.2762    0.0043 O.2       1 <0>        -0.4504
     10 C8         -3.4871    2.5196    0.0323 C.ar      1 <0>        -0.1889
     11 C9         -4.8746    2.5027    0.0388 C.ar      1 <0>         0.0065
     12 C10        -5.5767    3.6945    0.0477 C.ar      1 <0>        -0.1437
     13 C11        -4.9020    4.9077    0.0511 C.ar      1 <0>         0.1921
     14 C12        -3.5092    4.9381    0.0451 C.ar      1 <0>        -0.1370
     15 C13        -2.7985    3.7512    0.0357 C.ar      1 <0>        -0.0941
     16 C14        -1.3601    3.4096    0.0270 C.2       1 <0>         0.5757
     17 O2         -0.4421    4.2047    0.0266 O.2       1 <0>        -0.4470
     18 O3         -5.6027    6.0700    0.0608 O.3       1 <0>        -0.4955
     19 H1          3.3381   -0.4976   -0.0333 H         1 <0>         0.1282
     20 H2          1.2235   -1.7568   -0.0191 H         1 <0>         0.1323
     21 H3         -0.9255   -0.5573    0.0083 H         1 <0>         0.1554
     22 H4          1.1662    3.1718    0.0076 H         1 <0>         0.1541
     23 H5          3.3101    1.9634   -0.0190 H         1 <0>         0.1320
     24 H6         -5.4048    1.5618    0.0362 H         1 <0>         0.1520
     25 H7         -6.6566    3.6810    0.0525 H         1 <0>         0.1511
     26 H8         -2.9869    5.8834    0.0474 H         1 <0>         0.1495
     27 H9         -5.0708    7.0329    0.0635 H         1 <0>         0.4469
@<TRIPOS>BOND
     1    1    6 ar
     2    1    2 ar
     3    1   19 1
     4    2    3 ar
     5    2   20 1
     6    3    4 ar
     7    3   21 1
     8    4    5 ar
     9    4    7 1
    10    5    6 ar
    11    5   22 1
    12    6   23 1
    13    7   16 am
    14    7    8 am
    15    8    9 2
    16    8   10 1
    17   10   15 ar
    18   10   11 ar
    19   11   12 ar
    20   11   24 1
    21   12   13 ar
    22   12   25 1
    23   13   14 ar
    24   13   18 1
    25   14   15 ar
    26   14   26 1
    27   15   16 1
    28   16   17 2
    29   18   27 1
@<TRIPOS>MOLECULE
ZINC26020837
   26    28     0     0     0
SMALL
USER_CHARGES
5-hydroxy-2-phenyl-isoindoline-1,3-dione
@<TRIPOS>ATOM
      1 C1          2.3962    0.0307   -0.0211 C.ar      1 <0>        -0.1404
      2 C2          1.2082   -0.6769   -0.0131 C.ar      1 <0>        -0.1028
      3 C3          0.0021   -0.0041    0.0020 C.ar      1 <0>        -0.1455
      4 C4         -0.0168    1.3841    0.0097 C.ar      1 <0>         0.1417
      5 C5          1.1777    2.0918    0.0020 C.ar      1 <0>        -0.1481
      6 C6          2.3807    1.4134   -0.0131 C.ar      1 <0>        -0.1023
      7 N1         -1.2391    2.0698    0.0192 N.am      1 <0>        -0.5278
      8 C7         -2.4453    1.4746    0.0158 C.2       1 <0>         0.5848
      9 O1         -2.6440    0.2762    0.0043 O.2       1 <0>        -0.4967
     10 C8         -3.4871    2.5196    0.0323 C.ar      1 <0>        -0.3083
     11 C9         -4.8746    2.5027    0.0388 C.ar      1 <0>         0.0225
     12 C10        -5.5767    3.6945    0.0477 C.ar      1 <0>        -0.2625
     13 C11        -4.9020    4.9077    0.0511 C.ar      1 <0>         0.2925
     14 C12        -3.5092    4.9381    0.0451 C.ar      1 <0>        -0.1557
     15 C13        -2.7985    3.7512    0.0357 C.ar      1 <0>        -0.0972
     16 C14        -1.3601    3.4096    0.0270 C.2       1 <0>         0.5784
     17 O2         -0.4421    4.2047    0.0266 O.2       1 <0>        -0.4760
     18 O3         -5.6027    6.0700    0.0608 O.3       1 <0>        -0.6881
     19 H1          3.3381   -0.4976   -0.0333 H         1 <0>         0.1210
     20 H2          1.2235   -1.7568   -0.0191 H         1 <0>         0.1260
     21 H3         -0.9255   -0.5573    0.0083 H         1 <0>         0.1570
     22 H4          1.1662    3.1718    0.0076 H         1 <0>         0.1550
     23 H5          3.3101    1.9634   -0.0190 H         1 <0>         0.1259
     24 H6         -5.4048    1.5618    0.0362 H         1 <0>         0.1132
     25 H7         -6.6566    3.6810    0.0525 H         1 <0>         0.1152
     26 H8         -2.9869    5.8834    0.0474 H         1 <0>         0.1183
@<TRIPOS>BOND
     1    1    6 ar
     2    1    2 ar
     3    1   19 1
     4    2    3 ar
     5    2   20 1
     6    3    4 ar
     7    3   21 1
     8    4    5 ar
     9    4    7 1
    10    5    6 ar
    11    5   22 1
    12    6   23 1
    13    7   16 am
    14    7    8 am
    15    8    9 2
    16    8   10 1
    17   10   15 ar
    18   10   11 ar
    19   11   12 ar
    20   11   24 1
    21   12   13 ar
    22   12   25 1
    23   13   14 ar
    24   13   18 1
    25   14   15 ar
    26   14   26 1
    27   15   16 1
    28   16   17 2
@<TRIPOS>MOLECULE
ZINC12353762
   39    42     0     0     0
SMALL
USER_CHARGES
(3aS,4R,9bR)-4-(4-hydroxyphenyl)-1,2,3,3a,4,9b-hexahydrocyclopenta[c]chromen-8-ol
@<TRIPOS>ATOM
      1 C1          1.5300    6.0648    0.9657 C.ar      1 <0>        -0.0736
      2 C2          1.3774    7.4169    1.2044 C.ar      1 <0>        -0.1471
      3 C3          1.7685    8.3382    0.2437 C.ar      1 <0>         0.1116
      4 C4          2.3174    7.8990   -0.9523 C.ar      1 <0>        -0.1452
      5 C5          2.4731    6.5460   -1.1839 C.ar      1 <0>        -0.0886
      6 C6          2.0825    5.6298   -0.2248 C.ar      1 <0>        -0.0937
      7 C7          2.2535    4.1545   -0.4800 C.3       1 <0>         0.1429
      8 H1          2.3521    3.9800   -1.5514 H         1 <0>         0.0796
      9 C8          3.5047    3.6570    0.2334 C.3       1 <0>        -0.1156
     10 H2          4.3785    4.2310   -0.0752 H         1 <0>         0.0994
     11 C9          3.3103    3.7340    1.7636 C.3       1 <0>        -0.1176
     12 C10         4.2810    2.6714    2.3209 C.3       1 <0>        -0.1237
     13 C11         4.5324    1.6656    1.1838 C.3       1 <0>        -0.1164
     14 C12         3.7047    2.1523   -0.0271 C.3       1 <0>        -0.0460
     15 H3          4.2323    1.9855   -0.9662 H         1 <0>         0.0932
     16 C13         2.3852    1.4254   -0.0150 C.ar      1 <0>        -0.1269
     17 C14         2.4014    0.0382   -0.0225 C.ar      1 <0>        -0.1113
     18 C15         1.2155   -0.6762   -0.0137 C.ar      1 <0>         0.0756
     19 C16         0.0021   -0.0041    0.0020 C.ar      1 <0>        -0.1138
     20 C17        -0.0166    1.3755    0.0096 C.ar      1 <0>        -0.1286
     21 C18         1.1751    2.0925    0.0021 C.ar      1 <0>         0.1222
     22 O1          1.1143    3.4509    0.0139 O.3       1 <0>        -0.3022
     23 O2          1.2402   -2.0358   -0.0208 O.3       1 <0>        -0.4974
     24 O3          1.6147    9.6687    0.4740 O.3       1 <0>        -0.4998
     25 H4          1.2212    5.3471    1.7113 H         1 <0>         0.1320
     26 H5          0.9499    7.7564    2.1363 H         1 <0>         0.1309
     27 H6          2.6230    8.6142   -1.7016 H         1 <0>         0.1320
     28 H7          2.9006    6.2036   -2.1147 H         1 <0>         0.1290
     29 H8          3.5760    4.7246    2.1327 H         1 <0>         0.0705
     30 H9          2.2823    3.4893    2.0305 H         1 <0>         0.0737
     31 H10         3.8301    2.1651    3.1744 H         1 <0>         0.0649
     32 H11         5.2187    3.1407    2.6183 H         1 <0>         0.0657
     33 H12         4.2034    0.6711    1.4854 H         1 <0>         0.0719
     34 H13         5.5919    1.6466    0.9285 H         1 <0>         0.0694
     35 H14         3.3447   -0.4875   -0.0356 H         1 <0>         0.1311
     36 H15        -0.9246   -0.5587    0.0086 H         1 <0>         0.1354
     37 H16        -0.9603    1.9007    0.0169 H         1 <0>         0.1355
     38 H17         1.2384   -2.4246   -0.9062 H         1 <0>         0.3883
     39 H18         0.7635   10.0226    0.1819 H         1 <0>         0.3930
@<TRIPOS>BOND
     1    1    6 ar
     2    1    2 ar
     3    1   25 1
     4    2    3 ar
     5    2   26 1
     6    3    4 ar
     7    3   24 1
     8    4    5 ar
     9    4   27 1
    10    5    6 ar
    11    5   28 1
    12    6    7 1
    13    7    8 1
    14    7   22 1
    15    7    9 1
    16    9   10 1
    17    9   14 1
    18    9   11 1
    19   11   12 1
    20   11   29 1
    21   11   30 1
    22   12   13 1
    23   12   31 1
    24   12   32 1
    25   13   14 1
    26   13   33 1
    27   13   34 1
    28   14   15 1
    29   14   16 1
    30   16   21 ar
    31   16   17 ar
    32   17   18 ar
    33   17   35 1
    34   18   19 ar
    35   18   23 1
    36   19   20 ar
    37   19   36 1
    38   20   21 ar
    39   20   37 1
    40   21   22 1
    41   23   38 1
    42   24   39 1
@<TRIPOS>MOLECULE
ZINC03871576
   30    32     0     0     0
SMALL
USER_CHARGES

@<TRIPOS>ATOM
      1 C1         -0.0169    1.3935    0.0097 C.ar      1 <0>        -0.0604
      2 C2          1.1676    2.0963    0.0022 C.ar      1 <0>        -0.1497
      3 C3          2.3803    1.4179   -0.0135 C.ar      1 <0>         0.1360
      4 C4          2.4038    0.0284   -0.0212 C.ar      1 <0>        -0.1474
      5 C5          1.2241   -0.6823   -0.0133 C.ar      1 <0>        -0.0612
      6 C6          0.0021   -0.0041    0.0020 C.ar      1 <0>        -0.0853
      7 C7         -1.2639   -0.7610    0.0105 C.2       1 <0>         0.2092
      8 C8         -1.2134   -2.1203    0.0083 C.2       1 <0>        -0.3116
      9 C9         -2.4177   -2.8631    0.0169 C.2       1 <0>         0.4226
     10 O1         -2.4099   -4.0836    0.0156 O.2       1 <0>        -0.4538
     11 C10        -3.6809   -2.1061    0.0279 C.ar      1 <0>        -0.2659
     12 C11        -4.9199   -2.7591    0.0374 C.ar      1 <0>         0.2192
     13 C12        -6.0832   -2.0121    0.0480 C.ar      1 <0>        -0.2049
     14 C13        -6.0212   -0.6227    0.0493 C.ar      1 <0>         0.1922
     15 C14        -4.7984    0.0300    0.0400 C.ar      1 <0>        -0.1830
     16 C15        -3.6212   -0.7020    0.0293 C.ar      1 <0>         0.1830
     17 O2         -2.4220   -0.0821    0.0257 O.3       1 <0>        -0.2182
     18 O3         -7.1695    0.1013    0.0593 O.3       1 <0>        -0.4872
     19 O4         -4.9782   -4.1150    0.0356 O.3       1 <0>        -0.4722
     20 O5          3.5455    2.1145   -0.0218 O.3       1 <0>        -0.4965
     21 H1         -0.9589    1.9215    0.0260 H         1 <0>         0.1404
     22 H2          1.1538    3.1762    0.0081 H         1 <0>         0.1393
     23 H3          3.3485   -0.4949   -0.0338 H         1 <0>         0.1414
     24 H4          1.2432   -1.7622   -0.0196 H         1 <0>         0.1415
     25 H5         -0.2608   -2.6290   -0.0002 H         1 <0>         0.1637
     26 H6         -7.0423   -2.5086    0.0550 H         1 <0>         0.1502
     27 H7         -4.7627    1.1094    0.0411 H         1 <0>         0.1534
     28 H8         -7.4952    0.3100    0.9456 H         1 <0>         0.4037
     29 H9         -4.9875   -4.5094    0.9185 H         1 <0>         0.4031
     30 H10         3.8920    2.3119    0.8591 H         1 <0>         0.3984
@<TRIPOS>BOND
     1    1    6 ar
     2    1    2 ar
     3    1   21 1
     4    2    3 ar
     5    2   22 1
     6    3    4 ar
     7    3   20 1
     8    4    5 ar
     9    4   23 1
    10    5    6 ar
    11    5   24 1
    12    6    7 1
    13    7   17 1
    14    7    8 2
    15    8    9 1
    16    8   25 1
    17    9   10 2
    18    9   11 1
    19   11   16 ar
    20   11   12 ar
    21   12   13 ar
    22   12   19 1
    23   13   14 ar
    24   13   26 1
    25   14   15 ar
    26   14   18 1
    27   15   16 ar
    28   15   27 1
    29   16   17 1
    30   18   28 1
    31   19   29 1
    32   20   30 1
@<TRIPOS>MOLECULE
ZINC03871576
   29    31     0     0     0
SMALL
USER_CHARGES

@<TRIPOS>ATOM
      1 C1         -0.0169    1.3945    0.0097 C.ar      1 <0>        -0.0666
      2 C2          1.1672    2.0969    0.0022 C.ar      1 <0>        -0.1480
      3 C3          2.3804    1.4183   -0.0135 C.ar      1 <0>         0.1175
      4 C4          2.4042    0.0284   -0.0212 C.ar      1 <0>        -0.1471
      5 C5          1.2251   -0.6825   -0.0138 C.ar      1 <0>        -0.0696
      6 C6          0.0021   -0.0041    0.0020 C.ar      1 <0>        -0.0607
      7 C7         -1.2623   -0.7603    0.0105 C.2       1 <0>         0.1733
      8 C8         -1.2238   -2.1392    0.0085 C.2       1 <0>        -0.2675
      9 C9         -2.4161   -2.8666    0.0170 C.2       1 <0>         0.3649
     10 C10        -3.6370   -2.1554    0.0275 C.2       1 <0>        -0.3407
     11 C11        -4.8707   -2.8387    0.0369 C.2       1 <0>         0.2653
     12 C12        -6.0384   -2.1317    0.0475 C.2       1 <0>        -0.3780
     13 C13        -6.0158   -0.7277    0.0485 C.2       1 <0>         0.3615
     14 O1         -7.1627   -0.0461    0.0589 O.2       1 <0>        -0.6669
     15 C14        -4.7977   -0.0391    0.0393 C.2       1 <0>        -0.3147
     16 C15        -3.6098   -0.7430    0.0291 C.2       1 <0>         0.2111
     17 O2         -2.4272   -0.0920    0.0257 O.3       1 <0>        -0.2196
     18 O3         -4.8969   -4.1953    0.0351 O.3       1 <0>        -0.4477
     19 O4         -2.4024   -4.2178    0.0147 O.3       1 <0>        -0.5784
     20 O5          3.5452    2.1149   -0.0218 O.3       1 <0>        -0.4988
     21 H1         -0.9589    1.9225    0.0260 H         1 <0>         0.1416
     22 H2          1.1536    3.1768    0.0081 H         1 <0>         0.1349
     23 H3          3.3490   -0.4946   -0.0334 H         1 <0>         0.1360
     24 H4          1.2446   -1.7623   -0.0201 H         1 <0>         0.1407
     25 H5         -0.2747   -2.6546   -0.0001 H         1 <0>         0.1464
     26 H6         -6.9835   -2.6543    0.0547 H         1 <0>         0.1160
     27 H7         -4.7867    1.0408    0.0398 H         1 <0>         0.1203
     28 H8         -5.7877   -4.5715    0.0420 H         1 <0>         0.3828
     29 H9          3.8917    2.3124    0.8591 H         1 <0>         0.3921
@<TRIPOS>BOND
     1    1    6 ar
     2    1    2 ar
     3    1   21 1
     4    2    3 ar
     5    2   22 1
     6    3    4 ar
     7    3   20 1
     8    4    5 ar
     9    4   23 1
    10    5    6 ar
    11    5   24 1
    12    6    7 1
    13    7   17 1
    14    7    8 2
    15    8    9 1
    16    8   25 1
    17    9   10 2
    18    9   19 1
    19   10   16 1
    20   10   11 1
    21   11   12 2
    22   11   18 1
    23   12   13 1
    24   12   26 1
    25   13   14 2
    26   13   15 1
    27   15   16 2
    28   15   27 1
    29   16   17 1
    30   18   28 1
    31   20   29 1
@<TRIPOS>MOLECULE
ZINC13472839
   28    30     0     0     0
SMALL
USER_CHARGES
2-(3-fluoro-4-hydroxy-phenyl)benzothiophene-4,6-diol
@<TRIPOS>ATOM
      1 C1         -0.0126    1.0758    0.0080 C.ar      1 <0>        -0.0972
      2 C2         -1.2161    1.7497    0.0173 C.ar      1 <0>        -0.1089
      3 C3         -1.2371    3.1369    0.0293 C.ar      1 <0>         0.0826
      4 C4         -0.0454    3.8539    0.0222 C.ar      1 <0>         0.0826
      5 C5          1.1625    3.1865    0.0076 C.ar      1 <0>        -0.1209
      6 C6          1.1860    1.7905    0.0004 C.ar      1 <0>         0.0115
      7 C7          2.4775    1.0712   -0.0148 C.2       1 <0>        -0.0981
      8 C8          3.7274    1.5915   -0.0238 C.2       1 <0>        -0.1107
      9 C9          4.8669    0.6898   -0.0380 C.ar      1 <0>        -0.1245
     10 C10         6.2507    1.0127   -0.0486 C.ar      1 <0>         0.1720
     11 C11         7.2001    0.0201   -0.0606 C.ar      1 <0>        -0.1750
     12 C12         6.8390   -1.3249   -0.0632 C.ar      1 <0>         0.1535
     13 C13         5.4974   -1.6708   -0.0535 C.ar      1 <0>        -0.1146
     14 C14         4.5360   -0.6823   -0.0410 C.ar      1 <0>        -0.0853
     15 S1          2.7616   -0.6886   -0.0178 S.3       1 <0>         0.0730
     16 O1          7.7953   -2.2908   -0.0746 O.3       1 <0>        -0.4885
     17 O2          6.6383    2.3148   -0.0465 O.3       1 <0>        -0.4913
     18 F1         -0.0703    5.2046    0.0292 F         1 <0>        -0.1270
     19 O3         -2.4254    3.7970    0.0428 O.3       1 <0>        -0.4860
     20 H1          0.0021   -0.0041    0.0020 H         1 <0>         0.1380
     21 H2         -2.1437    1.1966    0.0191 H         1 <0>         0.1475
     22 H3          2.0880    3.7431    0.0021 H         1 <0>         0.1451
     23 H4          3.8754    2.6613   -0.0201 H         1 <0>         0.1432
     24 H5          8.2463    0.2877   -0.0678 H         1 <0>         0.1439
     25 H6          5.2058   -2.7107   -0.0557 H         1 <0>         0.1431
     26 H7          8.0790   -2.5738    0.8054 H         1 <0>         0.3985
     27 H8          6.7581    2.6881    0.8375 H         1 <0>         0.3970
     28 H9         -2.7769    3.9921   -0.8366 H         1 <0>         0.3965
@<TRIPOS>BOND
     1    1    6 ar
     2    1    2 ar
     3    1   20 1
     4    2    3 ar
     5    2   21 1
     6    3    4 ar
     7    3   19 1
     8    4    5 ar
     9    4   18 1
    10    5    6 ar
    11    5   22 1
    12    6    7 1
    13    7   15 1
    14    7    8 2
    15    8    9 1
    16    8   23 1
    17    9   14 ar
    18    9   10 ar
    19   10   11 ar
    20   10   17 1
    21   11   12 ar
    22   11   24 1
    23   12   13 ar
    24   12   16 1
    25   13   14 ar
    26   13   25 1
    27   14   15 1
    28   16   26 1
    29   17   27 1
    30   19   28 1
@<TRIPOS>MOLECULE
ZINC03824868
   30    32     0     0     0
SMALL
USER_CHARGES

@<TRIPOS>ATOM
      1 C1         -0.0184    1.5028    0.0103 C.3       1 <0>        -0.1226
      2 C2          0.0021   -0.0041    0.0020 C.ar      1 <0>        -0.0467
      3 C3          0.0056   -0.6846   -1.2057 C.ar      1 <0>        -0.0777
      4 C4          0.0247   -2.0740   -1.2193 C.ar      1 <0>        -0.1023
      5 C5          0.0393   -2.7853   -0.0037 C.ar      1 <0>        -0.1570
      6 C6          0.0359   -2.0869    1.2054 C.ar      1 <0>         0.1678
      7 C7          0.0228   -0.6942    1.1963 C.ar      1 <0>        -0.1289
      8 O1          0.0505   -2.7608    2.3820 O.3       1 <0>        -0.4752
      9 C8          0.0585   -4.2611   -0.0191 C.2       1 <0>         0.4332
     10 O2         -0.1799   -4.8894    0.9949 O.2       1 <0>        -0.4012
     11 C9          0.3688   -4.9653   -1.2755 C.ar      1 <0>        -0.1610
     12 C10         0.3560   -4.2577   -2.4949 C.ar      1 <0>        -0.0881
     13 C11         0.6490   -4.9184   -3.6792 C.ar      1 <0>        -0.1045
     14 C12         0.9543   -6.2780   -3.6592 C.ar      1 <0>         0.1499
     15 C13         0.9669   -6.9770   -2.4633 C.ar      1 <0>        -0.1574
     16 C14         0.6764   -6.3296   -1.2684 C.ar      1 <0>         0.1816
     17 O3          0.6910   -7.0180   -0.1003 O.3       1 <0>        -0.4772
     18 O4          1.2407   -6.9216   -4.8193 O.3       1 <0>        -0.4894
     19 C15         0.0302   -2.8145   -2.4994 C.2       1 <0>         0.4391
     20 O5         -0.2290   -2.2451   -3.5412 O.2       1 <0>        -0.4183
     21 H1          1.0042    1.8801    0.0026 H         1 <0>         0.0818
     22 H2         -0.5455    1.8639   -0.8728 H         1 <0>         0.0767
     23 H3         -0.5286    1.8543    0.9071 H         1 <0>         0.0758
     24 H4         -0.0068   -0.1353   -2.1355 H         1 <0>         0.1465
     25 H5          0.0245   -0.1513    2.1300 H         1 <0>         0.1448
     26 H6          0.9381   -2.9447    2.7190 H         1 <0>         0.3987
     27 H7          0.6401   -4.3799   -4.6153 H         1 <0>         0.1529
     28 H8          1.2042   -8.0306   -2.4595 H         1 <0>         0.1513
     29 H9         -0.1605   -7.4111    0.1353 H         1 <0>         0.4051
     30 H10         2.1793   -6.9145   -5.0516 H         1 <0>         0.4024
@<TRIPOS>BOND
     1    1    2 1
     2    1   21 1
     3    1   22 1
     4    1   23 1
     5    2    7 ar
     6    2    3 ar
     7    3    4 ar
     8    3   24 1
     9    4   19 1
    10    4    5 ar
    11    5    6 ar
    12    5    9 1
    13    6    7 ar
    14    6    8 1
    15    7   25 1
    16    8   26 1
    17    9   10 2
    18    9   11 1
    19   11   16 ar
    20   11   12 ar
    21   12   13 ar
    22   12   19 1
    23   13   14 ar
    24   13   27 1
    25   14   15 ar
    26   14   18 1
    27   15   16 ar
    28   15   28 1
    29   16   17 1
    30   17   29 1
    31   18   30 1
    32   19   20 2
@<TRIPOS>MOLECULE
ZINC00519098
   39    41     0     0     0
SMALL
USER_CHARGES
4-[1-(hydroxymethyl)-6-methyl-3-oxabicyclo[3.3.1]non-6-en-4-yl]phenol
@<TRIPOS>ATOM
      1 C1         -0.0303    1.1076    0.0132 C.3       1 <0>        -0.1190
      2 C2         -0.7399    1.5732    1.2585 C.2       1 <0>        -0.1202
      3 C3         -2.0209    1.7473    1.2091 C.2       1 <0>        -0.1420
      4 C4         -2.8630    2.2238    2.3533 C.3       1 <0>        -0.0671
      5 C5         -2.0743    2.2321    3.6573 C.3       1 <0>        -0.0845
      6 C6         -0.6693    2.8214    3.3939 C.3       1 <0>        -0.1101
      7 C7          0.0776    1.8198    2.5006 C.3       1 <0>        -0.0731
      8 H1          1.0680    2.1952    2.2432 H         1 <0>         0.0929
      9 C8          0.1798    0.4845    3.2598 C.3       1 <0>         0.1382
     10 H2          0.7568   -0.2305    2.6733 H         1 <0>         0.1153
     11 O1         -1.1497   -0.0085    3.4565 O.3       1 <0>        -0.3586
     12 C9         -1.9740    0.8365    4.2575 C.3       1 <0>         0.0722
     13 C10         0.8452    0.7053    4.5938 C.ar      1 <0>        -0.1228
     14 C11         1.8681    1.6282    4.7106 C.ar      1 <0>        -0.0941
     15 C12         2.4758    1.8365    5.9336 C.ar      1 <0>        -0.1456
     16 C13         2.0666    1.1105    7.0427 C.ar      1 <0>         0.1061
     17 C14         1.0438    0.1810    6.9217 C.ar      1 <0>        -0.1453
     18 C15         0.4355   -0.0195    5.6977 C.ar      1 <0>        -0.0883
     19 O2          2.6663    1.3099    8.2458 O.3       1 <0>        -0.5005
     20 C16        -2.7863    3.1466    4.6561 C.3       1 <0>         0.0836
     21 O3         -4.0950    2.6369    4.9195 O.3       1 <0>        -0.5700
     22 H3          0.0011    0.0181   -0.0012 H         1 <0>         0.0658
     23 H4          0.9863    1.5006    0.0058 H         1 <0>         0.0600
     24 H5         -0.5653    1.4673   -0.8657 H         1 <0>         0.0615
     25 H6         -2.5203    1.5297    0.2765 H         1 <0>         0.1027
     26 H7         -3.7259    1.5668    2.4624 H         1 <0>         0.0789
     27 H8         -3.2103    3.2347    2.1399 H         1 <0>         0.0708
     28 H9         -0.1401    2.9392    4.3395 H         1 <0>         0.0741
     29 H10        -0.7424    3.7843    2.8882 H         1 <0>         0.0737
     30 H11        -2.9721    0.4034    4.3245 H         1 <0>         0.1005
     31 H12        -1.5480    0.9074    5.2583 H         1 <0>         0.0556
     32 H13         2.1892    2.1899    3.8458 H         1 <0>         0.1290
     33 H14         3.2717    2.5606    6.0252 H         1 <0>         0.1295
     34 H15         0.7237   -0.3856    7.7836 H         1 <0>         0.1295
     35 H16        -0.3610   -0.7428    5.6031 H         1 <0>         0.1331
     36 H17         3.4321    0.7408    8.4027 H         1 <0>         0.3921
     37 H18        -2.2170    3.1834    5.5848 H         1 <0>         0.0462
     38 H19        -2.8646    4.1502    4.2379 H         1 <0>         0.0492
     39 H20        -4.6053    3.1680    5.5461 H         1 <0>         0.3809
@<TRIPOS>BOND
     1    1    2 1
     2    1   22 1
     3    1   23 1
     4    1   24 1
     5    2    7 1
     6    2    3 2
     7    3    4 1
     8    3   25 1
     9    4    5 1
    10    4   26 1
    11    4   27 1
    12    5   12 1
    13    5    6 1
    14    5   20 1
    15    6    7 1
    16    6   28 1
    17    6   29 1
    18    7    8 1
    19    7    9 1
    20    9   10 1
    21    9   11 1
    22    9   13 1
    23   11   12 1
    24   12   30 1
    25   12   31 1
    26   13   18 ar
    27   13   14 ar
    28   14   15 ar
    29   14   32 1
    30   15   16 ar
    31   15   33 1
    32   16   17 ar
    33   16   19 1
    34   17   18 ar
    35   17   34 1
    36   18   35 1
    37   19   36 1
    38   20   21 1
    39   20   37 1
    40   20   38 1
    41   21   39 1
@<TRIPOS>MOLECULE
ZINC00519099
   39    41     0     0     0
SMALL
USER_CHARGES
4-[1-(hydroxymethyl)-6-methyl-3-oxabicyclo[3.3.1]non-6-en-4-yl]phenol
@<TRIPOS>ATOM
      1 C1          0.6629    1.3111   -0.6784 C.3       1 <0>        -0.1218
      2 C2          0.5843   -0.1829   -0.4971 C.2       1 <0>        -0.1097
      3 C3          0.7618   -0.9392   -1.5317 C.2       1 <0>        -0.1498
      4 C4          0.6919   -2.4151   -1.5090 C.3       1 <0>        -0.0663
      5 C5          0.6509   -2.9758   -0.0925 C.3       1 <0>        -0.0879
      6 C6         -0.3140   -2.1272    0.7420 C.3       1 <0>        -0.1091
      7 C7          0.2967   -0.7246    0.8796 C.3       1 <0>        -0.0724
      8 H1         -0.3667   -0.0554    1.4275 H         1 <0>         0.0941
      9 C8          1.6443   -0.8751    1.6085 C.3       1 <0>         0.1384
     10 H2          1.4932   -1.3766    2.5643 H         1 <0>         0.0712
     11 O1          2.5040   -1.6628    0.7779 O.3       1 <0>        -0.3648
     12 C9          2.0346   -2.9893    0.5424 C.3       1 <0>         0.0815
     13 C10         2.2563    0.4832    1.8358 C.ar      1 <0>        -0.0853
     14 C11         3.2060    0.9683    0.9559 C.ar      1 <0>        -0.0689
     15 C12         3.7644    2.2155    1.1589 C.ar      1 <0>        -0.1501
     16 C13         3.3796    2.9765    2.2532 C.ar      1 <0>         0.1062
     17 C14         2.4306    2.4851    3.1378 C.ar      1 <0>        -0.1461
     18 C15         1.8711    1.2397    2.9272 C.ar      1 <0>        -0.0958
     19 O2          3.9312    4.2016    2.4580 O.3       1 <0>        -0.5008
     20 C16         0.1214   -4.4102   -0.1472 C.3       1 <0>         0.0852
     21 O3          1.0061   -5.2150   -0.9293 O.3       1 <0>        -0.5698
     22 H3          1.7032    1.6305   -0.6162 H         1 <0>         0.0709
     23 H4          0.2578    1.5805   -1.6539 H         1 <0>         0.0584
     24 H5          0.0844    1.8029    0.1036 H         1 <0>         0.0576
     25 H6          0.9775   -0.4568   -2.4736 H         1 <0>         0.1028
     26 H7          1.5709   -2.8055   -2.0220 H         1 <0>         0.0774
     27 H8         -0.2028   -2.7328   -2.0445 H         1 <0>         0.0708
     28 H9         -0.4402   -2.5736    1.7283 H         1 <0>         0.0701
     29 H10        -1.2787   -2.0623    0.2388 H         1 <0>         0.0759
     30 H11         2.7289   -3.5014   -0.1238 H         1 <0>         0.1033
     31 H12         1.9872   -3.5255    1.4902 H         1 <0>         0.0475
     32 H13         3.5084    0.3736    0.1066 H         1 <0>         0.1339
     33 H14         4.5030    2.5958    0.4689 H         1 <0>         0.1282
     34 H15         2.1292    3.0759    3.9902 H         1 <0>         0.1292
     35 H16         1.1320    0.8569    3.6153 H         1 <0>         0.1260
     36 H17         4.7319    4.1868    2.9999 H         1 <0>         0.3911
     37 H18         0.0608   -4.8140    0.8635 H         1 <0>         0.0473
     38 H19        -0.8699   -4.4146   -0.6002 H         1 <0>         0.0502
     39 H20         0.7320   -6.1391   -1.0071 H         1 <0>         0.3817
@<TRIPOS>BOND
     1    1    2 1
     2    1   22 1
     3    1   23 1
     4    1   24 1
     5    2    7 1
     6    2    3 2
     7    3    4 1
     8    3   25 1
     9    4    5 1
    10    4   26 1
    11    4   27 1
    12    5   12 1
    13    5    6 1
    14    5   20 1
    15    6    7 1
    16    6   28 1
    17    6   29 1
    18    7    8 1
    19    7    9 1
    20    9   10 1
    21    9   11 1
    22    9   13 1
    23   11   12 1
    24   12   30 1
    25   12   31 1
    26   13   18 ar
    27   13   14 ar
    28   14   15 ar
    29   14   32 1
    30   15   16 ar
    31   15   33 1
    32   16   17 ar
    33   16   19 1
    34   17   18 ar
    35   17   34 1
    36   18   35 1
    37   19   36 1
    38   20   21 1
    39   20   37 1
    40   20   38 1
    41   21   39 1
@<TRIPOS>MOLECULE
ZINC13456778
   38    39     0     0     0
SMALL
USER_CHARGES
1,3-dimethoxy-5-[(E)-2-(4-methoxyphenyl)vinyl]benzene
@<TRIPOS>ATOM
      1 C1         -7.2608   -4.2202    0.0539 C.3       1 <0>         0.0257
      2 O1         -6.0505   -4.9798    0.0373 O.3       1 <0>        -0.3164
      3 C2         -4.8847   -4.2824    0.0286 C.ar      1 <0>         0.1324
      4 C3         -3.6725   -4.9604    0.0124 C.ar      1 <0>        -0.1520
      5 C4         -2.4874   -4.2573    0.0039 C.ar      1 <0>        -0.0628
      6 C5         -2.5065   -2.8597    0.0116 C.ar      1 <0>        -0.1009
      7 C6         -3.7288   -2.1819    0.0332 C.ar      1 <0>        -0.0679
      8 C7         -4.9087   -2.8936    0.0362 C.ar      1 <0>        -0.2081
      9 C8         -1.2420   -2.1033    0.0031 C.2       1 <0>        -0.0813
     10 C9         -1.2628   -0.7607    0.0105 C.2       1 <0>        -0.1222
     11 C10         0.0021   -0.0041    0.0020 C.ar      1 <0>         0.0260
     12 C11        -0.0169    1.3926    0.0097 C.ar      1 <0>        -0.1792
     13 C12         1.1741    2.0989    0.0021 C.ar      1 <0>         0.1680
     14 C13         2.3851    1.4215   -0.0126 C.ar      1 <0>        -0.2996
     15 C14         2.4091    0.0340   -0.0208 C.ar      1 <0>         0.1689
     16 C15         1.2236   -0.6813   -0.0133 C.ar      1 <0>        -0.1854
     17 O2          3.5983   -0.6237   -0.0356 O.3       1 <0>        -0.3135
     18 C16         4.7822    0.1764   -0.0427 C.3       1 <0>         0.0262
     19 O3          1.1569    3.4578    0.0091 O.3       1 <0>        -0.3135
     20 C17         2.4219    4.1226    0.0007 C.3       1 <0>         0.0262
     21 H1         -7.2860   -3.5963    0.9473 H         1 <0>         0.0569
     22 H2         -7.3047   -3.5874   -0.8325 H         1 <0>         0.0569
     23 H3         -8.1148   -4.8975    0.0594 H         1 <0>         0.1019
     24 H4         -3.6588   -6.0403    0.0061 H         1 <0>         0.1337
     25 H5         -1.5454   -4.7853   -0.0083 H         1 <0>         0.1338
     26 H6         -3.7484   -1.1021    0.0437 H         1 <0>         0.1296
     27 H7         -5.8536   -2.3707    0.0488 H         1 <0>         0.1305
     28 H8         -0.2986   -2.6287   -0.0091 H         1 <0>         0.1264
     29 H9         -2.2063   -0.2353    0.0227 H         1 <0>         0.1268
     30 H10        -0.9589    1.9207    0.0170 H         1 <0>         0.1346
     31 H11         3.3119    1.9759   -0.0185 H         1 <0>         0.1344
     32 H12         1.2434   -1.7611   -0.0196 H         1 <0>         0.1354
     33 H13         5.6586   -0.4716   -0.0545 H         1 <0>         0.1031
     34 H14         4.7871    0.8104   -0.9293 H         1 <0>         0.0556
     35 H15         4.8041    0.8008    0.8505 H         1 <0>         0.0556
     36 H16         2.9742    3.8413   -0.8960 H         1 <0>         0.0556
     37 H17         2.2655    5.2013    0.0076 H         1 <0>         0.1031
     38 H18         2.9908    3.8323    0.8839 H         1 <0>         0.0556
@<TRIPOS>BOND
     1    1    2 1
     2    1   21 1
     3    1   22 1
     4    1   23 1
     5    2    3 1
     6    3    8 ar
     7    3    4 ar
     8    4    5 ar
     9    4   24 1
    10    5    6 ar
    11    5   25 1
    12    6    7 ar
    13    6    9 1
    14    7    8 ar
    15    7   26 1
    16    8   27 1
    17    9   10 2
    18    9   28 1
    19   10   11 1
    20   10   29 1
    21   11   16 ar
    22   11   12 ar
    23   12   13 ar
    24   12   30 1
    25   13   14 ar
    26   13   19 1
    27   14   15 ar
    28   14   31 1
    29   15   16 ar
    30   15   17 1
    31   16   32 1
    32   17   18 1
    33   18   33 1
    34   18   34 1
    35   18   35 1
    36   19   20 1
    37   20   36 1
    38   20   37 1
    39   20   38 1
@<TRIPOS>MOLECULE
ZINC03860201
   26    28     0     0     0
SMALL
USER_CHARGES

@<TRIPOS>ATOM
      1 C1         -0.0168    1.3845    0.0097 C.ar      1 <0>        -0.1270
      2 C2          1.1650    2.1000    0.0022 C.ar      1 <0>        -0.0478
      3 C3          2.3841    1.4267   -0.0127 C.ar      1 <0>        -0.1325
      4 C4          2.4065    0.0182   -0.0203 C.ar      1 <0>        -0.1001
      5 C5          1.2129   -0.6904   -0.0126 C.ar      1 <0>        -0.0965
      6 C6          0.0021   -0.0041    0.0020 C.ar      1 <0>         0.1340
      7 O1         -1.1658   -0.6952    0.0093 O.3       1 <0>        -0.4919
      8 C7          3.7040   -0.6939   -0.0350 C.2       1 <0>         0.4378
      9 O2          3.7510   -1.8807   -0.2926 O.2       1 <0>        -0.4231
     10 C8          4.9408    0.0547    0.2666 C.ar      1 <0>        -0.1324
     11 C9          6.1265   -0.6209    0.5446 C.ar      1 <0>        -0.0479
     12 C10         7.2758    0.0924    0.8256 C.ar      1 <0>        -0.1270
     13 C11         7.2572    1.4810    0.8327 C.ar      1 <0>         0.1339
     14 C12         6.0794    2.1695    0.5572 C.ar      1 <0>        -0.0965
     15 C13         4.9185    1.4631    0.2736 C.ar      1 <0>        -0.1000
     16 C14         3.6559    2.1775   -0.0200 C.2       1 <0>         0.4378
     17 O3          3.6655    3.3681   -0.2639 O.2       1 <0>        -0.4231
     18 O4          8.3930    2.1700    1.1100 O.3       1 <0>        -0.4918
     19 H1         -0.9611    1.9083    0.0260 H         1 <0>         0.1462
     20 H2          1.1436    3.1797    0.0076 H         1 <0>         0.1494
     21 H3          1.2237   -1.7704   -0.0192 H         1 <0>         0.1505
     22 H4         -1.5126   -0.8908   -0.8720 H         1 <0>         0.4010
     23 H5          6.1475   -1.7007    0.5409 H         1 <0>         0.1494
     24 H6          8.1943   -0.4331    1.0416 H         1 <0>         0.1462
     25 H7          6.0688    3.2495    0.5633 H         1 <0>         0.1505
     26 H8          8.9276    2.3768    0.3312 H         1 <0>         0.4009
@<TRIPOS>BOND
     1    1    6 ar
     2    1    2 ar
     3    1   19 1
     4    2    3 ar
     5    2   20 1
     6    3   16 1
     7    3    4 ar
     8    4    5 ar
     9    4    8 1
    10    5    6 ar
    11    5   21 1
    12    6    7 1
    13    7   22 1
    14    8    9 2
    15    8   10 1
    16   10   15 ar
    17   10   11 ar
    18   11   12 ar
    19   11   23 1
    20   12   13 ar
    21   12   24 1
    22   13   14 ar
    23   13   18 1
    24   14   15 ar
    25   14   25 1
    26   15   16 1
    27   16   17 2
    28   18   26 1
@<TRIPOS>MOLECULE
ZINC00001219
   28    31     0     0     0
SMALL
USER_CHARGES

@<TRIPOS>ATOM
      1 C1         -0.0168    1.3865    0.0097 C.ar      1 <0>        -0.1422
      2 C2          1.1655    2.0945    0.0022 C.ar      1 <0>        -0.0480
      3 C3          2.3794    1.4136   -0.0130 C.ar      1 <0>        -0.0767
      4 C4          2.4032    0.0097   -0.0207 C.ar      1 <0>         0.0701
      5 C5          1.2039   -0.6900   -0.0130 C.ar      1 <0>        -0.1279
      6 C6          0.0021   -0.0041    0.0020 C.ar      1 <0>         0.1404
      7 O1         -1.1687   -0.6946    0.0099 O.3       1 <0>        -0.4888
      8 O2          3.6933   -0.3914   -0.0352 O.3       1 <0>        -0.1609
      9 C7          4.5331    0.6547   -0.0376 C.2       1 <0>         0.1715
     10 C8          3.7907    1.8325   -0.0242 C.2       1 <0>        -0.2715
     11 C9          4.4536    3.0786   -0.0243 C.2       1 <0>         0.5517
     12 O3          3.7968    4.1038   -0.0126 O.2       1 <0>        -0.4475
     13 O4          5.7947    3.1560   -0.0366 O.3       1 <0>        -0.2632
     14 C10         6.5757    2.0537   -0.0500 C.ar      1 <0>         0.1830
     15 C11         5.9969    0.7723   -0.0506 C.ar      1 <0>        -0.1258
     16 C12         6.8087   -0.3647   -0.0649 C.ar      1 <0>        -0.0303
     17 C13         8.1680   -0.2294   -0.0772 C.ar      1 <0>        -0.1623
     18 C14         8.7487    1.0359   -0.0750 C.ar      1 <0>         0.1780
     19 C15         7.9577    2.1732   -0.0631 C.ar      1 <0>        -0.1609
     20 O5         10.1011    1.1562   -0.0864 O.3       1 <0>        -0.4883
     21 H1         -0.9598    1.9126    0.0260 H         1 <0>         0.1456
     22 H2          1.1502    3.1743    0.0077 H         1 <0>         0.1457
     23 H3          1.2089   -1.7699   -0.0192 H         1 <0>         0.1465
     24 H4         -1.5162   -0.8897   -0.8712 H         1 <0>         0.3985
     25 H5          6.3627   -1.3483   -0.0659 H         1 <0>         0.1498
     26 H6          8.7954   -1.1085   -0.0882 H         1 <0>         0.1489
     27 H7          8.4161    3.1511   -0.0619 H         1 <0>         0.1595
     28 H8         10.4850    1.1962   -0.9731 H         1 <0>         0.4050
@<TRIPOS>BOND
     1    1    6 ar
     2    1    2 ar
     3    1   21 1
     4    2    3 ar
     5    2   22 1
     6    3   10 1
     7    3    4 ar
     8    4    5 ar
     9    4    8 1
    10    5    6 ar
    11    5   23 1
    12    6    7 1
    13    7   24 1
    14    8    9 1
    15    9   15 1
    16    9   10 2
    17   10   11 1
    18   11   12 2
    19   11   13 1
    20   13   14 1
    21   14   19 ar
    22   14   15 ar
    23   15   16 ar
    24   16   17 ar
    25   16   25 1
    26   17   18 ar
    27   17   26 1
    28   18   19 ar
    29   18   20 1
    30   19   27 1
    31   20   28 1
@<TRIPOS>MOLECULE
ZINC00009252
   38    39     0     0     0
SMALL
USER_CHARGES
1,3-dimethoxy-5-[2-(4-methoxyphenyl)vinyl]benzene
@<TRIPOS>ATOM
      1 C1         -1.1301    3.3257    5.2428 C.3       1 <0>         0.0267
      2 O1          0.1846    3.7751    4.9087 O.3       1 <0>        -0.3176
      3 C2          0.8232    3.1209    3.9037 C.ar      1 <0>         0.1348
      4 C3          0.1913    2.0709    3.2498 C.ar      1 <0>        -0.2115
      5 C4          0.8372    1.4007    2.2338 C.ar      1 <0>        -0.0669
      6 C5          2.1258    1.7865    1.8536 C.ar      1 <0>        -0.1044
      7 C6          2.7553    2.8476    2.5107 C.ar      1 <0>        -0.0497
      8 C7          2.1036    3.5080    3.5295 C.ar      1 <0>        -0.1523
      9 C8          2.8181    1.0774    0.7633 C.2       1 <0>        -0.0858
     10 C9          3.5738    1.7626   -0.1098 C.2       1 <0>        -0.1191
     11 C10         3.5538    3.2364   -0.1038 C.ar      1 <0>         0.0201
     12 C11         2.3554    3.9200    0.1146 C.ar      1 <0>        -0.1671
     13 C12         2.3428    5.3046    0.1241 C.ar      1 <0>         0.1667
     14 C13         3.5161    6.0130   -0.0929 C.ar      1 <0>        -0.2981
     15 C14         4.7081    5.3384   -0.3160 C.ar      1 <0>         0.1650
     16 C15         4.7321    3.9540   -0.3221 C.ar      1 <0>        -0.1824
     17 O2          5.8539    6.0378   -0.5283 O.3       1 <0>        -0.3138
     18 C16         5.7569    7.4633   -0.5085 C.3       1 <0>         0.0266
     19 O3          1.1784    5.9709    0.3416 O.3       1 <0>        -0.3115
     20 C17         1.2366    7.3987    0.3330 C.3       1 <0>         0.0269
     21 H1         -1.7790    3.4215    4.3723 H         1 <0>         0.0562
     22 H2         -1.0894    2.2814    5.5525 H         1 <0>         0.0560
     23 H3         -1.5247    3.9315    6.0585 H         1 <0>         0.1003
     24 H4         -0.8062    1.7766    3.5410 H         1 <0>         0.1283
     25 H5          0.3468    0.5814    1.7290 H         1 <0>         0.1269
     26 H6          3.7507    3.1495    2.2202 H         1 <0>         0.1292
     27 H7          2.5893    4.3277    4.0380 H         1 <0>         0.1278
     28 H8          2.7178    0.0064    0.6664 H         1 <0>         0.1302
     29 H9          4.1962    1.2339   -0.8165 H         1 <0>         0.1339
     30 H10         1.4411    3.3696    0.2799 H         1 <0>         0.1340
     31 H11         3.5015    7.0929   -0.0885 H         1 <0>         0.1330
     32 H12         5.6603    3.4299   -0.4958 H         1 <0>         0.1343
     33 H13         5.0655    7.7913   -1.2847 H         1 <0>         0.0550
     34 H14         5.3911    7.7892    0.4652 H         1 <0>         0.0551
     35 H15         6.7402    7.8970   -0.6910 H         1 <0>         0.1024
     36 H16         1.5935    7.7419   -0.6381 H         1 <0>         0.0546
     37 H17         0.2419    7.8040    0.5185 H         1 <0>         0.1015
     38 H18         1.9188    7.7392    1.1119 H         1 <0>         0.0549
@<TRIPOS>BOND
     1    1    2 1
     2    1   21 1
     3    1   22 1
     4    1   23 1
     5    2    3 1
     6    3    8 ar
     7    3    4 ar
     8    4    5 ar
     9    4   24 1
    10    5    6 ar
    11    5   25 1
    12    6    7 ar
    13    6    9 1
    14    7    8 ar
    15    7   26 1
    16    8   27 1
    17    9   10 2
    18    9   28 1
    19   10   11 1
    20   10   29 1
    21   11   16 ar
    22   11   12 ar
    23   12   13 ar
    24   12   30 1
    25   13   14 ar
    26   13   19 1
    27   14   15 ar
    28   14   31 1
    29   15   16 ar
    30   15   17 1
    31   16   32 1
    32   17   18 1
    33   18   33 1
    34   18   34 1
    35   18   35 1
    36   19   20 1
    37   20   36 1
    38   20   37 1
    39   20   38 1
@<TRIPOS>MOLECULE
ZINC03918428
   63    67     0     0     0
SMALL
USER_CHARGES
6-phenyl-5-[4-(2-pyrrolidin-1-ylethoxy)phenyl]-tetralin-2-ol
@<TRIPOS>ATOM
      1 C1          3.0955    0.3060   -4.6142 C.ar      1 <0>        -0.1219
      2 C2          2.0589    1.0678   -4.1085 C.ar      1 <0>        -0.1236
      3 C3          2.2845    1.9247   -3.0475 C.ar      1 <0>        -0.1040
      4 C4          3.5467    2.0191   -2.4917 C.ar      1 <0>        -0.0742
      5 C5          4.5845    1.2608   -3.0005 C.ar      1 <0>        -0.1123
      6 C6          4.3578    0.4007   -4.0587 C.ar      1 <0>        -0.1171
      7 C7          3.7927    2.9532   -1.3350 C.3       1 <0>        -0.0411
      8 H1          4.8573    3.1757   -1.2622 H         1 <0>         0.0905
      9 C8          3.0068    4.2529   -1.5447 C.3       1 <0>        -0.1211
     10 C9          3.4588    5.2639   -0.4929 C.3       1 <0>        -0.0858
     11 C10         3.3996    4.6572    0.8847 C.ar      1 <0>        -0.0550
     12 C11         3.4134    5.5210    1.9713 C.ar      1 <0>        -0.1475
     13 C12         3.3731    5.0257    3.2633 C.ar      1 <0>         0.1126
     14 C13         3.3184    3.6549    3.4715 C.ar      1 <0>        -0.1466
     15 C14         3.3020    2.7998    2.3906 C.ar      1 <0>        -0.0929
     16 C15         3.3404    3.2973    1.0937 C.ar      1 <0>        -0.0848
     17 C16         3.3131    2.3038   -0.0385 C.3       1 <0>         0.0045
     18 H2          3.9643    1.4642    0.2045 H         1 <0>         0.0919
     19 C17         1.9045    1.8022   -0.2255 C.ar      1 <0>        -0.0799
     20 C18         0.8408    2.6804   -0.1309 C.ar      1 <0>        -0.0722
     21 C19        -0.4515    2.2229   -0.3011 C.ar      1 <0>        -0.1415
     22 C20        -0.6816    0.8809   -0.5676 C.ar      1 <0>         0.1091
     23 C21         0.3875    0.0018   -0.6625 C.ar      1 <0>        -0.1967
     24 C22         1.6779    0.4644   -0.4915 C.ar      1 <0>        -0.0627
     25 O1         -1.9520    0.4283   -0.7349 O.3       1 <0>        -0.3279
     26 C23        -2.1136   -0.9653   -1.0066 C.3       1 <0>         0.0274
     27 C24        -3.6016   -1.2851   -1.1632 C.3       1 <0>         0.0088
     28 C25        -3.3049   -0.8909   -3.5475 C.3       1 <0>        -0.0116
     29 C26        -4.2563   -0.5537   -4.7230 C.3       1 <0>        -0.1462
     30 C27        -5.6310   -1.0341   -4.2039 C.3       1 <0>        -0.1466
     31 C28        -5.4942   -1.0630   -2.6704 C.3       1 <0>        -0.0106
     32 O2          3.3875    5.8774    4.3222 O.3       1 <0>        -0.4981
     33 H3          2.9192   -0.3635   -5.4432 H         1 <0>         0.1184
     34 H4          1.0727    0.9938   -4.5425 H         1 <0>         0.1121
     35 H5          1.4747    2.5202   -2.6526 H         1 <0>         0.1180
     36 H6          5.5716    1.3378   -2.5691 H         1 <0>         0.1224
     37 H7          5.1677   -0.1948   -4.4536 H         1 <0>         0.1224
     38 H8          1.9400    4.0589   -1.4330 H         1 <0>         0.0753
     39 H9          3.2059    4.6463   -2.5416 H         1 <0>         0.0749
     40 H10         2.8068    6.1366   -0.5296 H         1 <0>         0.0803
     41 H11         4.4825    5.5709   -0.7068 H         1 <0>         0.0835
     42 H12         3.4563    6.5877    1.8075 H         1 <0>         0.1296
     43 H13         3.2880    3.2597    4.4761 H         1 <0>         0.1295
     44 H14         3.2589    1.7330    2.5532 H         1 <0>         0.1237
     45 H15         1.0204    3.7250    0.0765 H         1 <0>         0.1360
     46 H16        -1.2818    2.9100   -0.2311 H         1 <0>         0.1300
     47 H17         0.2109   -1.0433   -0.8695 H         1 <0>         0.1243
     48 H18         2.5104   -0.2196   -0.5653 H         1 <0>         0.1263
     49 H19        -1.5885   -1.2192   -1.9274 H         1 <0>         0.0857
     50 H20        -1.7019   -1.5465   -0.1815 H         1 <0>         0.1071
     51 H21        -3.7315   -2.3608   -1.2820 H         1 <0>         0.1461
     52 H22        -4.1405   -0.9497   -0.2771 H         1 <0>         0.1419
     53 H23        -2.4205   -0.2545   -3.5736 H         1 <0>         0.1355
     54 H24        -3.0234   -1.9437   -3.5703 H         1 <0>         0.1332
     55 H25        -3.9698   -1.1019   -5.6205 H         1 <0>         0.1160
     56 H26        -4.2693    0.5196   -4.9129 H         1 <0>         0.0984
     57 H27        -5.8508   -2.0321   -4.5830 H         1 <0>         0.1035
     58 H28        -6.4128   -0.3351   -4.5009 H         1 <0>         0.1052
     59 H29        -5.6340   -2.0800   -2.3042 H         1 <0>         0.1310
     60 H30        -6.2310   -0.4004   -2.2163 H         1 <0>         0.1339
     61 H31         2.5090    6.1572    4.6139 H         1 <0>         0.3926
     62 N1         -4.1401   -0.5937   -2.3731 N.4       1 <0>        -0.3956
     63 H32        -4.1534    0.4189   -2.2042 H         1 <0>         0.4363
@<TRIPOS>BOND
     1    1    6 ar
     2    1    2 ar
     3    1   33 1
     4    2    3 ar
     5    2   34 1
     6    3    4 ar
     7    3   35 1
     8    4    5 ar
     9    4    7 1
    10    5    6 ar
    11    5   36 1
    12    6   37 1
    13    7    8 1
    14    7   17 1
    15    7    9 1
    16    9   10 1
    17    9   38 1
    18    9   39 1
    19   10   11 1
    20   10   40 1
    21   10   41 1
    22   11   16 ar
    23   11   12 ar
    24   12   13 ar
    25   12   42 1
    26   13   14 ar
    27   13   32 1
    28   14   15 ar
    29   14   43 1
    30   15   16 ar
    31   15   44 1
    32   16   17 1
    33   17   18 1
    34   17   19 1
    35   19   24 ar
    36   19   20 ar
    37   20   21 ar
    38   20   45 1
    39   21   22 ar
    40   21   46 1
    41   22   23 ar
    42   22   25 1
    43   23   24 ar
    44   23   47 1
    45   24   48 1
    46   25   26 1
    47   26   27 1
    48   26   49 1
    49   26   50 1
    50   27   51 1
    51   27   52 1
    52   27   62 1
    53   28   29 1
    54   28   53 1
    55   28   54 1
    56   28   62 1
    57   29   30 1
    58   29   55 1
    59   29   56 1
    60   30   31 1
    61   30   57 1
    62   30   58 1
    63   31   59 1
    64   31   60 1
    65   31   62 1
    66   32   61 1
    67   62   63 1
@<TRIPOS>MOLECULE
ZINC01698387
   29    30     0     0     0
SMALL
USER_CHARGES
2,3-bis(4-hydroxyphenyl)prop-2-enenitrile
@<TRIPOS>ATOM
      1 C1         -3.4094    4.1045   -0.1665 C.ar      1 <0>        -0.0850
      2 C2         -4.5628    4.8556   -0.1930 C.ar      1 <0>        -0.1441
      3 C3         -5.1960    5.2038    0.9945 C.ar      1 <0>         0.1233
      4 C4         -4.6723    4.7918    2.2144 C.ar      1 <0>        -0.1481
      5 C5         -3.5221    4.0363    2.2528 C.ar      1 <0>        -0.0724
      6 C6         -2.8798    3.6825    1.0595 C.ar      1 <0>        -0.0990
      7 C7         -1.6529    2.8775    1.0939 C.2       1 <0>        -0.0079
      8 C8         -1.3586    2.0409    0.0613 C.2       1 <0>        -0.0264
      9 C9         -2.3115    1.8354   -0.9876 C.1       1 <0>         0.2498
     10 N1         -3.0675    1.6724   -1.8198 N.1       1 <0>        -0.4117
     11 C10        -0.0529    1.3431    0.0227 C.ar      1 <0>        -0.0606
     12 C11         1.1269    2.0745   -0.1181 C.ar      1 <0>        -0.0782
     13 C12         2.3403    1.4211   -0.1589 C.ar      1 <0>        -0.1446
     14 C13         2.3890    0.0369   -0.0611 C.ar      1 <0>         0.1165
     15 C14         1.2169   -0.6943    0.0791 C.ar      1 <0>        -0.1441
     16 C15        -0.0000   -0.0476    0.1212 C.ar      1 <0>        -0.0801
     17 O1          3.5867   -0.6037   -0.1022 O.3       1 <0>        -0.4994
     18 O2         -6.3302    5.9496    0.9627 O.3       1 <0>        -0.4981
     19 H1         -2.9160    3.8380   -1.0895 H         1 <0>         0.1292
     20 H2         -4.9742    5.1785   -1.1379 H         1 <0>         0.1327
     21 H3         -5.1684    5.0653    3.1339 H         1 <0>         0.1354
     22 H4         -3.1157    3.7173    3.2012 H         1 <0>         0.1369
     23 H5         -0.9837    2.9490    1.9386 H         1 <0>         0.1539
     24 H6          1.0897    3.1511   -0.1946 H         1 <0>         0.1342
     25 H7          3.2540    1.9866   -0.2675 H         1 <0>         0.1345
     26 H8          1.2586   -1.7708    0.1549 H         1 <0>         0.1335
     27 H9         -0.9113   -0.6169    0.2306 H         1 <0>         0.1304
     28 H10         3.8686   -0.8538   -0.9927 H         1 <0>         0.3944
     29 H11        -6.1748    6.9035    0.9948 H         1 <0>         0.3952
@<TRIPOS>BOND
     1    1    6 ar
     2    1    2 ar
     3    1   19 1
     4    2    3 ar
     5    2   20 1
     6    3    4 ar
     7    3   18 1
     8    4    5 ar
     9    4   21 1
    10    5    6 ar
    11    5   22 1
    12    6    7 1
    13    7    8 2
    14    7   23 1
    15    8    9 1
    16    8   11 1
    17    9   10 3
    18   11   16 ar
    19   11   12 ar
    20   12   13 ar
    21   12   24 1
    22   13   14 ar
    23   13   25 1
    24   14   15 ar
    25   14   17 1
    26   15   16 ar
    27   15   26 1
    28   16   27 1
    29   17   28 1
    30   18   29 1
@<TRIPOS>MOLECULE
ZINC02383130
   31    32     0     0     0
SMALL
USER_CHARGES

@<TRIPOS>ATOM
      1 C1         -0.0167    1.3784    0.0096 C.ar      1 <0>        -0.0943
      2 C2          1.1695    2.0865    0.0021 C.ar      1 <0>        -0.1437
      3 C3          2.3802    1.4093   -0.0131 C.ar      1 <0>         0.1065
      4 C4          2.3963    0.0221   -0.0206 C.ar      1 <0>        -0.1421
      5 C5          1.2074   -0.6814   -0.0130 C.ar      1 <0>        -0.0940
      6 C6          0.0021   -0.0041    0.0020 C.ar      1 <0>        -0.1041
      7 C7         -1.2934   -0.7740    0.0107 C.3       1 <0>        -0.0677
      8 C8         -1.7461   -1.0268   -1.4288 C.3       1 <0>         0.0588
      9 H1         -1.8078   -0.0782   -1.9621 H         1 <0>         0.1241
     10 C9         -0.7753   -1.9056   -2.1012 C.1       1 <0>         0.2072
     11 N1         -0.0261   -2.5837   -2.6202 N.1       1 <0>        -0.4183
     12 C10        -3.1004   -1.6877   -1.4207 C.ar      1 <0>        -0.0993
     13 C11        -3.2692   -2.9078   -0.7926 C.ar      1 <0>        -0.0878
     14 C12        -4.5096   -3.5159   -0.7842 C.ar      1 <0>        -0.1425
     15 C13        -5.5865   -2.9010   -1.4063 C.ar      1 <0>         0.1136
     16 C14        -5.4146   -1.6766   -2.0355 C.ar      1 <0>        -0.1432
     17 C15        -4.1733   -1.0702   -2.0366 C.ar      1 <0>        -0.0850
     18 O1         -6.8076   -3.4974   -1.3998 O.3       1 <0>        -0.4993
     19 O2          3.5484    2.1036   -0.0209 O.3       1 <0>        -0.4999
     20 H2         -0.9594    1.9052    0.0259 H         1 <0>         0.1315
     21 H3          1.1543    3.1664    0.0076 H         1 <0>         0.1307
     22 H4          3.3375   -0.5074   -0.0328 H         1 <0>         0.1287
     23 H5          1.2194   -1.7613   -0.0189 H         1 <0>         0.1227
     24 H6         -1.1460   -1.7274    0.5180 H         1 <0>         0.0848
     25 H7         -2.0553   -0.1973    0.5352 H         1 <0>         0.0998
     26 H8         -2.4306   -3.3860   -0.3084 H         1 <0>         0.1274
     27 H9         -4.6408   -4.4692   -0.2940 H         1 <0>         0.1320
     28 H10        -6.2513   -1.1960   -2.5205 H         1 <0>         0.1334
     29 H11        -4.0399   -0.1149   -2.5224 H         1 <0>         0.1339
     30 H12        -7.3597   -3.2550   -0.6439 H         1 <0>         0.3939
     31 H13         3.8951    2.3001    0.8601 H         1 <0>         0.3921
@<TRIPOS>BOND
     1    1    6 ar
     2    1    2 ar
     3    1   20 1
     4    2    3 ar
     5    2   21 1
     6    3    4 ar
     7    3   19 1
     8    4    5 ar
     9    4   22 1
    10    5    6 ar
    11    5   23 1
    12    6    7 1
    13    7    8 1
    14    7   24 1
    15    7   25 1
    16    8    9 1
    17    8   10 1
    18    8   12 1
    19   10   11 3
    20   12   17 ar
    21   12   13 ar
    22   13   14 ar
    23   13   26 1
    24   14   15 ar
    25   14   27 1
    26   15   16 ar
    27   15   18 1
    28   16   17 ar
    29   16   28 1
    30   17   29 1
    31   18   30 1
    32   19   31 1
@<TRIPOS>MOLECULE
ZINC03995935
   31    32     0     0     0
SMALL
USER_CHARGES
2,3-bis(4-hydroxyphenyl)propanenitrile
@<TRIPOS>ATOM
      1 C1         -4.5258   -0.7295   -1.9555 C.ar      1 <0>        -0.0942
      2 C2         -5.6550   -1.5236   -2.0097 C.ar      1 <0>        -0.1436
      3 C3         -6.8287   -1.1007   -1.4028 C.ar      1 <0>         0.1065
      4 C4         -6.8636    0.1165   -0.7380 C.ar      1 <0>        -0.1422
      5 C5         -5.7301    0.9043   -0.6819 C.ar      1 <0>        -0.0941
      6 C6         -4.5616    0.4805   -1.2875 C.ar      1 <0>        -0.1041
      7 C7         -3.3266    1.3419   -1.2247 C.3       1 <0>        -0.0676
      8 C8         -2.5132    0.9772    0.0188 C.3       1 <0>         0.0588
      9 H1         -2.2979   -0.0913    0.0116 H         1 <0>         0.1240
     10 C9         -3.2848    1.3142    1.2262 C.1       1 <0>         0.2072
     11 N1         -3.8804    1.5743    2.1579 N.1       1 <0>        -0.4183
     12 C10        -1.2196    1.7502    0.0173 C.ar      1 <0>        -0.0993
     13 C11        -0.0126    1.0758    0.0080 C.ar      1 <0>        -0.0849
     14 C12         1.1746    1.7822    0.0004 C.ar      1 <0>        -0.1433
     15 C13         1.1551    3.1693    0.0081 C.ar      1 <0>         0.1137
     16 C14        -0.0572    3.8436    0.0232 C.ar      1 <0>        -0.1425
     17 C15        -1.2416    3.1326    0.0307 C.ar      1 <0>        -0.0878
     18 O1          2.3216    3.8665    0.0002 O.3       1 <0>        -0.4993
     19 O2         -7.9423   -1.8776   -1.4591 O.3       1 <0>        -0.4999
     20 H2         -3.6132   -1.0561   -2.4318 H         1 <0>         0.1315
     21 H3         -5.6253   -2.4707   -2.5278 H         1 <0>         0.1307
     22 H4         -7.7760    0.4477   -0.2645 H         1 <0>         0.1287
     23 H5         -5.7567    1.8517   -0.1642 H         1 <0>         0.1227
     24 H6         -3.6176    2.3911   -1.1736 H         1 <0>         0.0848
     25 H7         -2.7219    1.1755   -2.1161 H         1 <0>         0.0998
     26 H8          0.0021   -0.0041    0.0020 H         1 <0>         0.1339
     27 H9          2.1171    1.2550   -0.0111 H         1 <0>         0.1334
     28 H10        -0.0750    4.9235    0.0296 H         1 <0>         0.1320
     29 H11        -2.1857    3.6571    0.0422 H         1 <0>         0.1273
     30 H12         2.6505    4.0730   -0.8854 H         1 <0>         0.3939
     31 H13        -8.5071   -1.7007   -2.2238 H         1 <0>         0.3922
@<TRIPOS>BOND
     1    1    6 ar
     2    1    2 ar
     3    1   20 1
     4    2    3 ar
     5    2   21 1
     6    3    4 ar
     7    3   19 1
     8    4    5 ar
     9    4   22 1
    10    5    6 ar
    11    5   23 1
    12    6    7 1
    13    7    8 1
    14    7   24 1
    15    7   25 1
    16    8    9 1
    17    8   10 1
    18    8   12 1
    19   10   11 3
    20   12   17 ar
    21   12   13 ar
    22   13   14 ar
    23   13   26 1
    24   14   15 ar
    25   14   27 1
    26   15   16 ar
    27   15   18 1
    28   16   17 ar
    29   16   28 1
    30   17   29 1
    31   18   30 1
    32   19   31 1
@<TRIPOS>MOLECULE
ZINC01895310
   48    50     0     0     0
SMALL
USER_CHARGES
3-[4-(1,2-diphenylbut-1-enyl)phenyl]prop-2-enoic acid
@<TRIPOS>ATOM
      1 C1         -2.0847    3.8373   -3.1997 C.3       1 <0>        -0.1457
      2 C2         -2.9525    3.0160   -2.2441 C.3       1 <0>        -0.0867
      3 C3         -3.2870    3.8452   -1.0310 C.2       1 <0>        -0.0626
      4 C4         -2.5162    3.7599    0.0829 C.2       1 <0>        -0.0360
      5 C5         -1.4332    2.7539    0.1581 C.ar      1 <0>        -0.0307
      6 C6         -1.7386    1.3926    0.1338 C.ar      1 <0>        -0.1089
      7 C7         -0.7249    0.4598    0.2096 C.ar      1 <0>        -0.1208
      8 C8          0.5929    0.8716    0.2986 C.ar      1 <0>        -0.1227
      9 C9          0.9027    2.2199    0.3179 C.ar      1 <0>        -0.1179
     10 C10        -0.1022    3.1627    0.2480 C.ar      1 <0>        -0.1021
     11 C11        -2.7581    4.6714    1.2202 C.ar      1 <0>        -0.0573
     12 C12        -2.5480    6.0456    1.0709 C.ar      1 <0>        -0.0921
     13 C13        -2.7758    6.8895    2.1196 C.ar      1 <0>        -0.1183
     14 C14        -3.2100    6.3768    3.3487 C.ar      1 <0>        -0.0281
     15 C15        -3.4150    4.9992    3.4984 C.ar      1 <0>        -0.1155
     16 C16        -3.1914    4.1582    2.4465 C.ar      1 <0>        -0.1005
     17 C17        -3.4496    7.2830    4.4800 C.2       1 <0>        -0.1234
     18 C18        -3.2517    8.6117    4.3350 C.2       1 <0>        -0.1410
     19 C19        -3.4900    9.5130    5.4600 C.2       1 <0>         0.4726
     20 O1         -3.8667    9.0671    6.5273 O.co2     1 <0>        -0.6342
     21 C20        -4.4482    4.7465   -1.0540 C.ar      1 <0>        -0.0390
     22 C21        -5.5397    4.5090   -0.2115 C.ar      1 <0>        -0.0967
     23 C22        -6.6225    5.3620   -0.2354 C.ar      1 <0>        -0.1164
     24 C23        -6.6363    6.4449   -1.0975 C.ar      1 <0>        -0.1188
     25 C24        -5.5630    6.6835   -1.9382 C.ar      1 <0>        -0.1199
     26 C25        -4.4702    5.8431   -1.9228 C.ar      1 <0>        -0.1098
     27 H1         -1.2224    4.2300   -2.6609 H         1 <0>         0.0564
     28 H2         -1.7438    3.2023   -4.0175 H         1 <0>         0.0562
     29 H3         -2.6696    4.6646   -3.6016 H         1 <0>         0.0560
     30 H4         -2.4084    2.1234   -1.9353 H         1 <0>         0.0787
     31 H5         -3.8730    2.7237   -2.7494 H         1 <0>         0.0685
     32 H6         -2.7666    1.0698    0.0596 H         1 <0>         0.1217
     33 H7         -0.9603   -0.5942    0.1950 H         1 <0>         0.1211
     34 H8          1.3831    0.1375    0.3535 H         1 <0>         0.1192
     35 H9          1.9334    2.5351    0.3875 H         1 <0>         0.1215
     36 H10         0.1410    4.2149    0.2624 H         1 <0>         0.1221
     37 H11        -2.2090    6.4401    0.1244 H         1 <0>         0.1155
     38 H12        -2.6170    7.9513    2.0029 H         1 <0>         0.1262
     39 H13        -3.7493    4.6025    4.4457 H         1 <0>         0.1229
     40 H14        -3.3491    3.0960    2.5617 H         1 <0>         0.1160
     41 H15        -3.7840    6.8872    5.4276 H         1 <0>         0.1267
     42 H16        -2.9173    9.0076    3.3874 H         1 <0>         0.1065
     43 H17        -5.5324    3.6619    0.4585 H         1 <0>         0.1187
     44 H18        -7.4642    5.1823    0.4170 H         1 <0>         0.1207
     45 H19        -7.4894    7.1070   -1.1144 H         1 <0>         0.1192
     46 H20        -5.5818    7.5302   -2.6084 H         1 <0>         0.1200
     47 H21        -3.6337    6.0304   -2.5797 H         1 <0>         0.1205
     48 O2         -3.2924   10.8398    5.3151 O.co2     1 <0>        -0.7618
@<TRIPOS>BOND
     1    1    2 1
     2    1   27 1
     3    1   28 1
     4    1   29 1
     5    2    3 1
     6    2   30 1
     7    2   31 1
     8    3    4 2
     9    3   21 1
    10    4    5 1
    11    4   11 1
    12    5   10 ar
    13    5    6 ar
    14    6    7 ar
    15    6   32 1
    16    7    8 ar
    17    7   33 1
    18    8    9 ar
    19    8   34 1
    20    9   10 ar
    21    9   35 1
    22   10   36 1
    23   11   16 ar
    24   11   12 ar
    25   12   13 ar
    26   12   37 1
    27   13   14 ar
    28   13   38 1
    29   14   15 ar
    30   14   17 1
    31   15   16 ar
    32   15   39 1
    33   16   40 1
    34   17   18 2
    35   17   41 1
    36   18   19 1
    37   18   42 1
    38   19   20 2
    39   19   48 1
    40   21   26 ar
    41   21   22 ar
    42   22   23 ar
    43   22   43 1
    44   23   24 ar
    45   23   44 1
    46   24   25 ar
    47   24   45 1
    48   25   26 ar
    49   25   46 1
    50   26   47 1
