@<TRIPOS>MOLECULE
ZINC00004763
   26    27     0     0     0
SMALL
USER_CHARGES

@<TRIPOS>ATOM
      1 C1         -0.0168    1.3874    0.0097 C.ar      1 <0>        -0.1123
      2 C2          1.1696    2.0895    0.0021 C.ar      1 <0>        -0.0235
      3 C3          2.3883    1.4211   -0.0136 C.ar      1 <0>        -0.1492
      4 C4          2.4325    0.0564   -0.0218 C.ar      1 <0>         0.0306
      5 C5          1.2388   -0.6801   -0.0139 C.ar      1 <0>        -0.0923
      6 C6          0.0021   -0.0041    0.0020 C.ar      1 <0>         0.0948
      7 N1         -0.9883   -0.9571    0.0059 N.pl3     1 <0>        -0.5590
      8 H1         -1.9421   -0.7808    0.0154 H         1 <0>         0.4191
      9 C7         -0.4002   -2.2096   -0.0067 C.2       1 <0>         0.0424
     10 C8          0.9535   -2.0650   -0.0189 C.2       1 <0>        -0.1168
     11 C9          1.9663   -3.1809   -0.0360 C.3       1 <0>        -0.0268
     12 C10         2.3242   -3.5668    1.4007 C.3       1 <0>        -0.1578
     13 C11         3.3369   -4.6826    1.3836 C.2       1 <0>         0.4989
     14 O1          3.7355   -5.1279    0.3209 O.co2     1 <0>        -0.7011
     15 O2          3.7577   -5.1401    2.4325 O.co2     1 <0>        -0.7247
     16 C12        -1.1190   -3.4864   -0.0069 C.2       1 <0>         0.5408
     17 O3         -2.3433   -3.4997    0.0044 O.co2     1 <0>        -0.7017
     18 O4         -0.4953   -4.5400   -0.0183 O.co2     1 <0>        -0.6351
     19 Cl1         3.9618   -0.7649   -0.0425 Cl        1 <0>        -0.0477
     20 Cl2         1.1412    3.8252    0.0117 Cl        1 <0>        -0.0862
     21 H2         -0.9585    1.9160    0.0260 H         1 <0>         0.1268
     22 H3          3.3086    1.9864   -0.0197 H         1 <0>         0.1327
     23 H4          1.5461   -4.0451   -0.5504 H         1 <0>         0.0914
     24 H5          2.8640   -2.8488   -0.5573 H         1 <0>         0.0602
     25 H6          2.7444   -2.7026    1.9151 H         1 <0>         0.0412
     26 H7          1.4264   -3.8989    1.9220 H         1 <0>         0.0553
@<TRIPOS>BOND
     1    1    6 ar
     2    1    2 ar
     3    1   21 1
     4    2    3 ar
     5    2   20 1
     6    3    4 ar
     7    3   22 1
     8    4    5 ar
     9    4   19 1
    10    5   10 1
    11    5    6 ar
    12    6    7 1
    13    7    8 1
    14    7    9 1
    15    9   10 2
    16    9   16 1
    17   10   11 1
    18   11   12 1
    19   11   23 1
    20   11   24 1
    21   12   13 1
    22   12   25 1
    23   12   26 1
    24   13   14 2
    25   13   15 1
    26   16   17 2
    27   16   18 1
