@<TRIPOS>MOLECULE
ZINC13986542
   58    61     0     0     0
SMALL
USER_CHARGES
1-[1-[(2S)-3-[(6-chloro-2-naphthyl)sulfonyl]-2-hydroxy-propanoyl]-4-piperidyl]hexahydropyrimidin-2-one
@<TRIPOS>ATOM
      1 C1         -1.7260    5.1982    5.9611 C.ar      1 <0>        -0.1124
      2 C2         -2.4956    4.2691    5.3306 C.ar      1 <0>        -0.0426
      3 C3         -3.6558    4.6387    4.6534 C.ar      1 <0>        -0.6573
      4 C4         -4.0591    5.9382    4.6114 C.ar      1 <0>         0.0190
      5 C5         -3.2935    6.9249    5.2550 C.ar      1 <0>        -0.0794
      6 C6         -2.1102    6.5496    5.9395 C.ar      1 <0>        -0.0023
      7 C7         -1.3445    7.5361    6.5839 C.ar      1 <0>        -0.1098
      8 C8         -1.7481    8.8363    6.5423 C.ar      1 <0>        -0.0079
      9 C9         -2.9123    9.2051    5.8681 C.ar      1 <0>        -0.1174
     10 C10        -3.6783    8.2766    5.2337 C.ar      1 <0>        -0.0715
     11 Cl1        -0.7996   10.0523    7.3394 Cl        1 <0>        -0.0583
     12 S1         -4.6194    3.4046    3.8452 S.o2      1 <0>         2.5073
     13 O1         -5.9382    3.9330    3.8201 O.2       1 <0>        -0.9126
     14 O2         -4.3336    2.2033    4.5485 O.2       1 <0>        -0.9255
     15 C11        -3.9489    3.3177    2.1620 C.3       1 <0>        -0.6595
     16 C12        -4.7184    2.2662    1.3601 C.3       1 <0>         0.1062
     17 H1         -4.6984    1.3160    1.8937 H         1 <0>         0.1384
     18 C13        -4.0757    2.0963    0.0076 C.2       1 <0>         0.5024
     19 O3         -4.5939    2.5823   -0.9754 O.2       1 <0>        -0.5224
     20 N1         -2.9251    1.4043   -0.1096 N.am      1 <0>        -0.6047
     21 C14        -2.3393    1.1443   -1.4317 C.3       1 <0>         0.1147
     22 C15        -0.8860    1.6286   -1.4310 C.3       1 <0>        -0.1532
     23 C16        -0.1344    0.9724   -0.2704 C.3       1 <0>         0.1712
     24 C17        -0.7811    1.3823    1.0547 C.3       1 <0>        -0.1574
     25 C18        -2.2330    0.8952    1.0822 C.3       1 <0>         0.0987
     26 N2          1.2642    1.4080   -0.2863 N.am      1 <0>        -0.6219
     27 C19         2.3247    0.4092   -0.4300 C.3       1 <0>         0.1105
     28 C20         3.5892    0.9138    0.2734 C.3       1 <0>        -0.1532
     29 C21         3.9522    2.2871   -0.3015 C.3       1 <0>         0.1079
     30 N3          2.8034    3.1839   -0.1648 N.am      1 <0>        -0.7393
     31 C22         1.5468    2.7145   -0.1743 C.2       1 <0>         0.7113
     32 O4          0.6278    3.5040   -0.0730 O.2       1 <0>        -0.5907
     33 O5         -6.0727    2.6909    1.1940 O.3       1 <0>        -0.5251
     34 H2         -0.8272    4.8976    6.4789 H         1 <0>         0.1408
     35 H3         -2.2004    3.2304    5.3524 H         1 <0>         0.1446
     36 H4         -4.9627    6.2094    4.0856 H         1 <0>         0.1524
     37 H5         -0.4405    7.2649    7.1089 H         1 <0>         0.1445
     38 H6         -3.2103   10.2430    5.8498 H         1 <0>         0.1413
     39 H7         -4.5772    8.5768    4.7158 H         1 <0>         0.1457
     40 H8         -2.8950    3.0427    2.2044 H         1 <0>         0.1521
     41 H9         -4.0516    4.2896    1.6793 H         1 <0>         0.1513
     42 H10        -2.9034    1.6825   -2.1936 H         1 <0>         0.0979
     43 H11        -2.3680    0.0748   -1.6402 H         1 <0>         0.0718
     44 H12        -0.8635    2.7119   -1.3127 H         1 <0>         0.0978
     45 H13        -0.4109    1.3550   -2.3731 H         1 <0>         0.0746
     46 H14        -0.1784   -0.1116   -0.3760 H         1 <0>         0.0903
     47 H15        -0.2314    0.9334    1.8820 H         1 <0>         0.0795
     48 H16        -0.7597    2.4680    1.1495 H         1 <0>         0.0974
     49 H17        -2.7269    1.2690    1.9791 H         1 <0>         0.0874
     50 H18        -2.2530   -0.1946    1.0788 H         1 <0>         0.0817
     51 H19         2.0053   -0.5290    0.0236 H         1 <0>         0.0840
     52 H20         2.5340    0.2498   -1.4877 H         1 <0>         0.0661
     53 H21         3.4020    1.0028    1.3435 H         1 <0>         0.0779
     54 H22         4.4073    0.2142    0.1019 H         1 <0>         0.0983
     55 H23         4.8017    2.6975    0.2443 H         1 <0>         0.0844
     56 H24         4.2105    2.1841   -1.3554 H         1 <0>         0.0654
     57 H25         2.9537    4.1374   -0.0694 H         1 <0>         0.4147
     58 H26        -6.1666    3.5318    0.7258 H         1 <0>         0.3950
@<TRIPOS>BOND
     1    1    6 ar
     2    1    2 ar
     3    1   34 1
     4    2    3 ar
     5    2   35 1
     6    3    4 ar
     7    3   12 1
     8    4    5 ar
     9    4   36 1
    10    5   10 ar
    11    5    6 ar
    12    6    7 ar
    13    7    8 ar
    14    7   37 1
    15    8    9 ar
    16    8   11 1
    17    9   10 ar
    18    9   38 1
    19   10   39 1
    20   12   13 2
    21   12   14 2
    22   12   15 1
    23   15   16 1
    24   15   40 1
    25   15   41 1
    26   16   17 1
    27   16   18 1
    28   16   33 1
    29   18   19 2
    30   18   20 am
    31   20   25 1
    32   20   21 1
    33   21   22 1
    34   21   42 1
    35   21   43 1
    36   22   23 1
    37   22   44 1
    38   22   45 1
    39   23   24 1
    40   23   26 1
    41   23   46 1
    42   24   25 1
    43   24   47 1
    44   24   48 1
    45   25   49 1
    46   25   50 1
    47   26   31 am
    48   26   27 1
    49   27   28 1
    50   27   51 1
    51   27   52 1
    52   28   29 1
    53   28   53 1
    54   28   54 1
    55   29   30 1
    56   29   55 1
    57   29   56 1
    58   30   31 am
    59   30   57 1
    60   31   32 2
    61   33   58 1
@<TRIPOS>MOLECULE
ZINC02006270
   57    60     0     0     0
SMALL
USER_CHARGES

@<TRIPOS>ATOM
      1 C1         -1.3381   -1.7836    3.6515 C.3       1 <0>        -0.0827
      2 C2         -0.7136   -1.9784    2.2939 C.2       1 <0>         0.0922
      3 C3         -0.5795   -3.1955    1.6307 C.2       1 <0>        -0.1907
      4 C4          0.0407   -2.9486    0.4218 C.2       1 <0>         0.0345
      5 N1          0.2760   -1.6008    0.3602 N.pl3     1 <0>        -0.3139
      6 N2         -0.2128   -1.0296    1.5418 N.2       1 <0>        -0.2589
      7 C5          0.8895   -0.9165   -0.6964 C.ar      1 <0>         0.1624
      8 C6          0.4621   -1.1269   -2.0021 C.ar      1 <0>        -0.0185
      9 C7          1.0644   -0.4538   -3.0480 C.ar      1 <0>        -0.0948
     10 C8          2.0942    0.4322   -2.8027 C.ar      1 <0>        -0.0532
     11 C9          2.5304    0.6502   -1.4954 C.ar      1 <0>        -0.1496
     12 C10         1.9193   -0.0248   -0.4395 C.ar      1 <0>        -0.0512
     13 C11         3.6348    1.5988   -1.2299 C.cat     1 <0>         0.6060
     14 N3          4.5844    1.7876   -2.1439 N.pl3     1 <0>        -0.7565
     15 N4          3.6789    2.2634   -0.0771 N.pl3     1 <0>        -0.7572
     16 C12         0.3840   -3.9441   -0.6044 C.2       1 <0>         0.5850
     17 O1          1.0295   -3.6133   -1.5809 O.2       1 <0>        -0.5119
     18 N5         -0.0166   -5.2232   -0.4630 N.am      1 <0>        -0.6457
     19 C13         0.3154   -6.1707   -1.4349 C.ar      1 <0>         0.1558
     20 C14         0.5114   -5.7739   -2.7526 C.ar      1 <0>        -0.1411
     21 C15         0.8395   -6.7070   -3.7129 C.ar      1 <0>        -0.0692
     22 C16         0.9746   -8.0493   -3.3617 C.ar      1 <0>        -0.1334
     23 C17         0.7776   -8.4450   -2.0396 C.ar      1 <0>        -0.0038
     24 C18         0.4549   -7.5078   -1.0815 C.ar      1 <0>        -0.1461
     25 C19         1.3271   -9.0552   -4.3935 C.ar      1 <0>         0.0588
     26 C20         0.4468   -9.3206   -5.4411 C.ar      1 <0>        -0.1270
     27 C21         0.7798  -10.2574   -6.3980 C.ar      1 <0>        -0.0563
     28 C22         1.9848  -10.9325   -6.3190 C.ar      1 <0>        -0.1368
     29 C23         2.8619  -10.6734   -5.2815 C.ar      1 <0>        -0.0159
     30 C24         2.5419   -9.7340   -4.3221 C.ar      1 <0>        -0.6669
     31 S1          3.6639   -9.3995   -3.0054 S.o2      1 <0>         2.6940
     32 O2          2.8874   -9.3328   -1.8172 O.2       1 <0>        -0.9533
     33 O3          4.7489  -10.3045   -3.1566 O.2       1 <0>        -0.9646
     34 N6          4.2754   -7.8812   -3.2569 N.pl3     1 <0>        -1.2459
     35 H1         -2.4067   -1.6018    3.5371 H         1 <0>         0.0892
     36 H2         -1.1844   -2.6789    4.2540 H         1 <0>         0.0894
     37 H3         -0.8750   -0.9294    4.1453 H         1 <0>         0.0810
     38 H4         -0.9022   -4.1591    1.9962 H         1 <0>         0.1697
     39 H5         -0.3432   -1.8189   -2.2000 H         1 <0>         0.1459
     40 H6          0.7287   -0.6218   -4.0607 H         1 <0>         0.1580
     41 H7          2.5625    0.9563   -3.6227 H         1 <0>         0.1470
     42 H8          2.2501    0.1432    0.5747 H         1 <0>         0.1457
     43 H9          4.5523    1.3034   -2.9838 H         1 <0>         0.4470
     44 H10         2.9871    2.1258    0.5888 H         1 <0>         0.4470
     45 H11         4.4028    2.8852    0.0969 H         1 <0>         0.4343
     46 H12        -0.5353   -5.4860    0.3133 H         1 <0>         0.4184
     47 H13         0.4063   -4.7340   -3.0243 H         1 <0>         0.1458
     48 H14         0.9913   -6.3983   -4.7367 H         1 <0>         0.1291
     49 H15         0.8815   -9.4844   -1.7654 H         1 <0>         0.1489
     50 H16         0.3065   -7.8132   -0.0562 H         1 <0>         0.1330
     51 H17        -0.4942   -8.7944   -5.5035 H         1 <0>         0.1357
     52 H18         0.0984  -10.4642   -7.2100 H         1 <0>         0.1363
     53 H19         2.2414  -11.6649   -7.0701 H         1 <0>         0.1377
     54 H20         3.8009  -11.2039   -5.2243 H         1 <0>         0.1479
     55 H21         3.9905   -7.3651   -4.0272 H         1 <0>         0.4152
     56 H22         4.9185   -7.5080   -2.6340 H         1 <0>         0.4200
     57 H23         5.3083    2.4094   -1.9699 H         1 <0>         0.4344
@<TRIPOS>BOND
     1    1    2 1
     2    1   35 1
     3    1   36 1
     4    1   37 1
     5    2    6 2
     6    2    3 1
     7    3    4 2
     8    3   38 1
     9    4    5 1
    10    4   16 1
    11    5    6 1
    12    5    7 1
    13    7   12 ar
    14    7    8 ar
    15    8    9 ar
    16    8   39 1
    17    9   10 ar
    18    9   40 1
    19   10   11 ar
    20   10   41 1
    21   11   12 ar
    22   11   13 1
    23   12   42 1
    24   13   14 2
    25   13   15 1
    26   14   43 1
    27   14   57 1
    28   15   44 1
    29   15   45 1
    30   16   17 2
    31   16   18 am
    32   18   19 1
    33   18   46 1
    34   19   24 ar
    35   19   20 ar
    36   20   21 ar
    37   20   47 1
    38   21   22 ar
    39   21   48 1
    40   22   23 ar
    41   22   25 1
    42   23   24 ar
    43   23   49 1
    44   24   50 1
    45   25   30 ar
    46   25   26 ar
    47   26   27 ar
    48   26   51 1
    49   27   28 ar
    50   27   52 1
    51   28   29 ar
    52   28   53 1
    53   29   30 ar
    54   29   54 1
    55   30   31 1
    56   31   32 2
    57   31   33 2
    58   31   34 1
    59   34   55 1
    60   34   56 1
@<TRIPOS>MOLECULE
ZINC45357357
   54    57     0     0     0
SMALL
USER_CHARGES

@<TRIPOS>ATOM
      1 C1          0.4860    1.4259   -0.2635 C.ar      1 <0>        -0.1013
      2 C2          1.7059    2.0761   -0.2533 C.ar      1 <0>        -0.1143
      3 C3          2.8774    1.3463   -0.1770 C.ar      1 <0>        -0.1022
      4 C4          2.8291   -0.0336   -0.1105 C.ar      1 <0>        -0.1335
      5 C5          1.6092   -0.6837   -0.1198 C.ar      1 <0>        -0.0905
      6 C6          0.4377    0.0460   -0.1975 C.ar      1 <0>        -0.1181
      7 C7          4.1063   -0.8292   -0.0283 C.3       1 <0>         0.1202
      8 H1          4.9375   -0.2196   -0.3826 H         1 <0>         0.0977
      9 C8          4.3582   -1.2408    1.4236 C.3       1 <0>         0.1494
     10 N1          5.6575   -1.9103    1.5230 N.am      1 <0>        -0.7442
     11 C9          6.0930   -2.3627    2.7155 C.2       1 <0>         0.7045
     12 O1          5.4076   -2.2152    3.7089 O.2       1 <0>        -0.5627
     13 N2          7.2884   -2.9785    2.8069 N.am      1 <0>        -0.6853
     14 C10         7.6906   -3.5491    4.0198 C.ar      1 <0>         0.1571
     15 C11         9.0286   -3.5246    4.3904 C.ar      1 <0>        -0.1458
     16 C12         9.4223   -4.0882    5.5883 C.ar      1 <0>        -0.0987
     17 C13         8.4856   -4.6764    6.4182 C.ar      1 <0>        -0.1318
     18 C14         7.1525   -4.7029    6.0518 C.ar      1 <0>        -0.1003
     19 C15         6.7516   -4.1360    4.8579 C.ar      1 <0>        -0.1196
     20 O2          3.9923   -1.9984   -0.8419 O.3       1 <0>        -0.2942
     21 C16         4.2844   -1.8624   -2.1610 C.ar      1 <0>         0.2177
     22 C17         4.5619   -0.6176   -2.6728 C.ar      1 <0>        -0.2226
     23 C18         4.8647   -0.4389   -4.0154 C.ar      1 <0>         0.0055
     24 C19         4.8898   -1.5310   -4.8600 C.ar      1 <0>        -0.1270
     25 C20         4.6145   -2.7870   -4.3635 C.ar      1 <0>        -0.0391
     26 C21         4.3065   -3.0107   -3.0010 C.ar      1 <0>        -0.1608
     27 C22         4.0553   -4.3489   -2.6514 C.2       1 <0>         0.0350
     28 C23         4.1224   -5.3217   -3.5980 C.2       1 <0>        -0.2895
     29 S1          4.5391   -4.4117   -5.0753 S.3       1 <0>         0.1382
     30 C24         3.8984   -6.7671   -3.4443 C.cat     1 <0>         0.6502
     31 N3          4.0102   -7.5759   -4.5005 N.pl3     1 <0>        -0.7615
     32 N4          3.5833   -7.2703   -2.2486 N.pl3     1 <0>        -0.7601
     33 H2         -0.4295    1.9963   -0.3186 H         1 <0>         0.1287
     34 H3          1.7436    3.1542   -0.3053 H         1 <0>         0.1304
     35 H4          3.8305    1.8542   -0.1697 H         1 <0>         0.1265
     36 H5          1.5714   -1.7618   -0.0682 H         1 <0>         0.1238
     37 H6         -0.5154   -0.4620   -0.2052 H         1 <0>         0.1272
     38 H7          4.3567   -0.3544    2.0580 H         1 <0>         0.0998
     39 H8          3.5725   -1.9223    1.7496 H         1 <0>         0.0864
     40 H9          6.2043   -2.0279    0.7305 H         1 <0>         0.3971
     41 H10         7.8699   -3.0263    2.0320 H         1 <0>         0.4056
     42 H11         9.7607   -3.0657    3.7425 H         1 <0>         0.1246
     43 H12        10.4629   -4.0698    5.8770 H         1 <0>         0.1285
     44 H13         8.7960   -5.1165    7.3544 H         1 <0>         0.1258
     45 H14         6.4234   -5.1634    6.7020 H         1 <0>         0.1267
     46 H15         5.7096   -4.1527    4.5745 H         1 <0>         0.1317
     47 H16         4.5435    0.2398   -2.0165 H         1 <0>         0.1481
     48 H17         5.0790    0.5484   -4.3973 H         1 <0>         0.1540
     49 H18         5.1242   -1.4015   -5.9063 H         1 <0>         0.1487
     50 H19         3.8094   -4.6038   -1.6312 H         1 <0>         0.1508
     51 H20         4.2391   -7.2102   -5.3693 H         1 <0>         0.4447
     52 H21         3.5021   -6.6827   -1.4811 H         1 <0>         0.4447
     53 H22         3.4356   -8.2237   -2.1472 H         1 <0>         0.4368
     54 H23         3.8624   -8.5292   -4.3992 H         1 <0>         0.4369
@<TRIPOS>BOND
     1    1    6 ar
     2    1    2 ar
     3    1   33 1
     4    2    3 ar
     5    2   34 1
     6    3    4 ar
     7    3   35 1
     8    4    5 ar
     9    4    7 1
    10    5    6 ar
    11    5   36 1
    12    6   37 1
    13    7    8 1
    14    7    9 1
    15    7   20 1
    16    9   10 1
    17    9   38 1
    18    9   39 1
    19   10   11 am
    20   10   40 1
    21   11   12 2
    22   11   13 am
    23   13   14 1
    24   13   41 1
    25   14   19 ar
    26   14   15 ar
    27   15   16 ar
    28   15   42 1
    29   16   17 ar
    30   16   43 1
    31   17   18 ar
    32   17   44 1
    33   18   19 ar
    34   18   45 1
    35   19   46 1
    36   20   21 1
    37   21   26 ar
    38   21   22 ar
    39   22   23 ar
    40   22   47 1
    41   23   24 ar
    42   23   48 1
    43   24   25 ar
    44   24   49 1
    45   25   29 1
    46   25   26 ar
    47   26   27 1
    48   27   28 2
    49   27   50 1
    50   28   29 1
    51   28   30 1
    52   30   31 2
    53   30   32 1
    54   31   51 1
    55   31   54 1
    56   32   52 1
    57   32   53 1
@<TRIPOS>MOLECULE
ZINC45357359
   54    57     0     0     0
SMALL
USER_CHARGES

@<TRIPOS>ATOM
      1 C1          1.1771    2.4562    0.2318 C.ar      1 <0>        -0.1017
      2 C2          2.5131    2.7287    0.0046 C.ar      1 <0>        -0.1139
      3 C3          3.4191    1.6918   -0.1167 C.ar      1 <0>        -0.1023
      4 C4          2.9892    0.3823   -0.0103 C.ar      1 <0>        -0.1335
      5 C5          1.6533    0.1098    0.2178 C.ar      1 <0>        -0.0916
      6 C6          0.7470    1.1467    0.3377 C.ar      1 <0>        -0.1179
      7 C7          3.9767   -0.7482   -0.1436 C.3       1 <0>         0.1206
      8 H1          4.9726   -0.3939    0.1223 H         1 <0>         0.0981
      9 C8          3.9835   -1.2519   -1.5883 C.3       1 <0>         0.1497
     10 N1          4.9435   -2.3509   -1.7178 N.am      1 <0>        -0.7433
     11 C9          5.1202   -2.9544   -2.9098 C.2       1 <0>         0.7042
     12 O1          4.4827   -2.5868   -3.8778 O.2       1 <0>        -0.5624
     13 N2          6.0034   -3.9655   -3.0290 N.am      1 <0>        -0.6846
     14 C10         6.2755   -4.5121   -4.2882 C.ar      1 <0>         0.1577
     15 C11         6.5660   -5.8644   -4.4117 C.ar      1 <0>        -0.1485
     16 C12         6.8337   -6.4009   -5.6558 C.ar      1 <0>        -0.0996
     17 C13         6.8127   -5.5930   -6.7779 C.ar      1 <0>        -0.1323
     18 C14         6.5243   -4.2459   -6.6582 C.ar      1 <0>        -0.0980
     19 C15         6.2501   -3.7044   -5.4175 C.ar      1 <0>        -0.1195
     20 O2          3.6012   -1.8143    0.7308 O.3       1 <0>        -0.2946
     21 C16         4.0150   -1.7280    2.0212 C.ar      1 <0>         0.2168
     22 C17         4.6604   -0.5953    2.4557 C.ar      1 <0>        -0.2213
     23 C18         5.0980   -0.4703    3.7669 C.ar      1 <0>         0.0055
     24 C19         4.8829   -1.5022    4.6588 C.ar      1 <0>        -0.1267
     25 C20         4.2368   -2.6455    4.2402 C.ar      1 <0>        -0.0394
     26 C21         3.7717   -2.8088    2.9142 C.ar      1 <0>        -0.1606
     27 C22         3.1282   -4.0297    2.6469 C.2       1 <0>         0.0345
     28 C23         2.9860   -4.9524    3.6344 C.2       1 <0>        -0.2893
     29 S1          3.7688   -4.1645    5.0311 S.3       1 <0>         0.1384
     30 C24         2.3512   -6.2773    3.5664 C.cat     1 <0>         0.6502
     31 N3          2.3062   -7.0524    4.6524 N.pl3     1 <0>        -0.7614
     32 N4          1.8201   -6.7049    2.4186 N.pl3     1 <0>        -0.7602
     33 H2          0.4700    3.2665    0.3310 H         1 <0>         0.1286
     34 H3          2.8490    3.7518   -0.0785 H         1 <0>         0.1305
     35 H4          4.4628    1.9047   -0.2949 H         1 <0>         0.1270
     36 H5          1.3173   -0.9133    0.3005 H         1 <0>         0.1234
     37 H6         -0.2967    0.9338    0.5155 H         1 <0>         0.1269
     38 H7          2.9876   -1.6062   -1.8542 H         1 <0>         0.0860
     39 H8          4.2699   -0.4387   -2.2552 H         1 <0>         0.0996
     40 H9          5.4520   -2.6442   -0.9456 H         1 <0>         0.3973
     41 H10         6.4503   -4.3143   -2.2419 H         1 <0>         0.4051
     42 H11         6.5829   -6.4959   -3.5357 H         1 <0>         0.1220
     43 H12         7.0600   -7.4525   -5.7525 H         1 <0>         0.1274
     44 H13         7.0224   -6.0149   -7.7497 H         1 <0>         0.1259
     45 H14         6.5091   -3.6174   -7.5364 H         1 <0>         0.1278
     46 H15         6.0202   -2.6532   -5.3253 H         1 <0>         0.1347
     47 H16         4.8311    0.2148    1.7621 H         1 <0>         0.1484
     48 H17         5.6039    0.4284    4.0875 H         1 <0>         0.1540
     49 H18         5.2202   -1.4140    5.6809 H         1 <0>         0.1487
     50 H19         2.7468   -4.2341    1.6574 H         1 <0>         0.1507
     51 H20         2.6921   -6.7417    5.4863 H         1 <0>         0.4447
     52 H21         1.8529   -6.1417    1.6295 H         1 <0>         0.4447
     53 H22         1.4014   -7.5787    2.3738 H         1 <0>         0.4368
     54 H23         1.8875   -7.9262    4.6076 H         1 <0>         0.4369
@<TRIPOS>BOND
     1    1    6 ar
     2    1    2 ar
     3    1   33 1
     4    2    3 ar
     5    2   34 1
     6    3    4 ar
     7    3   35 1
     8    4    5 ar
     9    4    7 1
    10    5    6 ar
    11    5   36 1
    12    6   37 1
    13    7    8 1
    14    7    9 1
    15    7   20 1
    16    9   10 1
    17    9   38 1
    18    9   39 1
    19   10   11 am
    20   10   40 1
    21   11   12 2
    22   11   13 am
    23   13   14 1
    24   13   41 1
    25   14   19 ar
    26   14   15 ar
    27   15   16 ar
    28   15   42 1
    29   16   17 ar
    30   16   43 1
    31   17   18 ar
    32   17   44 1
    33   18   19 ar
    34   18   45 1
    35   19   46 1
    36   20   21 1
    37   21   26 ar
    38   21   22 ar
    39   22   23 ar
    40   22   47 1
    41   23   24 ar
    42   23   48 1
    43   24   25 ar
    44   24   49 1
    45   25   29 1
    46   25   26 ar
    47   26   27 1
    48   27   28 2
    49   27   50 1
    50   28   29 1
    51   28   30 1
    52   30   31 2
    53   30   32 1
    54   31   51 1
    55   31   54 1
    56   32   52 1
    57   32   53 1
@<TRIPOS>MOLECULE
ZINC00017086
   21    22     0     0     0
SMALL
USER_CHARGES
4-iodobenzothiophene-2-carboxamidine
@<TRIPOS>ATOM
      1 C1          5.2890    1.3390   -0.0415 C.ar      1 <0>        -0.0388
      2 C2          4.0232    1.8905   -0.0262 C.ar      1 <0>        -0.0714
      3 C3          2.9217    1.0626   -0.0198 C.ar      1 <0>        -0.0734
      4 C4          3.0380   -0.3474   -0.0285 C.ar      1 <0>        -0.1039
      5 C5          1.8194   -1.0525   -0.0207 C.2       1 <0>        -0.0047
      6 C6          0.6438   -0.3743   -0.0060 C.2       1 <0>        -0.2607
      7 S1          1.1672    1.3317   -0.0019 S.3       1 <0>         0.1583
      8 C7         -0.7276   -0.9140    0.0045 C.cat     1 <0>         0.6483
      9 N1         -1.8070   -0.0548    0.0192 N.pl3     1 <0>        -0.7744
     10 C8          4.3560   -0.8711   -0.0442 C.ar      1 <0>        -0.0404
     11 C9          5.4332   -0.0423   -0.0503 C.ar      1 <0>        -0.0835
     12 I1          4.6457   -2.9459   -0.0573 I         1 <0>        -0.0086
     13 H1          6.1604    1.9770   -0.0470 H         1 <0>         0.1608
     14 H2          3.8974    2.9631   -0.0189 H         1 <0>         0.1542
     15 H3          1.8201   -2.1325   -0.0261 H         1 <0>         0.1481
     16 H4         -1.7856   -2.6562    0.0059 H         1 <0>         0.4503
     17 H5         -1.6634    0.9045    0.0227 H         1 <0>         0.4444
     18 H6         -2.7097   -0.4101    0.0261 H         1 <0>         0.4365
     19 H7          6.4255   -0.4683   -0.0622 H         1 <0>         0.1496
     20 N2         -0.8568   -2.2346   -0.0009 N.pl3     1 <0>        -0.7529
     21 H8         -0.0218   -2.8320   -0.0119 H         1 <0>         0.4619
@<TRIPOS>BOND
     1    1   11 ar
     2    1    2 ar
     3    1   13 1
     4    2    3 ar
     5    2   14 1
     6    3    7 1
     7    3    4 ar
     8    4    5 1
     9    4   10 ar
    10    5    6 2
    11    5   15 1
    12    6    7 1
    13    6    8 1
    14    8    9 1
    15    8   20 2
    16    9   17 1
    17    9   18 1
    18   10   11 ar
    19   10   12 1
    20   11   19 1
    21   16   20 1
    22   20   21 1
