@<TRIPOS>MOLECULE
ZINC00119305
   32    33     0     0     0
SMALL
USER_CHARGES

@<TRIPOS>ATOM
      1 C1         -0.0046    1.4124   -0.0051 C.3       1 <0>         0.0367
      2 O1          0.0099   -0.0164   -0.0169 O.3       1 <0>        -0.3519
      3 C2         -1.1869   -0.6418   -0.0024 C.2       1 <0>         0.5600
      4 O2         -2.2146    0.0108    0.0198 O.2       1 <0>        -0.5065
      5 C3         -1.2465   -2.0520   -0.0128 C.2       1 <0>        -0.3069
      6 C4         -2.3700   -2.8831   -0.0068 C.2       1 <0>         0.2583
      7 C5         -2.1756   -4.2408   -0.0201 C.2       1 <0>        -0.1806
      8 C6         -0.8772   -4.7280   -0.0389 C.2       1 <0>        -0.0213
      9 S1          0.0938   -3.2305   -0.0449 S.3       1 <0>         0.1718
     10 C7         -0.4174   -6.1241   -0.0548 C.2       1 <0>        -0.0973
     11 C8          0.8751   -6.6164   -0.0679 C.2       1 <0>        -0.1283
     12 C9          1.0557   -7.9799   -0.0812 C.2       1 <0>        -0.1593
     13 C10        -0.0317   -8.7946   -0.0812 C.2       1 <0>        -0.1725
     14 S2         -1.3815   -7.6269   -0.0545 S.3       1 <0>         0.1177
     15 N1         -3.6558   -2.3459    0.0126 N.am      1 <0>        -0.6498
     16 C11        -4.6806   -3.0683    0.5070 C.2       1 <0>         0.5513
     17 O3         -4.4690   -4.1460    1.0273 O.2       1 <0>        -0.5221
     18 C12        -6.0615   -2.5498    0.4165 C.2       1 <0>        -0.2199
     19 C13        -7.0829   -3.2698    0.9092 C.2       1 <0>        -0.0782
     20 C14        -8.4601   -2.7528    0.8190 C.2       1 <0>         0.5034
     21 O4         -8.6730   -1.6683    0.2955 O.co2     1 <0>        -0.6778
     22 O5         -9.3899   -3.4082    1.2675 O.co2     1 <0>        -0.6789
     23 H1          1.0192    1.7863   -0.0189 H         1 <0>         0.1017
     24 H2         -0.5366    1.7777   -0.8836 H         1 <0>         0.0623
     25 H3         -0.5074    1.7633    0.8961 H         1 <0>         0.0622
     26 H4         -3.0174   -4.9174   -0.0157 H         1 <0>         0.1733
     27 H5          1.7221   -5.9464   -0.0679 H         1 <0>         0.1389
     28 H6          2.0512   -8.3984   -0.0920 H         1 <0>         0.1393
     29 H7         -0.0696   -9.8739   -0.0909 H         1 <0>         0.1907
     30 H8         -3.8131   -1.4520   -0.3296 H         1 <0>         0.4286
     31 H9         -6.2495   -1.5920   -0.0458 H         1 <0>         0.1396
     32 H10        -6.8949   -4.2276    1.3716 H         1 <0>         0.1153
@<TRIPOS>BOND
     1    1    2 1
     2    1   23 1
     3    1   24 1
     4    1   25 1
     5    2    3 1
     6    3    4 2
     7    3    5 1
     8    5    9 1
     9    5    6 2
    10    6    7 1
    11    6   15 1
    12    7    8 2
    13    7   26 1
    14    8    9 1
    15    8   10 1
    16   10   14 1
    17   10   11 2
    18   11   12 1
    19   11   27 1
    20   12   13 2
    21   12   28 1
    22   13   14 1
    23   13   29 1
    24   15   16 am
    25   15   30 1
    26   16   17 2
    27   16   18 1
    28   18   19 2
    29   18   31 1
    30   19   20 1
    31   19   32 1
    32   20   21 2
    33   20   22 1
@<TRIPOS>MOLECULE
ZINC06845860
   53    52     0     0     0
SMALL
USER_CHARGES
(Z)-octadec-9-enoic acid
@<TRIPOS>ATOM
      1 C1          0.0625    2.5023   -8.6169 C.3       1 <0>        -0.1537
      2 C2          0.6195    1.7877   -7.3840 C.3       1 <0>        -0.1265
      3 C3         -0.1205    2.2727   -6.1358 C.3       1 <0>        -0.1208
      4 C4          0.4365    1.5582   -4.9028 C.3       1 <0>        -0.1217
      5 C5         -0.3035    2.0432   -3.6546 C.3       1 <0>        -0.1198
      6 C6          0.2535    1.3286   -2.4217 C.3       1 <0>        -0.1215
      7 C7         -0.4865    1.8136   -1.1734 C.3       1 <0>        -0.1127
      8 C8          0.0704    1.0991    0.0595 C.3       1 <0>        -0.1021
      9 C9         -0.6584    1.5768    1.2890 C.2       1 <0>        -0.1657
     10 C10        -1.1961    0.7092    2.1102 C.2       1 <0>        -0.1537
     11 C11        -0.9432   -0.7643    1.9210 C.3       1 <0>        -0.1025
     12 C12        -0.4114   -1.3620    3.2252 C.3       1 <0>        -0.1136
     13 C13        -0.1547   -2.8581    3.0332 C.3       1 <0>        -0.1192
     14 C14         0.3771   -3.4558    4.3373 C.3       1 <0>        -0.1193
     15 C15         0.6338   -4.9518    4.1453 C.3       1 <0>        -0.1197
     16 C16         1.1656   -5.5496    5.4494 C.3       1 <0>        -0.0989
     17 C17         1.4223   -7.0456    5.2574 C.3       1 <0>        -0.1582
     18 C18         1.9461   -7.6343    6.5420 C.2       1 <0>         0.4568
     19 O1          2.0984   -6.9297    7.5116 O.co2     1 <0>        -0.6425
     20 H1          0.2014    3.5778   -8.5072 H         1 <0>         0.0527
     21 H2          0.5897    2.1567   -9.5062 H         1 <0>         0.0528
     22 H3         -1.0002    2.2813   -8.7158 H         1 <0>         0.0530
     23 H4          1.6823    2.0087   -7.2852 H         1 <0>         0.0603
     24 H5          0.4807    0.7122   -7.4938 H         1 <0>         0.0607
     25 H6         -1.1833    2.0518   -6.2346 H         1 <0>         0.0603
     26 H7          0.0183    3.3483   -6.0260 H         1 <0>         0.0599
     27 H8          1.4993    1.7791   -4.8040 H         1 <0>         0.0607
     28 H9          0.2977    0.4826   -5.0126 H         1 <0>         0.0612
     29 H10        -1.3663    1.8222   -3.7534 H         1 <0>         0.0603
     30 H11        -0.1647    3.1187   -3.5449 H         1 <0>         0.0598
     31 H12         1.3162    1.5496   -2.3228 H         1 <0>         0.0611
     32 H13         0.1146    0.2531   -2.5314 H         1 <0>         0.0618
     33 H14        -1.5493    1.5927   -1.2723 H         1 <0>         0.0609
     34 H15        -0.3477    2.8892   -1.0637 H         1 <0>         0.0597
     35 H16        -0.0684    0.0235   -0.0502 H         1 <0>         0.0772
     36 H17         1.1332    1.3200    0.1583 H         1 <0>         0.0673
     37 H18        -0.7375    2.6344    1.4931 H         1 <0>         0.1055
     38 H19        -1.8206    1.0500    2.9228 H         1 <0>         0.1068
     39 H20        -1.8742   -1.2605    1.6470 H         1 <0>         0.0676
     40 H21        -0.2081   -0.9081    1.1292 H         1 <0>         0.0753
     41 H22         0.5196   -0.8659    3.4992 H         1 <0>         0.0612
     42 H23        -1.1465   -1.2183    4.0171 H         1 <0>         0.0609
     43 H24        -1.0857   -3.3543    2.7591 H         1 <0>         0.0595
     44 H25         0.5804   -3.0019    2.2413 H         1 <0>         0.0591
     45 H26         1.3081   -2.9596    4.6114 H         1 <0>         0.0598
     46 H27        -0.3580   -3.3120    5.1292 H         1 <0>         0.0598
     47 H28        -0.2972   -5.4480    3.8712 H         1 <0>         0.0555
     48 H29         1.3689   -5.0956    3.3534 H         1 <0>         0.0554
     49 H30         2.0966   -5.0534    5.7235 H         1 <0>         0.0584
     50 H31         0.4305   -5.4058    6.2413 H         1 <0>         0.0584
     51 H32         0.4913   -7.5418    4.9834 H         1 <0>         0.0612
     52 H33         2.1574   -7.1894    4.4655 H         1 <0>         0.0612
     53 O2          2.2434   -8.9416    6.6090 O.co2     1 <0>        -0.7802
@<TRIPOS>BOND
     1    1    2 1
     2    1   20 1
     3    1   21 1
     4    1   22 1
     5    2    3 1
     6    2   23 1
     7    2   24 1
     8    3    4 1
     9    3   25 1
    10    3   26 1
    11    4    5 1
    12    4   27 1
    13    4   28 1
    14    5    6 1
    15    5   29 1
    16    5   30 1
    17    6    7 1
    18    6   31 1
    19    6   32 1
    20    7    8 1
    21    7   33 1
    22    7   34 1
    23    8    9 1
    24    8   35 1
    25    8   36 1
    26    9   10 2
    27    9   37 1
    28   10   11 1
    29   10   38 1
    30   11   12 1
    31   11   39 1
    32   11   40 1
    33   12   13 1
    34   12   41 1
    35   12   42 1
    36   13   14 1
    37   13   43 1
    38   13   44 1
    39   14   15 1
    40   14   45 1
    41   14   46 1
    42   15   16 1
    43   15   47 1
    44   15   48 1
    45   16   17 1
    46   16   49 1
    47   16   50 1
    48   17   18 1
    49   17   51 1
    50   17   52 1
    51   18   19 2
    52   18   53 1
