@<TRIPOS>MOLECULE
ZINC03789788
   63    64     0     0     0
SMALL
USER_CHARGES
2-[1-(hydroxycarbamoyl)-2-(2-thienylsulfanyl)ethyl]-4-methyl-N-[1-(methylcarbamoyl)-2-phenyl-ethyl]-pentanamide
@<TRIPOS>ATOM
      1 C1          3.1221    2.9557    1.7202 C.3       1 <0>        -0.1431
      2 C2          2.5102    1.7687    0.9736 C.3       1 <0>        -0.1379
      3 C3          2.7420    0.4870    1.7763 C.3       1 <0>        -0.1394
      4 C4          1.0073    1.9961    0.7987 C.3       1 <0>        -0.1065
      5 C5          0.4069    0.8410   -0.0051 C.3       1 <0>        -0.0885
      6 H1          0.8505   -0.0991    0.3229 H         1 <0>         0.1149
      7 C6          0.6967    1.0500   -1.4928 C.3       1 <0>        -0.0588
      8 H2          0.1623    1.9316   -1.8467 H         1 <0>         0.1151
      9 C7          0.2335   -0.1774   -2.2801 C.3       1 <0>        -0.1124
     10 S1          0.4407    0.1297   -4.0558 S.3       1 <0>        -0.0144
     11 C8         -0.1286   -1.3552   -4.8145 C.2       1 <0>        -0.1714
     12 C9         -0.1962   -1.6718   -6.1386 C.2       1 <0>        -0.1349
     13 C10        -0.6846   -2.9141   -6.5020 C.2       1 <0>        -0.1423
     14 C11        -1.0794   -3.7751   -5.5344 C.2       1 <0>        -0.1732
     15 S2         -0.7596   -2.8391   -4.0484 S.3       1 <0>         0.0560
     16 C12         2.1774    1.2461   -1.6934 C.2       1 <0>         0.5371
     17 O1          2.9647    0.4671   -1.1991 O.2       1 <0>        -0.4942
     18 N1          2.6267    2.2870   -2.4221 N.am      1 <0>        -0.5886
     19 O2          4.0180    2.4712   -2.6105 O.3       1 <0>        -0.3117
     20 C13        -1.0833    0.7970    0.2150 C.2       1 <0>         0.5303
     21 O3         -1.8280    1.3539   -0.5637 O.2       1 <0>        -0.5294
     22 N2         -1.5885    0.1389    1.2771 N.am      1 <0>        -0.7016
     23 C14        -3.0392    0.0187    1.4421 C.3       1 <0>         0.1370
     24 H3         -3.5070   -0.1037    0.4652 H         1 <0>         0.1156
     25 C15        -3.3542   -1.1982    2.3144 C.3       1 <0>        -0.0835
     26 C16        -2.9289   -2.4537    1.5975 C.ar      1 <0>        -0.0870
     27 C17        -3.8193   -3.1126    0.7704 C.ar      1 <0>        -0.1132
     28 C18        -3.4277   -4.2617    0.1091 C.ar      1 <0>        -0.1147
     29 C19        -2.1491   -4.7576    0.2830 C.ar      1 <0>        -0.1168
     30 C20        -1.2605   -4.1016    1.1142 C.ar      1 <0>        -0.1145
     31 C21        -1.6504   -2.9497    1.7715 C.ar      1 <0>        -0.1117
     32 C22        -3.5745    1.2627    2.1031 C.2       1 <0>         0.5023
     33 O4         -2.8083    2.1045    2.5217 O.2       1 <0>        -0.5232
     34 N3         -4.9046    1.4397    2.2291 N.am      1 <0>        -0.7333
     35 C23        -5.4250    2.6490    2.8717 C.3       1 <0>         0.0870
     36 H4          2.6525    3.0503    2.6993 H         1 <0>         0.0504
     37 H5          4.1928    2.7937    1.8448 H         1 <0>         0.0547
     38 H6          2.9569    3.8689    1.1484 H         1 <0>         0.0490
     39 H7          2.9797    1.6742   -0.0055 H         1 <0>         0.1157
     40 H8          2.1362    0.5109    2.6821 H         1 <0>         0.0464
     41 H9          2.4595   -0.3757    1.1729 H         1 <0>         0.0583
     42 H10         3.7956    0.4125    2.0457 H         1 <0>         0.0537
     43 H11         0.8410    2.9333    0.2676 H         1 <0>         0.0699
     44 H12         0.5307    2.0437    1.7778 H         1 <0>         0.0792
     45 H13         0.8298   -1.0421   -1.9888 H         1 <0>         0.1037
     46 H14        -0.8173   -0.3716   -2.0651 H         1 <0>         0.1097
     47 H15         0.1259   -0.9660   -6.8900 H         1 <0>         0.1365
     48 H16        -0.7498   -3.1935   -7.5431 H         1 <0>         0.1390
     49 H17        -1.4800   -4.7730   -5.6354 H         1 <0>         0.1882
     50 H18         1.9971    2.9101   -2.8174 H         1 <0>         0.4091
     51 H19         4.2434    3.2439   -3.1465 H         1 <0>         0.3897
     52 H20        -0.9916   -0.2550    1.9324 H         1 <0>         0.4059
     53 H21        -2.8146   -1.1182    3.2581 H         1 <0>         0.0879
     54 H22        -4.4256   -1.2370    2.5106 H         1 <0>         0.0954
     55 H23        -4.8196   -2.7277    0.6380 H         1 <0>         0.1221
     56 H24        -4.1221   -4.7744   -0.5400 H         1 <0>         0.1223
     57 H25        -1.8446   -5.6577   -0.2302 H         1 <0>         0.1213
     58 H26        -0.2617   -4.4892    1.2504 H         1 <0>         0.1233
     59 H27        -0.9562   -2.4373    2.4211 H         1 <0>         0.1193
     60 H28        -5.5174    0.7664    1.8943 H         1 <0>         0.4018
     61 H29        -6.5144    2.6151    2.8818 H         1 <0>         0.0772
     62 H30        -5.0537    2.7052    3.8950 H         1 <0>         0.0606
     63 H31        -5.0940    3.5267    2.3165 H         1 <0>         0.0603
@<TRIPOS>BOND
     1    1    2 1
     2    1   36 1
     3    1   37 1
     4    1   38 1
     5    2    3 1
     6    2    4 1
     7    2   39 1
     8    3   40 1
     9    3   41 1
    10    3   42 1
    11    4    5 1
    12    4   43 1
    13    4   44 1
    14    5    6 1
    15    5    7 1
    16    5   20 1
    17    7    8 1
    18    7    9 1
    19    7   16 1
    20    9   10 1
    21    9   45 1
    22    9   46 1
    23   10   11 1
    24   11   15 1
    25   11   12 2
    26   12   13 1
    27   12   47 1
    28   13   14 2
    29   13   48 1
    30   14   15 1
    31   14   49 1
    32   16   17 2
    33   16   18 am
    34   18   19 1
    35   18   50 1
    36   19   51 1
    37   20   21 2
    38   20   22 am
    39   22   23 1
    40   22   52 1
    41   23   24 1
    42   23   25 1
    43   23   32 1
    44   25   26 1
    45   25   53 1
    46   25   54 1
    47   26   31 ar
    48   26   27 ar
    49   27   28 ar
    50   27   55 1
    51   28   29 ar
    52   28   56 1
    53   29   30 ar
    54   29   57 1
    55   30   31 ar
    56   30   58 1
    57   31   59 1
    58   32   33 2
    59   32   34 am
    60   34   35 1
    61   34   60 1
    62   35   61 1
    63   35   62 1
    64   35   63 1
