@<TRIPOS>MOLECULE
ZINC01486219
   63    66     0     0     0
SMALL
USER_CHARGES
3-(2,6-dichlorophenyl)-8-[4-(2-diethylaminoethoxy)phenyl]amino-5-methyl-5,7,9-triazabicyclo[4.4.0]deca-2,7,9,11-tetraen-4-one
@<TRIPOS>ATOM
      1 C1          4.3966   -4.7837   -2.5468 C.3       1 <0>        -0.1870
      2 C2          2.8964   -4.6021   -2.7861 C.3       1 <0>        -0.0162
      3 C3          2.4461   -6.8910   -2.1372 C.3       1 <0>        -0.0118
      4 C4          1.8425   -7.2999   -3.4823 C.3       1 <0>        -0.1890
      5 C5          2.4154   -5.1324   -0.4731 C.3       1 <0>        -0.0017
      6 C6          1.8626   -3.7372   -0.1755 C.3       1 <0>         0.0258
      7 O1          0.4386   -3.7538   -0.2937 O.3       1 <0>        -0.3284
      8 C7         -0.2140   -2.5840   -0.0593 C.ar      1 <0>         0.0962
      9 C8         -1.5967   -2.5300   -0.1569 C.ar      1 <0>        -0.1190
     10 C9         -2.2601   -1.3423    0.0800 C.ar      1 <0>        -0.0693
     11 C10        -1.5427   -0.2019    0.4166 C.ar      1 <0>         0.1456
     12 C11        -0.1586   -0.2569    0.5145 C.ar      1 <0>        -0.1051
     13 C12         0.5033   -1.4453    0.2768 C.ar      1 <0>        -0.1797
     14 N1         -2.2146    1.0029    0.6565 N.pl3     1 <0>        -0.6299
     15 C13        -3.4618    0.9918    1.2505 C.ar      1 <0>         0.6044
     16 N2         -3.9572   -0.1650    1.6772 N.ar      1 <0>        -0.5742
     17 C14        -5.1437   -0.2299    2.2512 C.ar      1 <0>         0.2632
     18 C15        -5.8809    0.9543    2.4052 C.ar      1 <0>        -0.2686
     19 C16        -7.1573    0.9487    3.0126 C.2       1 <0>         0.0223
     20 C17        -7.8369    2.1304    3.1401 C.2       1 <0>        -0.1517
     21 C18        -7.2276    3.3671    2.6461 C.2       1 <0>         0.5544
     22 O2         -7.8250    4.4230    2.7559 O.2       1 <0>        -0.4939
     23 N3         -6.0096    3.3430    2.0714 N.am      1 <0>        -0.5055
     24 C19        -5.3213    2.1634    1.9394 C.ar      1 <0>         0.4667
     25 N4         -4.1173    2.1350    1.3785 N.ar      1 <0>        -0.5922
     26 C20        -5.4137    4.5888    1.5828 C.3       1 <0>         0.0688
     27 C21        -9.1768    2.1577    3.7717 C.ar      1 <0>        -0.0161
     28 C22       -10.3226    1.9980    2.9915 C.ar      1 <0>        -0.0058
     29 C23       -11.5685    2.0201    3.5872 C.ar      1 <0>        -0.1054
     30 C24       -11.6824    2.2097    4.9527 C.ar      1 <0>        -0.0846
     31 C25       -10.5507    2.3740    5.7310 C.ar      1 <0>        -0.1053
     32 C26        -9.2987    2.3491    5.1486 C.ar      1 <0>        -0.0060
     33 Cl1        -7.8797    2.5560    6.1271 Cl        1 <0>        -0.0505
     34 Cl2       -10.1822    1.7665    1.2768 Cl        1 <0>        -0.0510
     35 H1          4.9531   -4.1230   -3.2115 H         1 <0>         0.1068
     36 H2          4.6315   -4.5389   -1.5110 H         1 <0>         0.0793
     37 H3          4.6739   -5.8185   -2.7475 H         1 <0>         0.0822
     38 H4          2.6589   -4.8621   -3.8177 H         1 <0>         0.1316
     39 H5          2.6219   -3.5637   -2.6008 H         1 <0>         0.1265
     40 H6          3.5263   -7.0339   -2.1651 H         1 <0>         0.1326
     41 H7          2.0186   -7.5058   -1.3452 H         1 <0>         0.1298
     42 H8          2.0860   -8.3423   -3.6879 H         1 <0>         0.1065
     43 H9          0.7598   -7.1800   -3.4463 H         1 <0>         0.0812
     44 H10         2.2519   -6.6689   -4.2712 H         1 <0>         0.0791
     45 H11         3.4910   -5.1423   -0.2968 H         1 <0>         0.1506
     46 H12         1.9336   -5.8608    0.1791 H         1 <0>         0.1410
     47 H13         2.2779   -3.0226   -0.8861 H         1 <0>         0.0853
     48 H14         2.1397   -3.4450    0.8374 H         1 <0>         0.1080
     49 H15        -2.1544   -3.4170   -0.4187 H         1 <0>         0.1368
     50 H16        -3.3362   -1.2993   -0.0007 H         1 <0>         0.1474
     51 H17         0.4000    0.6295    0.7766 H         1 <0>         0.1342
     52 H18         1.5798   -1.4882    0.3529 H         1 <0>         0.1308
     53 H19        -1.8044    1.8453    0.4058 H         1 <0>         0.4284
     54 H20        -5.5388   -1.1742    2.5955 H         1 <0>         0.1893
     55 H21        -7.5900    0.0261    3.3703 H         1 <0>         0.1521
     56 H22        -5.7018    4.7463    0.5434 H         1 <0>         0.0759
     57 H23        -5.7679    5.4230    2.1883 H         1 <0>         0.0941
     58 H24        -4.3278    4.5242    1.6530 H         1 <0>         0.0949
     59 H25       -12.4560    1.8924    2.9851 H         1 <0>         0.1450
     60 H26       -12.6591    2.2300    5.4131 H         1 <0>         0.1471
     61 H27       -10.6465    2.5224    6.7965 H         1 <0>         0.1451
     62 N5          2.1179   -5.4728   -1.8803 N.4       1 <0>        -0.3969
     63 H28         1.1169   -5.3253   -2.0547 H         1 <0>         0.4358
@<TRIPOS>BOND
     1    1    2 1
     2    1   35 1
     3    1   36 1
     4    1   37 1
     5    2   38 1
     6    2   39 1
     7    2   62 1
     8    3    4 1
     9    3   40 1
    10    3   41 1
    11    3   62 1
    12    4   42 1
    13    4   43 1
    14    4   44 1
    15    5    6 1
    16    5   45 1
    17    5   46 1
    18    5   62 1
    19    6    7 1
    20    6   47 1
    21    6   48 1
    22    7    8 1
    23    8   13 ar
    24    8    9 ar
    25    9   10 ar
    26    9   49 1
    27   10   11 ar
    28   10   50 1
    29   11   12 ar
    30   11   14 1
    31   12   13 ar
    32   12   51 1
    33   13   52 1
    34   14   15 1
    35   14   53 1
    36   15   25 ar
    37   15   16 ar
    38   16   17 ar
    39   17   18 ar
    40   17   54 1
    41   18   24 ar
    42   18   19 1
    43   19   20 2
    44   19   55 1
    45   20   21 1
    46   20   27 1
    47   21   22 2
    48   21   23 am
    49   23   24 1
    50   23   26 1
    51   24   25 ar
    52   26   56 1
    53   26   57 1
    54   26   58 1
    55   27   32 ar
    56   27   28 ar
    57   28   29 ar
    58   28   34 1
    59   29   30 ar
    60   29   59 1
    61   30   31 ar
    62   30   60 1
    63   31   32 ar
    64   31   61 1
    65   32   33 1
    66   62   63 1
