@<TRIPOS>MOLECULE
ZINC13446265
   64    65     0     0     0
SMALL
USER_CHARGES
3-cyclohexylpropyl (2S)-1-(3,3-dimethyl-2-oxo-pentanoyl)piperidine-2-carboxylate
@<TRIPOS>ATOM
      1 C1         -0.9418   10.3751   -0.9761 C.3       1 <0>        -0.1557
      2 C2          0.4152    9.6781   -0.8595 C.3       1 <0>        -0.1081
      3 C3          0.2015    8.1786   -0.6431 C.3       1 <0>        -0.0876
      4 C4         -0.5704    7.5971   -1.8292 C.3       1 <0>        -0.1471
      5 C5         -0.5974    7.9577    0.6429 C.3       1 <0>        -0.1456
      6 C6          1.5381    7.4920   -0.5283 C.2       1 <0>         0.3697
      7 O1          2.5567    8.1357   -0.6111 O.2       1 <0>        -0.4071
      8 C7          1.6030    6.0183   -0.3126 C.2       1 <0>         0.4722
      9 O2          0.5919    5.3502   -0.3783 O.2       1 <0>        -0.4766
     10 N1          2.7846    5.4279   -0.0447 N.am      1 <0>        -0.5788
     11 C8          3.9888    6.2357    0.1938 C.3       1 <0>         0.0729
     12 C9          4.6103    5.8169    1.5300 C.3       1 <0>        -0.1391
     13 C10         4.8579    4.3067    1.5218 C.3       1 <0>        -0.1195
     14 C11         3.5263    3.5706    1.3566 C.3       1 <0>        -0.1241
     15 C12         2.8926    3.9639    0.0185 C.3       1 <0>         0.1492
     16 H1          3.5176    3.6080   -0.8005 H         1 <0>         0.1074
     17 C13         1.5202    3.3509   -0.0900 C.2       1 <0>         0.4764
     18 O3          0.7184    3.5031    0.8009 O.2       1 <0>        -0.4857
     19 O4          1.1886    2.6358   -1.1765 O.3       1 <0>        -0.3596
     20 C14        -0.1502    2.0749   -1.2131 C.3       1 <0>         0.0744
     21 C15        -0.3427    1.2994   -2.5178 C.3       1 <0>        -0.1197
     22 C16        -1.7534    0.7083   -2.5564 C.3       1 <0>        -0.1124
     23 C17        -1.9459   -0.0672   -3.8612 C.3       1 <0>        -0.0848
     24 C18        -1.8801    0.9007   -5.0442 C.3       1 <0>        -0.1171
     25 C19        -2.0727    0.1251   -6.3490 C.3       1 <0>        -0.1207
     26 C20        -3.4360   -0.5691   -6.3332 C.3       1 <0>        -0.1209
     27 C21        -3.5018   -1.5370   -5.1501 C.3       1 <0>        -0.1203
     28 C22        -3.3093   -0.7615   -3.8454 C.3       1 <0>        -0.1151
     29 H2         -0.7895   11.4433   -1.1302 H         1 <0>         0.0587
     30 H3         -1.4917    9.9608   -1.8211 H         1 <0>         0.0601
     31 H4         -1.5109   10.2177   -0.0599 H         1 <0>         0.0600
     32 H5          0.9651   10.0924   -0.0145 H         1 <0>         0.0691
     33 H6          0.9844    9.8354   -1.7757 H         1 <0>         0.0694
     34 H7         -0.7227    6.5288   -1.6751 H         1 <0>         0.0809
     35 H8         -1.5372    8.0936   -1.9123 H         1 <0>         0.0751
     36 H9         -0.0013    7.7544   -2.7454 H         1 <0>         0.0560
     37 H10        -0.0475    8.3720    1.4879 H         1 <0>         0.0567
     38 H11        -1.5642    8.4543    0.5599 H         1 <0>         0.0768
     39 H12        -0.7497    6.8895    0.7971 H         1 <0>         0.0763
     40 H13         3.7195    7.2912    0.2310 H         1 <0>         0.1344
     41 H14         4.7055    6.0695   -0.6105 H         1 <0>         0.0779
     42 H15         3.9296    6.0696    2.3429 H         1 <0>         0.0692
     43 H16         5.5561    6.3399    1.6716 H         1 <0>         0.0845
     44 H17         5.3227    4.0098    2.4619 H         1 <0>         0.0769
     45 H18         5.5190    4.0516    0.6936 H         1 <0>         0.0707
     46 H19         2.8558    3.8444    2.1712 H         1 <0>         0.0836
     47 H20         3.7002    2.4947    1.3745 H         1 <0>         0.0848
     48 H21        -0.8830    2.8799   -1.1574 H         1 <0>         0.0727
     49 H22        -0.2852    1.4014   -0.3668 H         1 <0>         0.0658
     50 H23        -0.2077    1.9729   -3.3642 H         1 <0>         0.0754
     51 H24         0.3901    0.4944   -2.5736 H         1 <0>         0.0721
     52 H25        -1.8884    0.0348   -1.7101 H         1 <0>         0.0659
     53 H26        -2.4863    1.5133   -2.5007 H         1 <0>         0.0664
     54 H27        -1.1587   -0.8148   -3.9590 H         1 <0>         0.0711
     55 H28        -2.6674    1.6482   -4.9464 H         1 <0>         0.0617
     56 H29        -0.9089    1.3952   -5.0555 H         1 <0>         0.0639
     57 H30        -1.2854   -0.6224   -6.4469 H         1 <0>         0.0608
     58 H31        -2.0258    0.8147   -7.1918 H         1 <0>         0.0605
     59 H32        -3.5732   -1.1216   -7.2627 H         1 <0>         0.0599
     60 H33        -4.2233    0.1784   -6.2353 H         1 <0>         0.0608
     61 H34        -2.7146   -2.2845   -5.2480 H         1 <0>         0.0609
     62 H35        -4.4731   -2.0316   -5.1389 H         1 <0>         0.0609
     63 H36        -3.3562   -1.4510   -3.0025 H         1 <0>         0.0614
     64 H37        -4.0965   -0.0140   -3.7475 H         1 <0>         0.0621
@<TRIPOS>BOND
     1    1    2 1
     2    1   29 1
     3    1   30 1
     4    1   31 1
     5    2    3 1
     6    2   32 1
     7    2   33 1
     8    3    4 1
     9    3    5 1
    10    3    6 1
    11    4   34 1
    12    4   35 1
    13    4   36 1
    14    5   37 1
    15    5   38 1
    16    5   39 1
    17    6    7 2
    18    6    8 1
    19    8    9 2
    20    8   10 am
    21   10   15 1
    22   10   11 1
    23   11   12 1
    24   11   40 1
    25   11   41 1
    26   12   13 1
    27   12   42 1
    28   12   43 1
    29   13   14 1
    30   13   44 1
    31   13   45 1
    32   14   15 1
    33   14   46 1
    34   14   47 1
    35   15   16 1
    36   15   17 1
    37   17   18 2
    38   17   19 1
    39   19   20 1
    40   20   21 1
    41   20   48 1
    42   20   49 1
    43   21   22 1
    44   21   50 1
    45   21   51 1
    46   22   23 1
    47   22   52 1
    48   22   53 1
    49   23   28 1
    50   23   24 1
    51   23   54 1
    52   24   25 1
    53   24   55 1
    54   24   56 1
    55   25   26 1
    56   25   57 1
    57   25   58 1
    58   26   27 1
    59   26   59 1
    60   26   60 1
    61   27   28 1
    62   27   61 1
    63   27   62 1
    64   28   63 1
    65   28   64 1
@<TRIPOS>MOLECULE
ZINC03872170
   43    44     0     0     0
SMALL
USER_CHARGES

@<TRIPOS>ATOM
      1 C1         -0.1609    1.3055    0.0128 C.3       1 <0>        -0.1551
      2 C2         -0.0571   -0.2208    0.0386 C.3       1 <0>        -0.0952
      3 H1         -1.0579   -0.6515    0.0713 H         1 <0>         0.0813
      4 C3          0.6629   -0.7028   -1.2219 C.3       1 <0>        -0.1060
      5 C4          2.0348   -0.0267   -1.3146 C.3       1 <0>        -0.1417
      6 H2          1.9054    1.0469   -1.4517 H         1 <0>         0.1041
      7 C5          2.7874   -0.2876   -0.0285 C.2       1 <0>         0.3657
      8 O1          3.9102   -0.7316   -0.0473 O.2       1 <0>        -0.4319
      9 C6          2.0972    0.0215    1.2816 C.3       1 <0>        -0.1722
     10 H3          1.9736    1.0995    1.3848 H         1 <0>         0.1142
     11 C7          0.7246   -0.6563    1.2792 C.3       1 <0>        -0.1107
     12 C8          2.9371   -0.5129    2.4434 C.3       1 <0>         0.1172
     13 H4          3.9474   -0.1092    2.3773 H         1 <0>         0.1084
     14 C9          2.3033   -0.0868    3.7692 C.3       1 <0>        -0.1459
     15 C10         3.2263   -0.4783    4.9249 C.3       1 <0>        -0.0873
     16 C11         3.3170   -2.0054    5.0163 C.3       1 <0>        -0.1486
     17 C12         4.1338   -2.3805    6.2245 C.2       1 <0>         0.5216
     18 O2          4.7671   -3.4142    6.2162 O.2       1 <0>        -0.4996
     19 N1          4.1747   -1.5929    7.3096 N.am      1 <0>        -0.6784
     20 C13         3.5088   -0.4309    7.3843 C.2       1 <0>         0.5250
     21 O3          3.5955    0.2402    8.3902 O.2       1 <0>        -0.5033
     22 C14         2.6560    0.0564    6.2428 C.3       1 <0>        -0.1400
     23 O4          2.9889   -1.9395    2.3771 O.3       1 <0>        -0.5451
     24 C15         2.8141   -0.6055   -2.4972 C.3       1 <0>        -0.1418
     25 H5          0.8394    1.7372   -0.0199 H         1 <0>         0.0579
     26 H6         -0.7200    1.6167   -0.8697 H         1 <0>         0.0588
     27 H7         -0.6761    1.6498    0.9095 H         1 <0>         0.0582
     28 H8          0.7929   -1.7841   -1.1753 H         1 <0>         0.0687
     29 H9          0.0706   -0.4452   -2.0999 H         1 <0>         0.0756
     30 H10         0.1760   -0.3656    2.1751 H         1 <0>         0.0790
     31 H11         0.8531   -1.7386    1.2665 H         1 <0>         0.0706
     32 H12         2.1568    0.9933    3.7712 H         1 <0>         0.0855
     33 H13         1.3408   -0.5843    3.8883 H         1 <0>         0.0790
     34 H14         4.2188   -0.0593    4.7588 H         1 <0>         0.0886
     35 H15         2.3152   -2.4248    5.1094 H         1 <0>         0.1074
     36 H16         3.7946   -2.3964    4.1179 H         1 <0>         0.1438
     37 H17         4.7065   -1.8749    8.0702 H         1 <0>         0.4116
     38 H18         2.6589    1.1463    6.2254 H         1 <0>         0.1149
     39 H19         1.6353   -0.3041    6.3709 H         1 <0>         0.1126
     40 H20         2.1233   -2.3674    2.4301 H         1 <0>         0.3700
     41 H21         2.2602   -0.4282   -3.4190 H         1 <0>         0.0621
     42 H22         3.7894   -0.1229   -2.5607 H         1 <0>         0.0615
     43 H23         2.9480   -1.6778   -2.3542 H         1 <0>         0.0594
@<TRIPOS>BOND
     1    1    2 1
     2    1   25 1
     3    1   26 1
     4    1   27 1
     5    2    3 1
     6    2   11 1
     7    2    4 1
     8    4    5 1
     9    4   28 1
    10    4   29 1
    11    5    6 1
    12    5    7 1
    13    5   24 1
    14    7    8 2
    15    7    9 1
    16    9   10 1
    17    9   11 1
    18    9   12 1
    19   11   30 1
    20   11   31 1
    21   12   13 1
    22   12   14 1
    23   12   23 1
    24   14   15 1
    25   14   32 1
    26   14   33 1
    27   15   22 1
    28   15   16 1
    29   15   34 1
    30   16   17 1
    31   16   35 1
    32   16   36 1
    33   17   18 2
    34   17   19 am
    35   19   20 am
    36   19   37 1
    37   20   21 2
    38   20   22 1
    39   22   38 1
    40   22   39 1
    41   23   40 1
    42   24   41 1
    43   24   42 1
    44   24   43 1
@<TRIPOS>MOLECULE
ZINC11325690
   68    70     0     0     0
SMALL
USER_CHARGES
1,3-diphenylpropyl 1-(3,3-dimethyl-2-oxo-pentanoyl)piperidine-2-carboxylate
@<TRIPOS>ATOM
      1 C1         13.6725   -4.0269    1.2440 C.3       1 <0>        -0.1551
      2 C2         12.4438   -4.9244    1.4044 C.3       1 <0>        -0.1079
      3 C3         11.2059   -4.1924    0.8822 C.3       1 <0>        -0.0862
      4 C4         11.4001   -3.8533   -0.5970 C.3       1 <0>        -0.1460
      5 C5         11.0025   -2.9021    1.6788 C.3       1 <0>        -0.1441
      6 C6          9.9957   -5.0764    1.0402 C.2       1 <0>         0.3692
      7 O1         10.1113   -6.1783    1.5210 O.2       1 <0>        -0.4100
      8 C7          8.6556   -4.5907    0.6031 C.2       1 <0>         0.4677
      9 O2          8.5593   -3.5518   -0.0170 O.2       1 <0>        -0.4619
     10 N1          7.5512   -5.3052    0.8966 N.am      1 <0>        -0.5807
     11 C8          7.6317   -6.4817    1.7730 C.3       1 <0>         0.0734
     12 C9          6.6184   -6.3195    2.9104 C.3       1 <0>        -0.1388
     13 C10         5.2291   -6.0703    2.3189 C.3       1 <0>        -0.1191
     14 C11         5.2434   -4.7790    1.4970 C.3       1 <0>        -0.1239
     15 C12         6.2438   -4.9227    0.3458 C.3       1 <0>         0.1508
     16 H1          5.8987   -5.6927   -0.3443 H         1 <0>         0.1050
     17 C13         6.3674   -3.6096   -0.3831 C.2       1 <0>         0.4765
     18 O3          6.6320   -2.6017    0.2285 O.2       1 <0>        -0.4784
     19 O4          6.1834   -3.5596   -1.7118 O.3       1 <0>        -0.3483
     20 C14         6.3178   -2.2611   -2.3475 C.3       1 <0>         0.1408
     21 H2          6.0293   -1.4804   -1.6437 H         1 <0>         0.0913
     22 C15         5.4106   -2.1992   -3.5780 C.3       1 <0>        -0.1043
     23 C16         3.9478   -2.2849   -3.1378 C.3       1 <0>        -0.0814
     24 C17         3.0542   -2.2240   -4.3498 C.ar      1 <0>        -0.0814
     25 C18         2.6867   -3.3890   -4.9969 C.ar      1 <0>        -0.1161
     26 C19         1.8667   -3.3331   -6.1083 C.ar      1 <0>        -0.1181
     27 C20         1.4144   -2.1123   -6.5729 C.ar      1 <0>        -0.1247
     28 C21         1.7818   -0.9473   -5.9258 C.ar      1 <0>        -0.1179
     29 C22         2.6023   -1.0031   -4.8147 C.ar      1 <0>        -0.1180
     30 C23         7.7499   -2.0537   -2.7684 C.ar      1 <0>        -0.0937
     31 C24         8.4719   -3.1038   -3.3041 C.ar      1 <0>        -0.0889
     32 C25         9.7840   -2.9123   -3.6947 C.ar      1 <0>        -0.1215
     33 C26        10.3775   -1.6735   -3.5398 C.ar      1 <0>        -0.1138
     34 C27         9.6571   -0.6248   -2.9992 C.ar      1 <0>        -0.1195
     35 C28         8.3434   -0.8149   -2.6135 C.ar      1 <0>        -0.0971
     36 H3         13.5276   -3.1077    1.8115 H         1 <0>         0.0596
     37 H4         14.5544   -4.5484    1.6160 H         1 <0>         0.0580
     38 H5         13.8109   -3.7853    0.1901 H         1 <0>         0.0599
     39 H6         12.3054   -5.1660    2.4582 H         1 <0>         0.0681
     40 H7         12.5887   -5.8436    0.8369 H         1 <0>         0.0685
     41 H8         10.5182   -3.3318   -0.9691 H         1 <0>         0.0864
     42 H9         12.2755   -3.2139   -0.7113 H         1 <0>         0.0724
     43 H10        11.5450   -4.7725   -1.1646 H         1 <0>         0.0530
     44 H11        10.8641   -3.1437    2.7327 H         1 <0>         0.0551
     45 H12        11.8779   -2.2627    1.5645 H         1 <0>         0.0753
     46 H13        10.1206   -2.3806    1.3068 H         1 <0>         0.0766
     47 H14         7.3985   -7.3799    1.2012 H         1 <0>         0.0761
     48 H15         8.6367   -6.5605    2.1875 H         1 <0>         0.1344
     49 H16         6.5996   -7.2275    3.5132 H         1 <0>         0.0835
     50 H17         6.9052   -5.4738    3.5354 H         1 <0>         0.0687
     51 H18         4.9536   -6.9053    1.6747 H         1 <0>         0.0700
     52 H19         4.5019   -5.9788    3.1257 H         1 <0>         0.0762
     53 H20         5.5404   -3.9470    2.1354 H         1 <0>         0.0829
     54 H21         4.2486   -4.5911    1.0931 H         1 <0>         0.0842
     55 H22         5.6400   -3.0335   -4.2408 H         1 <0>         0.0784
     56 H23         5.5770   -1.2599   -4.1052 H         1 <0>         0.0869
     57 H24         3.7183   -1.4506   -2.4750 H         1 <0>         0.0723
     58 H25         3.7814   -3.2243   -2.6106 H         1 <0>         0.0776
     59 H26         3.0401   -4.3428   -4.6339 H         1 <0>         0.1214
     60 H27         1.5796   -4.2433   -6.6138 H         1 <0>         0.1215
     61 H28         0.7776   -2.0683   -7.4441 H         1 <0>         0.1208
     62 H29         1.4287    0.0065   -6.2890 H         1 <0>         0.1215
     63 H30         2.8896   -0.0929   -4.3093 H         1 <0>         0.1208
     64 H31         8.0096   -4.0728   -3.4210 H         1 <0>         0.1173
     65 H32        10.3469   -3.7318   -4.1167 H         1 <0>         0.1179
     66 H33        11.4040   -1.5250   -3.8408 H         1 <0>         0.1189
     67 H34        10.1209    0.3430   -2.8779 H         1 <0>         0.1203
     68 H35         7.7807    0.0044   -2.1909 H         1 <0>         0.1181
@<TRIPOS>BOND
     1    1    2 1
     2    1   36 1
     3    1   37 1
     4    1   38 1
     5    2    3 1
     6    2   39 1
     7    2   40 1
     8    3    4 1
     9    3    5 1
    10    3    6 1
    11    4   41 1
    12    4   42 1
    13    4   43 1
    14    5   44 1
    15    5   45 1
    16    5   46 1
    17    6    7 2
    18    6    8 1
    19    8    9 2
    20    8   10 am
    21   10   15 1
    22   10   11 1
    23   11   12 1
    24   11   47 1
    25   11   48 1
    26   12   13 1
    27   12   49 1
    28   12   50 1
    29   13   14 1
    30   13   51 1
    31   13   52 1
    32   14   15 1
    33   14   53 1
    34   14   54 1
    35   15   16 1
    36   15   17 1
    37   17   18 2
    38   17   19 1
    39   19   20 1
    40   20   21 1
    41   20   22 1
    42   20   30 1
    43   22   23 1
    44   22   55 1
    45   22   56 1
    46   23   24 1
    47   23   57 1
    48   23   58 1
    49   24   29 ar
    50   24   25 ar
    51   25   26 ar
    52   25   59 1
    53   26   27 ar
    54   26   60 1
    55   27   28 ar
    56   27   61 1
    57   28   29 ar
    58   28   62 1
    59   29   63 1
    60   30   35 ar
    61   30   31 ar
    62   31   32 ar
    63   31   64 1
    64   32   33 ar
    65   32   65 1
    66   33   34 ar
    67   33   66 1
    68   34   35 ar
    69   34   67 1
    70   35   68 1
@<TRIPOS>MOLECULE
ZINC02001838
   54    55     0     0     0
SMALL
USER_CHARGES
3-(3-pyridyl)propyl 1-(3,3-dimethyl-2-oxo-pentanoyl)pyrrolidine-2-carboxylate
@<TRIPOS>ATOM
      1 C1          3.7719    1.5769   -5.4725 C.3       1 <0>        -0.1557
      2 C2          3.2049    1.3464   -4.0703 C.3       1 <0>        -0.1077
      3 C3          1.7232    1.7275   -4.0503 C.3       1 <0>        -0.0877
      4 C4          0.9608    0.8638   -5.0570 C.3       1 <0>        -0.1458
      5 C5          1.5710    3.2029   -4.4258 C.3       1 <0>        -0.1464
      6 C6          1.1648    1.5005   -2.6691 C.2       1 <0>         0.3685
      7 O1          1.8783    1.0775   -1.7912 O.2       1 <0>        -0.4126
      8 C7         -0.2685    1.7981   -2.3864 C.2       1 <0>         0.4995
      9 O2         -0.9855    2.2232   -3.2685 O.2       1 <0>        -0.4894
     10 N1         -0.7679    1.5951   -1.1511 N.am      1 <0>        -0.5866
     11 C8         -0.0127    1.0858    0.0080 C.3       1 <0>         0.0921
     12 C9         -0.7828    1.6077    1.2466 C.3       1 <0>        -0.1341
     13 C10        -2.2561    1.4963    0.7635 C.3       1 <0>        -0.1189
     14 C11        -2.1561    1.8453   -0.7364 C.3       1 <0>         0.1437
     15 H1         -2.4054    2.8952   -0.8901 H         1 <0>         0.1203
     16 C12        -3.0934    0.9715   -1.5295 C.2       1 <0>         0.4548
     17 O3         -2.6539    0.2124   -2.3605 O.2       1 <0>        -0.4877
     18 O4         -4.4165    1.0365   -1.3128 O.3       1 <0>        -0.3543
     19 C13        -5.2591    0.1661   -2.1131 C.3       1 <0>         0.0679
     20 C14        -6.7243    0.3793   -1.7277 C.3       1 <0>        -0.1135
     21 C15        -7.6122   -0.5379   -2.5711 C.3       1 <0>        -0.0737
     22 C16        -9.0554   -0.3278   -2.1914 C.ar      1 <0>        -0.1351
     23 C17        -9.8219    0.6250   -2.8453 C.ar      1 <0>        -0.0719
     24 C18       -11.1448    0.7836   -2.4626 C.ar      1 <0>        -0.1695
     25 C19       -11.6524   -0.0077   -1.4493 C.ar      1 <0>         0.0950
     26 N2        -10.8939   -0.9041   -0.8495 N.ar      1 <0>        -0.4832
     27 C20        -9.6332   -1.0862   -1.1912 C.ar      1 <0>         0.1027
     28 H2          3.2287    0.9615   -6.1897 H         1 <0>         0.0601
     29 H3          3.6634    2.6280   -5.7400 H         1 <0>         0.0601
     30 H4          4.8274    1.3054   -5.4868 H         1 <0>         0.0583
     31 H5          3.7480    1.9618   -3.3531 H         1 <0>         0.0689
     32 H6          3.3133    0.2953   -3.8028 H         1 <0>         0.0688
     33 H7         -0.0947    1.1353   -5.0427 H         1 <0>         0.0785
     34 H8          1.3648    1.0280   -6.0560 H         1 <0>         0.0750
     35 H9          1.0693   -0.1873   -4.7895 H         1 <0>         0.0561
     36 H10         2.1142    3.8183   -3.7086 H         1 <0>         0.0565
     37 H11         1.9750    3.3671   -5.4248 H         1 <0>         0.0758
     38 H12         0.5155    3.4744   -4.4115 H         1 <0>         0.0776
     39 H13         0.0021   -0.0041    0.0020 H         1 <0>         0.0764
     40 H14         1.0041    1.4783    0.0004 H         1 <0>         0.1036
     41 H15        -0.6048    0.9719    2.1139 H         1 <0>         0.0961
     42 H16        -0.5196    2.6432    1.4626 H         1 <0>         0.0854
     43 H17        -2.8882    2.2148    1.2853 H         1 <0>         0.1030
     44 H18        -2.6305    0.4817    0.8993 H         1 <0>         0.0848
     45 H19        -5.1235    0.3997   -3.1691 H         1 <0>         0.0727
     46 H20        -4.9834   -0.8729   -1.9326 H         1 <0>         0.0721
     47 H21        -6.8599    0.1457   -0.6717 H         1 <0>         0.0783
     48 H22        -7.0000    1.4183   -1.9082 H         1 <0>         0.0773
     49 H23        -7.4766   -0.3042   -3.6271 H         1 <0>         0.0801
     50 H24        -7.3365   -1.5769   -2.3905 H         1 <0>         0.0816
     51 H25        -9.3981    1.2295   -3.6336 H         1 <0>         0.1346
     52 H26       -11.7711    1.5159   -2.9504 H         1 <0>         0.1364
     53 H27       -12.6821    0.1094   -1.1455 H         1 <0>         0.1564
     54 H28        -9.0444   -1.8337   -0.6804 H         1 <0>         0.1547
@<TRIPOS>BOND
     1    1    2 1
     2    1   28 1
     3    1   29 1
     4    1   30 1
     5    2    3 1
     6    2   31 1
     7    2   32 1
     8    3    4 1
     9    3    5 1
    10    3    6 1
    11    4   33 1
    12    4   34 1
    13    4   35 1
    14    5   36 1
    15    5   37 1
    16    5   38 1
    17    6    7 2
    18    6    8 1
    19    8    9 2
    20    8   10 am
    21   10   14 1
    22   10   11 1
    23   11   12 1
    24   11   39 1
    25   11   40 1
    26   12   13 1
    27   12   41 1
    28   12   42 1
    29   13   14 1
    30   13   43 1
    31   13   44 1
    32   14   15 1
    33   14   16 1
    34   16   17 2
    35   16   18 1
    36   18   19 1
    37   19   20 1
    38   19   45 1
    39   19   46 1
    40   20   21 1
    41   20   47 1
    42   20   48 1
    43   21   22 1
    44   21   49 1
    45   21   50 1
    46   22   27 ar
    47   22   23 ar
    48   23   24 ar
    49   23   51 1
    50   24   25 ar
    51   24   52 1
    52   25   26 ar
    53   25   53 1
    54   26   27 ar
    55   27   54 1
@<TRIPOS>MOLECULE
ZINC03827029
   54    55     0     0     0
SMALL
USER_CHARGES
3-(3-pyridyl)propyl 1-(3,3-dimethyl-2-oxo-pentanoyl)pyrrolidine-2-carboxylate
@<TRIPOS>ATOM
      1 C1         -5.6516    7.4272    1.8027 C.3       1 <0>        -0.1557
      2 C2         -4.7003    6.5968    0.9388 C.3       1 <0>        -0.1077
      3 C3         -4.0856    5.4805    1.7856 C.3       1 <0>        -0.0877
      4 C4         -5.1978    4.5810    2.3287 C.3       1 <0>        -0.1463
      5 C5         -3.3101    6.0941    2.9530 C.3       1 <0>        -0.1458
      6 C6         -3.1486    4.6625    0.9347 C.2       1 <0>         0.3684
      7 O1         -2.9888    4.9435   -0.2291 O.2       1 <0>        -0.4127
      8 C7         -2.4187    3.5066    1.5294 C.2       1 <0>         0.4993
      9 O2         -2.5792    3.2242    2.6988 O.2       1 <0>        -0.4893
     10 N1         -1.5807    2.7750    0.7685 N.am      1 <0>        -0.5870
     11 C8         -1.2939    3.0056   -0.6591 C.3       1 <0>         0.0925
     12 C9         -0.8250    1.6304   -1.1965 C.3       1 <0>        -0.1342
     13 C10        -0.0127    1.0858    0.0080 C.3       1 <0>        -0.1191
     14 C11        -0.7976    1.6145    1.2270 C.3       1 <0>         0.1438
     15 H1         -1.4676    0.8402    1.6007 H         1 <0>         0.1207
     16 C12         0.1613    2.0337    2.3114 C.2       1 <0>         0.4549
     17 O3          0.1863    3.1826    2.6847 O.2       1 <0>        -0.4875
     18 O4          0.9874    1.1308    2.8626 O.3       1 <0>        -0.3542
     19 C13         1.8839    1.6053    3.9016 C.3       1 <0>         0.0679
     20 C14         2.7415    0.4427    4.4054 C.3       1 <0>        -0.1135
     21 C15         3.6861    0.9428    5.5002 C.3       1 <0>        -0.0737
     22 C16         4.5308   -0.2023    5.9964 C.ar      1 <0>        -0.1351
     23 C17         4.1008   -0.9831    7.0588 C.ar      1 <0>        -0.0719
     24 C18         4.9085   -2.0287    7.4785 C.ar      1 <0>        -0.1695
     25 C19         6.1116   -2.2506    6.8351 C.ar      1 <0>         0.0950
     26 N2          6.4909   -1.4845    5.8311 N.ar      1 <0>        -0.4831
     27 C20         5.7461   -0.4841    5.4023 C.ar      1 <0>         0.1027
     28 H2         -6.4440    6.7864    2.1896 H         1 <0>         0.0601
     29 H3         -5.0992    7.8643    2.6344 H         1 <0>         0.0601
     30 H4         -6.0895    8.2225    1.1994 H         1 <0>         0.0583
     31 H5         -3.9080    7.2376    0.5519 H         1 <0>         0.0688
     32 H6         -5.2528    6.1596    0.1071 H         1 <0>         0.0689
     33 H7         -4.7599    3.7858    2.9319 H         1 <0>         0.0776
     34 H8         -5.8755    5.1726    2.9441 H         1 <0>         0.0758
     35 H9         -5.7503    4.1439    1.4969 H         1 <0>         0.0565
     36 H10        -2.5178    6.7348    2.5661 H         1 <0>         0.0561
     37 H11        -3.9879    6.6857    3.5685 H         1 <0>         0.0750
     38 H12        -2.8722    5.2988    3.5563 H         1 <0>         0.0786
     39 H13        -0.5029    3.7469   -0.7723 H         1 <0>         0.0763
     40 H14        -2.1942    3.3299   -1.1810 H         1 <0>         0.1038
     41 H15        -0.1898    1.7499   -2.0742 H         1 <0>         0.0959
     42 H16        -1.6762    0.9862   -1.4170 H         1 <0>         0.0853
     43 H17         0.0021   -0.0041    0.0020 H         1 <0>         0.1028
     44 H18         1.0020    1.4839    0.0005 H         1 <0>         0.0847
     45 H19         2.5298    2.3842    3.4963 H         1 <0>         0.0721
     46 H20         1.3001    2.0109    4.7279 H         1 <0>         0.0727
     47 H21         2.0956   -0.3362    4.8107 H         1 <0>         0.0773
     48 H22         3.3253    0.0371    3.5791 H         1 <0>         0.0784
     49 H23         4.3320    1.7217    5.0948 H         1 <0>         0.0816
     50 H24         3.1023    1.3484    6.3264 H         1 <0>         0.0801
     51 H25         3.1574   -0.7837    7.5451 H         1 <0>         0.1346
     52 H26         4.6035   -2.6594    8.3004 H         1 <0>         0.1364
     53 H27         6.7485   -3.0606    7.1586 H         1 <0>         0.1564
     54 H28         6.0900    0.1218    4.5771 H         1 <0>         0.1546
@<TRIPOS>BOND
     1    1    2 1
     2    1   28 1
     3    1   29 1
     4    1   30 1
     5    2    3 1
     6    2   31 1
     7    2   32 1
     8    3    4 1
     9    3    5 1
    10    3    6 1
    11    4   33 1
    12    4   34 1
    13    4   35 1
    14    5   36 1
    15    5   37 1
    16    5   38 1
    17    6    7 2
    18    6    8 1
    19    8    9 2
    20    8   10 am
    21   10   14 1
    22   10   11 1
    23   11   12 1
    24   11   39 1
    25   11   40 1
    26   12   13 1
    27   12   41 1
    28   12   42 1
    29   13   14 1
    30   13   43 1
    31   13   44 1
    32   14   15 1
    33   14   16 1
    34   16   17 2
    35   16   18 1
    36   18   19 1
    37   19   20 1
    38   19   45 1
    39   19   46 1
    40   20   21 1
    41   20   47 1
    42   20   48 1
    43   21   22 1
    44   21   49 1
    45   21   50 1
    46   22   27 ar
    47   22   23 ar
    48   23   24 ar
    49   23   51 1
    50   24   25 ar
    51   24   52 1
    52   25   26 ar
    53   25   53 1
    54   26   27 ar
    55   27   54 1
@<TRIPOS>MOLECULE
ZINC21985181
   41    42     0     0     0
SMALL
USER_CHARGES
benzyl (2R)-1-(2-methoxy-2-oxo-acetyl)piperidine-2-carboxylate
@<TRIPOS>ATOM
      1 C1          4.1907   -3.2023   -1.7466 C.3       1 <0>         0.0268
      2 O1          3.0387   -2.3491   -1.5162 O.3       1 <0>        -0.3231
      3 C2          3.2776   -1.1196   -1.0250 C.2       1 <0>         0.4713
      4 O2          4.4154   -0.7691   -0.7954 O.2       1 <0>        -0.4699
      5 C3          2.1408   -0.1859   -0.7625 C.2       1 <0>         0.5278
      6 O3          0.9971   -0.5760   -0.8742 O.2       1 <0>        -0.4668
      7 N1          2.3857    1.0893   -0.4017 N.am      1 <0>        -0.5725
      8 C4          3.7565    1.6191   -0.4055 C.3       1 <0>         0.0461
      9 C5          4.0589    2.2223    0.9698 C.3       1 <0>        -0.1341
     10 C6          2.9860    3.2574    1.3155 C.3       1 <0>        -0.1215
     11 C7          1.6176    2.5749    1.3777 C.3       1 <0>        -0.1245
     12 C8          1.2875    1.9757    0.0070 C.3       1 <0>         0.1560
     13 H1          1.1798    2.7592   -0.7576 H         1 <0>         0.1149
     14 C9          0.0072    1.1859    0.0960 C.2       1 <0>         0.4737
     15 O4         -0.0716    0.2461    0.8513 O.2       1 <0>        -0.4884
     16 O5         -1.0439    1.5229   -0.6679 O.3       1 <0>        -0.3489
     17 C10        -2.2423    0.7141   -0.5342 C.3       1 <0>         0.1128
     18 C11        -3.3080    1.2380   -1.4620 C.ar      1 <0>        -0.0981
     19 C12        -4.1952    2.2021   -1.0213 C.ar      1 <0>        -0.0960
     20 C13        -5.1697    2.6862   -1.8739 C.ar      1 <0>        -0.1235
     21 C14        -5.2633    2.1988   -3.1641 C.ar      1 <0>        -0.1092
     22 C15        -4.3797    1.2306   -3.6031 C.ar      1 <0>        -0.1230
     23 C16        -3.4019    0.7503   -2.7521 C.ar      1 <0>        -0.0935
     24 H2          3.8556   -4.1709   -2.1459 H         1 <0>         0.1138
     25 H3          4.7245   -3.3616   -0.7981 H         1 <0>         0.0725
     26 H4          4.8647   -2.7207   -2.4703 H         1 <0>         0.0725
     27 H5          4.4640    0.8040   -0.6178 H         1 <0>         0.1581
     28 H6          3.8477    2.3948   -1.1800 H         1 <0>         0.0765
     29 H7          4.0591    1.4251    1.7278 H         1 <0>         0.0707
     30 H8          5.0456    2.7080    0.9483 H         1 <0>         0.0852
     31 H9          3.2141    3.7099    2.2918 H         1 <0>         0.0783
     32 H10         2.9697    4.0406    0.5433 H         1 <0>         0.0721
     33 H11         1.6406    1.7755    2.1330 H         1 <0>         0.0848
     34 H12         0.8508    3.3150    1.6503 H         1 <0>         0.0898
     35 H13        -2.0111   -0.3296   -0.7935 H         1 <0>         0.0851
     36 H14        -2.6035    0.7626    0.5037 H         1 <0>         0.0788
     37 H15        -4.1246    2.5799   -0.0120 H         1 <0>         0.1240
     38 H16        -5.8602    3.4424   -1.5308 H         1 <0>         0.1258
     39 H17        -6.0270    2.5743   -3.8291 H         1 <0>         0.1247
     40 H18        -4.4531    0.8496   -4.6110 H         1 <0>         0.1258
     41 H19        -2.7116   -0.0061   -3.0950 H         1 <0>         0.1250
@<TRIPOS>BOND
     1    1    2 1
     2    1   24 1
     3    1   25 1
     4    1   26 1
     5    2    3 1
     6    3    4 2
     7    3    5 1
     8    5    6 2
     9    5    7 am
    10    7   12 1
    11    7    8 1
    12    8    9 1
    13    8   27 1
    14    8   28 1
    15    9   10 1
    16    9   29 1
    17    9   30 1
    18   10   11 1
    19   10   31 1
    20   10   32 1
    21   11   12 1
    22   11   33 1
    23   11   34 1
    24   12   13 1
    25   12   14 1
    26   14   15 2
    27   14   16 1
    28   16   17 1
    29   17   18 1
    30   17   35 1
    31   17   36 1
    32   18   23 ar
    33   18   19 ar
    34   19   20 ar
    35   19   37 1
    36   20   21 ar
    37   20   38 1
    38   21   22 ar
    39   21   39 1
    40   22   23 ar
    41   22   40 1
    42   23   41 1
@<TRIPOS>MOLECULE
ZINC21985183
   41    42     0     0     0
SMALL
USER_CHARGES
benzyl (2S)-1-(2-methoxy-2-oxo-acetyl)piperidine-2-carboxylate
@<TRIPOS>ATOM
      1 C1         11.5786   -1.7950   -0.8617 C.3       1 <0>         0.0272
      2 O1         10.1322   -1.7243   -0.7564 O.3       1 <0>        -0.3243
      3 C2          9.4297   -1.8544   -1.8963 C.2       1 <0>         0.4658
      4 O2         10.0077   -2.0222   -2.9489 O.2       1 <0>        -0.4737
      5 C3          7.9369   -1.7922   -1.8653 C.2       1 <0>         0.5229
      6 O3          7.3629   -1.5060   -0.8353 O.2       1 <0>        -0.4622
      7 N1          7.2282   -2.0540   -2.9814 N.am      1 <0>        -0.5742
      8 C4          7.8951   -2.5527   -4.1919 C.3       1 <0>         0.0633
      9 C5          7.1975   -3.8392   -4.6447 C.3       1 <0>        -0.1390
     10 C6          5.7010   -3.5696   -4.8174 C.3       1 <0>        -0.1209
     11 C7          5.1002   -3.1405   -3.4768 C.3       1 <0>        -0.1243
     12 C8          5.7740   -1.8461   -3.0108 C.3       1 <0>         0.1577
     13 H1          5.5614   -1.0128   -3.6966 H         1 <0>         0.1151
     14 C9          5.2864   -1.4916   -1.6296 C.2       1 <0>         0.4643
     15 O4          5.4760   -2.2505   -0.7087 O.2       1 <0>        -0.4684
     16 O5          4.6414   -0.3328   -1.4225 O.3       1 <0>        -0.3520
     17 C10         4.2002   -0.0572   -0.0669 C.3       1 <0>         0.1123
     18 C11         3.5013    1.2774   -0.0277 C.ar      1 <0>        -0.0982
     19 C12         2.1372    1.3497   -0.2396 C.ar      1 <0>        -0.0956
     20 C13         1.4960    2.5739   -0.2032 C.ar      1 <0>        -0.1233
     21 C14         2.2190    3.7257    0.0447 C.ar      1 <0>        -0.1090
     22 C15         3.5831    3.6533    0.2567 C.ar      1 <0>        -0.1230
     23 C16         4.2243    2.4293    0.2198 C.ar      1 <0>        -0.0942
     24 H2         12.0252   -1.6746    0.1363 H         1 <0>         0.1132
     25 H3         11.9377   -0.9929   -1.5233 H         1 <0>         0.0718
     26 H4         11.8686   -2.7711   -1.2778 H         1 <0>         0.0717
     27 H5          7.8298   -1.7939   -4.9855 H         1 <0>         0.0804
     28 H6          8.9521   -2.7602   -3.9691 H         1 <0>         0.1451
     29 H7          7.6248   -4.1703   -5.6027 H         1 <0>         0.0862
     30 H8          7.3453   -4.6227   -3.8869 H         1 <0>         0.0702
     31 H9          5.5558   -2.7683   -5.5569 H         1 <0>         0.0727
     32 H10         5.2013   -4.4854   -5.1662 H         1 <0>         0.0784
     33 H11         4.0200   -2.9707   -3.5967 H         1 <0>         0.0897
     34 H12         5.2664   -3.9314   -2.7305 H         1 <0>         0.0851
     35 H13         3.5052   -0.8448    0.2598 H         1 <0>         0.0795
     36 H14         5.0710   -0.0350    0.6048 H         1 <0>         0.0845
     37 H15         1.5723    0.4498   -0.4332 H         1 <0>         0.1243
     38 H16         0.4303    2.6304   -0.3687 H         1 <0>         0.1259
     39 H17         1.7189    4.6826    0.0684 H         1 <0>         0.1248
     40 H18         4.1480    4.5533    0.4501 H         1 <0>         0.1258
     41 H19         5.2901    2.3728    0.3850 H         1 <0>         0.1244
@<TRIPOS>BOND
     1    1    2 1
     2    1   24 1
     3    1   25 1
     4    1   26 1
     5    2    3 1
     6    3    4 2
     7    3    5 1
     8    5    6 2
     9    5    7 am
    10    7   12 1
    11    7    8 1
    12    8    9 1
    13    8   27 1
    14    8   28 1
    15    9   10 1
    16    9   29 1
    17    9   30 1
    18   10   11 1
    19   10   31 1
    20   10   32 1
    21   11   12 1
    22   11   33 1
    23   11   34 1
    24   12   13 1
    25   12   14 1
    26   14   15 2
    27   14   16 1
    28   16   17 1
    29   17   18 1
    30   17   35 1
    31   17   36 1
    32   18   23 ar
    33   18   19 ar
    34   19   20 ar
    35   19   37 1
    36   20   21 ar
    37   20   38 1
    38   21   22 ar
    39   21   39 1
    40   22   23 ar
    41   22   40 1
    42   23   41 1
@<TRIPOS>MOLECULE
ZINC66112293
   42    43     0     0     0
SMALL
USER_CHARGES

@<TRIPOS>ATOM
      1 C1          0.6797    0.8576    0.9801 C.3       1 <0>        -0.1535
      2 C2          0.0486   -0.3595    0.3009 C.3       1 <0>         0.0622
      3 O1          0.8877   -0.7954   -0.7705 O.3       1 <0>        -0.3323
      4 C3          0.4739   -1.8614   -1.4736 C.2       1 <0>         0.4753
      5 O2         -0.5662   -2.4063   -1.1887 O.2       1 <0>        -0.5167
      6 C4          1.3067   -2.3785   -2.6182 C.3       1 <0>         0.1638
      7 H1          2.2578   -1.8469   -2.6475 H         1 <0>         0.1146
      8 C5          0.5572   -2.1634   -3.9368 C.3       1 <0>        -0.1264
      9 C6          1.3430   -2.8140   -5.0776 C.3       1 <0>        -0.1157
     10 C7          1.4573   -4.3194   -4.8270 C.3       1 <0>        -0.1406
     11 C8          2.2170   -4.5589   -3.5185 C.3       1 <0>         0.1186
     12 N1          1.5514   -3.8162   -2.4391 N.pl3     1 <0>        -0.9920
     13 S1          1.0821   -4.5853   -1.0496 S.o2      1 <0>         2.6025
     14 O3          1.9133   -5.7353   -0.9733 O.2       1 <0>        -0.9482
     15 O4          1.1380   -3.5830   -0.0438 O.2       1 <0>        -0.9452
     16 C9         -0.6385   -5.0766   -1.3472 C.3       1 <0>        -0.5780
     17 C10        -1.1733   -5.7932   -0.1341 C.ar      1 <0>        -0.0918
     18 C11        -1.0376   -7.1646   -0.0257 C.ar      1 <0>        -0.1081
     19 C12        -1.5281   -7.8218    1.0871 C.ar      1 <0>        -0.1190
     20 C13        -2.1539   -7.1076    2.0917 C.ar      1 <0>        -0.1103
     21 C14        -2.2888   -5.7361    1.9838 C.ar      1 <0>        -0.1198
     22 C15        -1.7944   -5.0783    0.8730 C.ar      1 <0>        -0.0983
     23 H2          1.6597    0.5868    1.3732 H         1 <0>         0.0684
     24 H3          0.7894    1.6629    0.2538 H         1 <0>         0.0657
     25 H4          0.0397    1.1901    1.7974 H         1 <0>         0.0808
     26 H5         -0.0611   -1.1648    1.0273 H         1 <0>         0.0784
     27 H6         -0.9314   -0.0887   -0.0921 H         1 <0>         0.0674
     28 H7         -0.4318   -2.6170   -3.8713 H         1 <0>         0.0812
     29 H8          0.4561   -1.0950   -4.1277 H         1 <0>         0.0864
     30 H9          0.8244   -2.6412   -6.0206 H         1 <0>         0.0766
     31 H10         2.3405   -2.3773   -5.1267 H         1 <0>         0.0722
     32 H11         0.4599   -4.7527   -4.7531 H         1 <0>         0.0703
     33 H12         1.9968   -4.7855   -5.6515 H         1 <0>         0.0843
     34 H13         2.2153   -5.6236   -3.2846 H         1 <0>         0.0991
     35 H14         3.2435   -4.2071   -3.6222 H         1 <0>         0.0819
     36 H15        -1.2415   -4.1894   -1.5403 H         1 <0>         0.1675
     37 H16        -0.6826   -5.7408   -2.2103 H         1 <0>         0.1327
     38 H17        -0.5487   -7.7225   -0.8105 H         1 <0>         0.1283
     39 H18        -1.4228   -8.8934    1.1715 H         1 <0>         0.1292
     40 H19        -2.5378   -7.6212    2.9608 H         1 <0>         0.1275
     41 H20        -2.7780   -5.1782    2.7685 H         1 <0>         0.1285
     42 H21        -1.8965   -4.0063    0.7903 H         1 <0>         0.1328
@<TRIPOS>BOND
     1    1    2 1
     2    1   23 1
     3    1   24 1
     4    1   25 1
     5    2    3 1
     6    2   26 1
     7    2   27 1
     8    3    4 1
     9    4    5 2
    10    4    6 1
    11    6    7 1
    12    6   12 1
    13    6    8 1
    14    8    9 1
    15    8   28 1
    16    8   29 1
    17    9   10 1
    18    9   30 1
    19    9   31 1
    20   10   11 1
    21   10   32 1
    22   10   33 1
    23   11   12 1
    24   11   34 1
    25   11   35 1
    26   12   13 1
    27   13   14 2
    28   13   15 2
    29   13   16 1
    30   16   17 1
    31   16   36 1
    32   16   37 1
    33   17   22 ar
    34   17   18 ar
    35   18   19 ar
    36   18   38 1
    37   19   20 ar
    38   19   39 1
    39   20   21 ar
    40   20   40 1
    41   21   22 ar
    42   21   41 1
    43   22   42 1
@<TRIPOS>MOLECULE
ZINC66112294
   42    43     0     0     0
SMALL
USER_CHARGES

@<TRIPOS>ATOM
      1 C1         -2.2197    0.3379   -0.7815 C.3       1 <0>        -0.1535
      2 C2         -1.0194   -0.5231   -0.3827 C.3       1 <0>         0.0622
      3 O1         -0.3776   -1.0197   -1.5590 O.3       1 <0>        -0.3323
      4 C3          0.7012   -1.7984   -1.3819 C.2       1 <0>         0.4753
      5 O2          1.0879   -2.0501   -0.2652 O.2       1 <0>        -0.5168
      6 C4          1.4303   -2.3587   -2.5759 C.3       1 <0>         0.1638
      7 H1          0.8731   -2.1303   -3.4844 H         1 <0>         0.1145
      8 C5          2.8285   -1.7387   -2.6613 C.3       1 <0>        -0.1264
      9 C6          3.6125   -2.4119   -3.7901 C.3       1 <0>        -0.1157
     10 C7          3.7637   -3.9047   -3.4887 C.3       1 <0>        -0.1407
     11 C8          2.3761   -4.5493   -3.4126 C.3       1 <0>         0.1187
     12 N1          1.5635   -3.8149   -2.4328 N.pl3     1 <0>        -0.9919
     13 S1          0.8160   -4.6124   -1.1887 S.o2      1 <0>         2.6027
     14 O3         -0.3347   -3.8315   -0.8969 O.2       1 <0>        -0.9452
     15 O4          0.6859   -5.9524   -1.6432 O.2       1 <0>        -0.9482
     16 C9          1.9920   -4.5317    0.1901 C.3       1 <0>        -0.5779
     17 C10         1.4092   -5.2341    1.3892 C.ar      1 <0>        -0.0918
     18 C11         0.6423   -4.5292    2.2980 C.ar      1 <0>        -0.0984
     19 C12         0.1077   -5.1735    3.3980 C.ar      1 <0>        -0.1198
     20 C13         0.3395   -6.5229    3.5889 C.ar      1 <0>        -0.1103
     21 C14         1.1056   -7.2280    2.6796 C.ar      1 <0>        -0.1190
     22 C15         1.6367   -6.5846    1.5774 C.ar      1 <0>        -0.1080
     23 H2         -1.8796    1.1752   -1.3909 H         1 <0>         0.0657
     24 H3         -2.9252   -0.2648   -1.3534 H         1 <0>         0.0684
     25 H4         -2.7092    0.7167    0.1157 H         1 <0>         0.0808
     26 H5         -0.3139    0.0796    0.1892 H         1 <0>         0.0674
     27 H6         -1.3594   -1.3605    0.2267 H         1 <0>         0.0784
     28 H7          2.7413   -0.6715   -2.8651 H         1 <0>         0.0864
     29 H8          3.3509   -1.8877   -1.7164 H         1 <0>         0.0812
     30 H9          3.0770   -2.2838   -4.7308 H         1 <0>         0.0722
     31 H10         4.5993   -1.9556   -3.8692 H         1 <0>         0.0766
     32 H11         4.3423   -4.3791   -4.2814 H         1 <0>         0.0843
     33 H12         4.2774   -4.0333   -2.5360 H         1 <0>         0.0703
     34 H13         1.8970   -4.5016   -4.3905 H         1 <0>         0.0819
     35 H14         2.4729   -5.5893   -3.1012 H         1 <0>         0.0990
     36 H15         2.9240   -5.0178   -0.0983 H         1 <0>         0.1327
     37 H16         2.1883   -3.4889    0.4397 H         1 <0>         0.1673
     38 H17         0.4612   -3.4750    2.1489 H         1 <0>         0.1328
     39 H18        -0.4909   -4.6226    4.1084 H         1 <0>         0.1285
     40 H19        -0.0776   -7.0261    4.4486 H         1 <0>         0.1275
     41 H20         1.2870   -8.2821    2.8289 H         1 <0>         0.1292
     42 H21         2.2321   -7.1362    0.8650 H         1 <0>         0.1283
@<TRIPOS>BOND
     1    1    2 1
     2    1   23 1
     3    1   24 1
     4    1   25 1
     5    2    3 1
     6    2   26 1
     7    2   27 1
     8    3    4 1
     9    4    5 2
    10    4    6 1
    11    6    7 1
    12    6   12 1
    13    6    8 1
    14    8    9 1
    15    8   28 1
    16    8   29 1
    17    9   10 1
    18    9   30 1
    19    9   31 1
    20   10   11 1
    21   10   32 1
    22   10   33 1
    23   11   12 1
    24   11   34 1
    25   11   35 1
    26   12   13 1
    27   13   14 2
    28   13   15 2
    29   13   16 1
    30   16   17 1
    31   16   36 1
    32   16   37 1
    33   17   22 ar
    34   17   18 ar
    35   18   19 ar
    36   18   38 1
    37   19   20 ar
    38   19   39 1
    39   20   21 ar
    40   20   40 1
    41   21   22 ar
    42   21   41 1
    43   22   42 1
@<TRIPOS>MOLECULE
ZINC34421479
   39    40     0     0     0
SMALL
USER_CHARGES

@<TRIPOS>ATOM
      1 C1         -0.4473    0.5859   -1.8285 C.3       1 <0>        -0.1531
      2 C2         -0.6463   -0.3185   -0.6106 C.3       1 <0>         0.0674
      3 O1         -1.8133   -1.1214   -0.7992 O.3       1 <0>        -0.3328
      4 C3         -2.1307   -1.9760    0.1860 C.2       1 <0>         0.4654
      5 O2         -1.4406   -2.0403    1.1757 O.2       1 <0>        -0.5053
      6 C4         -3.3478   -2.8553    0.0577 C.3       1 <0>         0.1651
      7 H1         -3.9533   -2.5205   -0.7845 H         1 <0>         0.1128
      8 C5         -4.1736   -2.7804    1.3458 C.3       1 <0>        -0.1245
      9 C6         -5.3305   -3.7790    1.2642 C.3       1 <0>        -0.1153
     10 C7         -4.7733   -5.1980    1.1295 C.3       1 <0>        -0.1396
     11 C8         -3.9543   -5.3003   -0.1611 C.3       1 <0>         0.1214
     12 N1         -2.9294   -4.2470   -0.1589 N.pl3     1 <0>        -0.9871
     13 S1         -1.3332   -4.6216   -0.3916 S.o2      1 <0>         2.6840
     14 O3         -1.3035   -5.7761   -1.2196 O.2       1 <0>        -0.9469
     15 O4         -0.6798   -3.4113   -0.7482 O.2       1 <0>        -0.9426
     16 C9         -0.6786   -5.1058    1.1711 C.ar      1 <0>        -0.6764
     17 C10         0.0390   -4.2005    1.9303 C.ar      1 <0>         0.0020
     18 C11         0.5526   -4.5803    3.1562 C.ar      1 <0>        -0.1435
     19 C12         0.3482   -5.8652    3.6231 C.ar      1 <0>        -0.0607
     20 C13        -0.3702   -6.7702    2.8643 C.ar      1 <0>        -0.1449
     21 C14        -0.8874   -6.3892    1.6403 C.ar      1 <0>        -0.0228
     22 H2          0.4429    1.1983   -1.6847 H         1 <0>         0.0784
     23 H3         -0.3256   -0.0280   -2.7209 H         1 <0>         0.0677
     24 H4         -1.3172    1.2317   -1.9476 H         1 <0>         0.0638
     25 H5          0.2236   -0.9643   -0.4915 H         1 <0>         0.0776
     26 H6         -0.7680    0.2955    0.2818 H         1 <0>         0.0628
     27 H7         -3.5406   -3.0259    2.1986 H         1 <0>         0.0840
     28 H8         -4.5708   -1.7724    1.4652 H         1 <0>         0.0834
     29 H9         -5.9341   -3.7103    2.1692 H         1 <0>         0.0751
     30 H10        -5.9491   -3.5480    0.3970 H         1 <0>         0.0711
     31 H11        -4.1346   -5.4207    1.9843 H         1 <0>         0.0708
     32 H12        -5.5973   -5.9106    1.0949 H         1 <0>         0.0832
     33 H13        -3.4741   -6.2775   -0.2126 H         1 <0>         0.0936
     34 H14        -4.6100   -5.1673   -1.0215 H         1 <0>         0.0844
     35 H15         0.1987   -3.1966    1.5655 H         1 <0>         0.1529
     36 H16         1.1138   -3.8732    3.7490 H         1 <0>         0.1319
     37 H17         0.7500   -6.1622    4.5806 H         1 <0>         0.1306
     38 H18        -0.5296   -7.7743    3.2289 H         1 <0>         0.1326
     39 H19        -1.4518   -7.0951    1.0491 H         1 <0>         0.1335
@<TRIPOS>BOND
     1    1    2 1
     2    1   22 1
     3    1   23 1
     4    1   24 1
     5    2    3 1
     6    2   25 1
     7    2   26 1
     8    3    4 1
     9    4    5 2
    10    4    6 1
    11    6    7 1
    12    6   12 1
    13    6    8 1
    14    8    9 1
    15    8   27 1
    16    8   28 1
    17    9   10 1
    18    9   29 1
    19    9   30 1
    20   10   11 1
    21   10   31 1
    22   10   32 1
    23   11   12 1
    24   11   33 1
    25   11   34 1
    26   12   13 1
    27   13   14 2
    28   13   15 2
    29   13   16 1
    30   16   21 ar
    31   16   17 ar
    32   17   18 ar
    33   17   35 1
    34   18   19 ar
    35   18   36 1
    36   19   20 ar
    37   19   37 1
    38   20   21 ar
    39   20   38 1
    40   21   39 1
@<TRIPOS>MOLECULE
ZINC34421481
   39    40     0     0     0
SMALL
USER_CHARGES

@<TRIPOS>ATOM
      1 C1          0.3532   -0.7360    3.4770 C.3       1 <0>        -0.1533
      2 C2          0.1241   -1.0462    1.9964 C.3       1 <0>         0.0665
      3 O1         -1.1877   -1.5849    1.8200 O.3       1 <0>        -0.3357
      4 C3         -1.5489   -1.9125    0.5695 C.2       1 <0>         0.4697
      5 O2         -0.7769   -1.7473   -0.3452 O.2       1 <0>        -0.5065
      6 C4         -2.9173   -2.4862    0.3062 C.3       1 <0>         0.1643
      7 H1         -3.5167   -2.4335    1.2151 H         1 <0>         0.1130
      8 C5         -3.6028   -1.6890   -0.8080 C.3       1 <0>        -0.1246
      9 C6         -4.9311   -2.3595   -1.1664 C.3       1 <0>        -0.1152
     10 C7         -4.6669   -3.7770   -1.6790 C.3       1 <0>        -0.1395
     11 C8         -3.9935   -4.5979   -0.5747 C.3       1 <0>         0.1226
     12 N1         -2.7906   -3.8867   -0.1196 N.pl3     1 <0>        -0.9874
     13 S1         -1.3200   -4.6474   -0.0915 S.o2      1 <0>         2.6849
     14 O3         -0.4627   -3.8446    0.7085 O.2       1 <0>        -0.9429
     15 O4         -1.5753   -6.0144    0.2007 O.2       1 <0>        -0.9483
     16 C9         -0.6748   -4.5947   -1.7303 C.ar      1 <0>        -0.6768
     17 C10        -0.9611   -5.6142   -2.6189 C.ar      1 <0>        -0.0242
     18 C11        -0.4549   -5.5729   -3.9046 C.ar      1 <0>        -0.1458
     19 C12         0.3372   -4.5119   -4.3018 C.ar      1 <0>        -0.0610
     20 C13         0.6228   -3.4920   -3.4134 C.ar      1 <0>        -0.1453
     21 C14         0.1131   -3.5312   -2.1291 C.ar      1 <0>        -0.0071
     22 H2          1.3538   -0.3251    3.6115 H         1 <0>         0.0788
     23 H3         -0.3862   -0.0098    3.8147 H         1 <0>         0.0640
     24 H4          0.2552   -1.6520    4.0596 H         1 <0>         0.0673
     25 H5          0.2220   -0.1302    1.4138 H         1 <0>         0.0636
     26 H6          0.8635   -1.7724    1.6587 H         1 <0>         0.0788
     27 H7         -3.7898   -0.6714   -0.4650 H         1 <0>         0.0841
     28 H8         -2.9588   -1.6647   -1.6870 H         1 <0>         0.0835
     29 H9         -5.5650   -2.4058   -0.2809 H         1 <0>         0.0713
     30 H10        -5.4325   -1.7804   -1.9418 H         1 <0>         0.0752
     31 H11        -5.6113   -4.2456   -1.9561 H         1 <0>         0.0830
     32 H12        -4.0128   -3.7330   -2.5499 H         1 <0>         0.0708
     33 H13        -4.6819   -4.7195    0.2616 H         1 <0>         0.0843
     34 H14        -3.7138   -5.5762   -0.9656 H         1 <0>         0.0926
     35 H15        -1.5799   -6.4431   -2.3086 H         1 <0>         0.1360
     36 H16        -0.6780   -6.3697   -4.5986 H         1 <0>         0.1324
     37 H17         0.7333   -4.4800   -5.3060 H         1 <0>         0.1302
     38 H18         1.2419   -2.6632   -3.7236 H         1 <0>         0.1315
     39 H19         0.3331   -2.7325   -1.4362 H         1 <0>         0.1648
@<TRIPOS>BOND
     1    1    2 1
     2    1   22 1
     3    1   23 1
     4    1   24 1
     5    2    3 1
     6    2   25 1
     7    2   26 1
     8    3    4 1
     9    4    5 2
    10    4    6 1
    11    6    7 1
    12    6   12 1
    13    6    8 1
    14    8    9 1
    15    8   27 1
    16    8   28 1
    17    9   10 1
    18    9   29 1
    19    9   30 1
    20   10   11 1
    21   10   31 1
    22   10   32 1
    23   11   12 1
    24   11   33 1
    25   11   34 1
    26   12   13 1
    27   13   14 2
    28   13   15 2
    29   13   16 1
    30   16   21 ar
    31   16   17 ar
    32   17   18 ar
    33   17   35 1
    34   18   19 ar
    35   18   36 1
    36   19   20 ar
    37   19   37 1
    38   20   21 ar
    39   20   38 1
    40   21   39 1
@<TRIPOS>MOLECULE
ZINC10027145
   50    52     0     0     0
SMALL
USER_CHARGES

@<TRIPOS>ATOM
      1 C1          1.4639    2.1850   -0.2143 C.ar      1 <0>        -0.1219
      2 C2          2.0904    2.5077    0.9750 C.ar      1 <0>        -0.1183
      3 C3          3.3313    1.9744    1.2693 C.ar      1 <0>        -0.1128
      4 C4          3.9456    1.1182    0.3746 C.ar      1 <0>        -0.0820
      5 C5          3.3187    0.7949   -0.8142 C.ar      1 <0>        -0.1148
      6 C6          2.0784    1.3292   -1.1092 C.ar      1 <0>        -0.1191
      7 C7          5.2988    0.5377    0.6950 C.3       1 <0>        -0.0931
      8 C8          5.1222   -0.7843    1.4448 C.3       1 <0>         0.1323
      9 N1          6.4377   -1.3486    1.7563 N.am      1 <0>        -0.7040
     10 C9          6.5293   -2.5189    2.4185 C.2       1 <0>         0.5165
     11 O1          5.5226   -3.1048    2.7566 O.2       1 <0>        -0.5347
     12 C10         7.8826   -3.0994    2.7390 C.3       1 <0>         0.1391
     13 H1          8.6520   -2.5586    2.1880 H         1 <0>         0.0959
     14 C11         7.9130   -4.5794    2.3446 C.3       1 <0>        -0.1213
     15 C12         9.2376   -5.1971    2.7985 C.3       1 <0>        -0.1160
     16 C13         9.3520   -5.1006    4.3215 C.3       1 <0>        -0.1387
     17 C14         9.3379   -3.6266    4.7384 C.3       1 <0>         0.1210
     18 N2          8.1382   -2.9861    4.1814 N.pl3     1 <0>        -0.9858
     19 S1          7.0920   -2.1566    5.1610 S.o2      1 <0>         2.6846
     20 O2          7.8646   -1.6420    6.2369 O.2       1 <0>        -0.9548
     21 O3          6.3166   -1.3214    4.3122 O.2       1 <0>        -0.9373
     22 C15         5.9831   -3.3362    5.8564 C.ar      1 <0>        -0.6753
     23 C16         4.7229   -3.5039    5.3136 C.ar      1 <0>         0.0073
     24 C17         3.8529   -4.4293    5.8591 C.ar      1 <0>        -0.1455
     25 C18         4.2433   -5.1874    6.9471 C.ar      1 <0>        -0.0621
     26 C19         5.5039   -5.0203    7.4894 C.ar      1 <0>        -0.1471
     27 C20         6.3754   -4.0979    6.9412 C.ar      1 <0>        -0.0249
     28 H2          0.4924    2.5981   -0.4422 H         1 <0>         0.1213
     29 H3          1.6105    3.1766    1.6740 H         1 <0>         0.1224
     30 H4          3.8211    2.2270    2.1981 H         1 <0>         0.1232
     31 H5          3.7987    0.1262   -1.5134 H         1 <0>         0.1215
     32 H6          1.5887    1.0769   -2.0382 H         1 <0>         0.1220
     33 H7          5.8464    0.3600   -0.2306 H         1 <0>         0.0774
     34 H8          5.8560    1.2372    1.3182 H         1 <0>         0.0807
     35 H9          4.5746   -0.6066    2.3704 H         1 <0>         0.0792
     36 H10         4.5650   -1.4838    0.8216 H         1 <0>         0.0661
     37 H11         7.2428   -0.8800    1.4859 H         1 <0>         0.3977
     38 H12         7.0849   -5.1009    2.8247 H         1 <0>         0.0828
     39 H13         7.8216   -4.6694    1.2621 H         1 <0>         0.0786
     40 H14         9.2721   -6.2441    2.4973 H         1 <0>         0.0717
     41 H15        10.0659   -4.6593    2.3373 H         1 <0>         0.0676
     42 H16         8.5104   -5.6173    4.7830 H         1 <0>         0.0700
     43 H17        10.2848   -5.5616    4.6462 H         1 <0>         0.0803
     44 H18         9.3193   -3.5545    5.8258 H         1 <0>         0.0910
     45 H19        10.2276   -3.1292    4.3523 H         1 <0>         0.0809
     46 H20         4.4179   -2.9116    4.4635 H         1 <0>         0.1562
     47 H21         2.8681   -4.5598    5.4355 H         1 <0>         0.1306
     48 H22         3.5634   -5.9099    7.3738 H         1 <0>         0.1291
     49 H23         5.8088   -5.6123    8.3396 H         1 <0>         0.1309
     50 H24         7.3616   -3.9700    7.3625 H         1 <0>         0.1312
@<TRIPOS>BOND
     1    1    6 ar
     2    1    2 ar
     3    1   28 1
     4    2    3 ar
     5    2   29 1
     6    3    4 ar
     7    3   30 1
     8    4    5 ar
     9    4    7 1
    10    5    6 ar
    11    5   31 1
    12    6   32 1
    13    7    8 1
    14    7   33 1
    15    7   34 1
    16    8    9 1
    17    8   35 1
    18    8   36 1
    19    9   10 am
    20    9   37 1
    21   10   11 2
    22   10   12 1
    23   12   13 1
    24   12   18 1
    25   12   14 1
    26   14   15 1
    27   14   38 1
    28   14   39 1
    29   15   16 1
    30   15   40 1
    31   15   41 1
    32   16   17 1
    33   16   42 1
    34   16   43 1
    35   17   18 1
    36   17   44 1
    37   17   45 1
    38   18   19 1
    39   19   20 2
    40   19   21 2
    41   19   22 1
    42   22   27 ar
    43   22   23 ar
    44   23   24 ar
    45   23   46 1
    46   24   25 ar
    47   24   47 1
    48   25   26 ar
    49   25   48 1
    50   26   27 ar
    51   26   49 1
    52   27   50 1
@<TRIPOS>MOLECULE
ZINC10027147
   50    52     0     0     0
SMALL
USER_CHARGES

@<TRIPOS>ATOM
      1 C1         -1.5407   -2.7719    2.3256 C.ar      1 <0>        -0.1218
      2 C2         -0.8488   -2.8143    1.1296 C.ar      1 <0>        -0.1191
      3 C3          0.4605   -3.2568    1.1038 C.ar      1 <0>        -0.1147
      4 C4          1.0781   -3.6567    2.2741 C.ar      1 <0>        -0.0822
      5 C5          0.3865   -3.6135    3.4703 C.ar      1 <0>        -0.1127
      6 C6         -0.9233   -3.1722    3.4958 C.ar      1 <0>        -0.1182
      7 C7          2.5052   -4.1401    2.2459 C.3       1 <0>        -0.0933
      8 C8          3.4495   -2.9544    2.4539 C.3       1 <0>         0.1316
      9 N1          4.8368   -3.4244    2.4265 N.am      1 <0>        -0.7081
     10 C9          5.8483   -2.5488    2.5898 C.2       1 <0>         0.5219
     11 O1          5.6100   -1.3718    2.7596 O.2       1 <0>        -0.5353
     12 C10         7.2754   -3.0323    2.5616 C.3       1 <0>         0.1382
     13 H1          7.3002   -4.0805    2.2640 H         1 <0>         0.0959
     14 C11         8.0813   -2.1956    1.5630 C.3       1 <0>        -0.1216
     15 C12         9.5560   -2.5975    1.6401 C.3       1 <0>        -0.1159
     16 C13        10.0900   -2.3174    3.0467 C.3       1 <0>        -0.1386
     17 C14         9.3067   -3.1554    4.0622 C.3       1 <0>         0.1223
     18 N2          7.8718   -2.8849    3.8963 N.pl3     1 <0>        -0.9860
     19 S1          6.9457   -2.4188    5.1875 S.o2      1 <0>         2.6852
     20 O2          5.5898   -2.5817    4.7947 O.2       1 <0>        -0.9356
     21 O3          7.4900   -3.0627    6.3313 O.2       1 <0>        -0.9561
     22 C15         7.2001   -0.6900    5.4140 C.ar      1 <0>        -0.6762
     23 C16         8.2169   -0.2430    6.2370 C.ar      1 <0>        -0.0266
     24 C17         8.4165    1.1132    6.4147 C.ar      1 <0>        -0.1478
     25 C18         7.5996    2.0225    5.7691 C.ar      1 <0>        -0.0625
     26 C19         6.5835    1.5755    4.9454 C.ar      1 <0>        -0.1472
     27 C20         6.3865    0.2193    4.7643 C.ar      1 <0>        -0.0039
     28 H2         -2.5622   -2.4219    2.3464 H         1 <0>         0.1214
     29 H3         -1.3313   -2.5019    0.2152 H         1 <0>         0.1221
     30 H4          1.0009   -3.2906    0.1693 H         1 <0>         0.1215
     31 H5          0.8689   -3.9262    4.3845 H         1 <0>         0.1231
     32 H6         -1.4638   -3.1389    4.4302 H         1 <0>         0.1224
     33 H7          2.6574   -4.8697    3.0413 H         1 <0>         0.0802
     34 H8          2.7123   -4.6049    1.2820 H         1 <0>         0.0777
     35 H9          3.2973   -2.2248    1.6585 H         1 <0>         0.0667
     36 H10         3.2423   -2.4897    3.4178 H         1 <0>         0.0803
     37 H11         5.0274   -4.3658    2.2907 H         1 <0>         0.3976
     38 H12         7.7080   -2.3736    0.5545 H         1 <0>         0.0792
     39 H13         7.9791   -1.1385    1.8081 H         1 <0>         0.0823
     40 H14         9.6548   -3.6603    1.4192 H         1 <0>         0.0679
     41 H15        10.1280   -2.0210    0.9131 H         1 <0>         0.0719
     42 H16        11.1463   -2.5820    3.0943 H         1 <0>         0.0802
     43 H17         9.9688   -1.2590    3.2778 H         1 <0>         0.0700
     44 H18         9.4994   -4.2140    3.8883 H         1 <0>         0.0808
     45 H19         9.6149   -2.8869    5.0727 H         1 <0>         0.0897
     46 H20         8.8550   -0.9535    6.7414 H         1 <0>         0.1340
     47 H21         9.2104    1.4624    7.0583 H         1 <0>         0.1308
     48 H22         7.7551    3.0821    5.9085 H         1 <0>         0.1288
     49 H23         5.9451    2.2860    4.4413 H         1 <0>         0.1303
     50 H24         5.5950   -0.1299    4.1179 H         1 <0>         0.1695
@<TRIPOS>BOND
     1    1    6 ar
     2    1    2 ar
     3    1   28 1
     4    2    3 ar
     5    2   29 1
     6    3    4 ar
     7    3   30 1
     8    4    5 ar
     9    4    7 1
    10    5    6 ar
    11    5   31 1
    12    6   32 1
    13    7    8 1
    14    7   33 1
    15    7   34 1
    16    8    9 1
    17    8   35 1
    18    8   36 1
    19    9   10 am
    20    9   37 1
    21   10   11 2
    22   10   12 1
    23   12   13 1
    24   12   18 1
    25   12   14 1
    26   14   15 1
    27   14   38 1
    28   14   39 1
    29   15   16 1
    30   15   40 1
    31   15   41 1
    32   16   17 1
    33   16   42 1
    34   16   43 1
    35   17   18 1
    36   17   44 1
    37   17   45 1
    38   18   19 1
    39   19   20 2
    40   19   21 2
    41   19   22 1
    42   22   27 ar
    43   22   23 ar
    44   23   24 ar
    45   23   46 1
    46   24   25 ar
    47   24   47 1
    48   25   26 ar
    49   25   48 1
    50   26   27 ar
    51   26   49 1
    52   27   50 1
@<TRIPOS>MOLECULE
ZINC03532816
   47    49     0     0     0
SMALL
USER_CHARGES

@<TRIPOS>ATOM
      1 C1          7.0464    4.6071   -0.5318 C.ar      1 <0>        -0.1125
      2 C2          7.8956    3.5576   -0.8290 C.ar      1 <0>        -0.1227
      3 C3          7.4592    2.2537   -0.6870 C.ar      1 <0>        -0.0981
      4 C4          6.1735    1.9992   -0.2473 C.ar      1 <0>        -0.1106
      5 C5          5.3245    3.0486    0.0508 C.ar      1 <0>        -0.1027
      6 C6          5.7606    4.3526   -0.0926 C.ar      1 <0>        -0.1235
      7 C7          5.6974    0.5777   -0.0934 C.3       1 <0>         0.1674
      8 N1          5.9916    0.1083    1.2628 N.am      1 <0>        -0.7023
      9 C8          5.6528   -1.1432    1.6310 C.2       1 <0>         0.5222
     10 O1          5.1045   -1.8807    0.8396 O.2       1 <0>        -0.5363
     11 C9          5.9555   -1.6261    3.0261 C.3       1 <0>         0.1386
     12 H1          6.3182   -0.7943    3.6300 H         1 <0>         0.0956
     13 C10         4.6842   -2.2027    3.6570 C.3       1 <0>        -0.1214
     14 C11         5.0273   -2.8164    5.0164 C.3       1 <0>        -0.1160
     15 C12         6.0311   -3.9557    4.8249 C.3       1 <0>        -0.1384
     16 C13         7.3176   -3.3989    4.2072 C.3       1 <0>         0.1223
     17 N2          6.9792   -2.6786    2.9718 N.pl3     1 <0>        -0.9859
     18 S1          7.7337   -3.0488    1.5449 S.o2      1 <0>         2.6855
     19 O2          7.4627   -1.9770    0.6521 O.2       1 <0>        -0.9360
     20 O3          9.0565   -3.4481    1.8766 O.2       1 <0>        -0.9561
     21 C14         6.9295   -4.4704    0.8839 C.ar      1 <0>        -0.6761
     22 C15         7.3765   -5.7352    1.2177 C.ar      1 <0>        -0.0266
     23 C16         6.7456   -6.8505    0.6991 C.ar      1 <0>        -0.1478
     24 C17         5.6673   -6.7010   -0.1529 C.ar      1 <0>        -0.0626
     25 C18         5.2197   -5.4363   -0.4859 C.ar      1 <0>        -0.1472
     26 C19         5.8479   -4.3210    0.0361 C.ar      1 <0>        -0.0040
     27 H2          7.3888    5.6257   -0.6384 H         1 <0>         0.1227
     28 H3          8.9001    3.7565   -1.1725 H         1 <0>         0.1239
     29 H4          8.1224    1.4338   -0.9198 H         1 <0>         0.1266
     30 H5          4.3200    2.8498    0.3939 H         1 <0>         0.1232
     31 H6          5.0972    5.1724    0.1399 H         1 <0>         0.1235
     32 H7          4.6223    0.5338   -0.2679 H         1 <0>         0.0738
     33 H8          6.2091   -0.0572   -0.8167 H         1 <0>         0.0869
     34 H9          6.4301    0.6981    1.8957 H         1 <0>         0.3986
     35 H10         3.9516   -1.4069    3.7916 H         1 <0>         0.0792
     36 H11         4.2708   -2.9719    3.0045 H         1 <0>         0.0826
     37 H12         5.4634   -2.0525    5.6600 H         1 <0>         0.0678
     38 H13         4.1200   -3.2057    5.4784 H         1 <0>         0.0719
     39 H14         6.2571   -4.4075    5.7907 H         1 <0>         0.0802
     40 H15         5.6050   -4.7083    4.1614 H         1 <0>         0.0701
     41 H16         7.7928   -2.7133    4.9089 H         1 <0>         0.0807
     42 H17         7.9975   -4.2193    3.9775 H         1 <0>         0.0897
     43 H18         8.2190   -5.8520    1.8833 H         1 <0>         0.1340
     44 H19         7.0953   -7.8386    0.9593 H         1 <0>         0.1308
     45 H20         5.1748   -7.5724   -0.5586 H         1 <0>         0.1287
     46 H21         4.3774   -5.3195   -1.1518 H         1 <0>         0.1304
     47 H22         5.4959   -3.3330   -0.2212 H         1 <0>         0.1697
@<TRIPOS>BOND
     1    1    6 ar
     2    1    2 ar
     3    1   27 1
     4    2    3 ar
     5    2   28 1
     6    3    4 ar
     7    3   29 1
     8    4    5 ar
     9    4    7 1
    10    5    6 ar
    11    5   30 1
    12    6   31 1
    13    7    8 1
    14    7   32 1
    15    7   33 1
    16    8    9 am
    17    8   34 1
    18    9   10 2
    19    9   11 1
    20   11   12 1
    21   11   17 1
    22   11   13 1
    23   13   14 1
    24   13   35 1
    25   13   36 1
    26   14   15 1
    27   14   37 1
    28   14   38 1
    29   15   16 1
    30   15   39 1
    31   15   40 1
    32   16   17 1
    33   16   41 1
    34   16   42 1
    35   17   18 1
    36   18   19 2
    37   18   20 2
    38   18   21 1
    39   21   26 ar
    40   21   22 ar
    41   22   23 ar
    42   22   43 1
    43   23   24 ar
    44   23   44 1
    45   24   25 ar
    46   24   45 1
    47   25   26 ar
    48   25   46 1
    49   26   47 1
@<TRIPOS>MOLECULE
ZINC03532817
   47    49     0     0     0
SMALL
USER_CHARGES

@<TRIPOS>ATOM
      1 C1         -0.1479   -3.2344    0.1040 C.ar      1 <0>        -0.1126
      2 C2         -0.0395   -2.0596    0.8244 C.ar      1 <0>        -0.1237
      3 C3          1.1972   -1.4669    0.9979 C.ar      1 <0>        -0.1030
      4 C4          2.3256   -2.0492    0.4514 C.ar      1 <0>        -0.1102
      5 C5          2.2173   -3.2245   -0.2682 C.ar      1 <0>        -0.0972
      6 C6          0.9804   -3.8165   -0.4429 C.ar      1 <0>        -0.1230
      7 C7          3.6736   -1.4024    0.6397 C.3       1 <0>         0.1681
      8 N1          4.2971   -1.9196    1.8604 N.am      1 <0>        -0.6982
      9 C8          5.5157   -1.4805    2.2328 C.2       1 <0>         0.5168
     10 O1          6.0962   -0.6572    1.5573 O.2       1 <0>        -0.5356
     11 C9          6.1571   -2.0124    3.4885 C.3       1 <0>         0.1396
     12 H1          5.4212   -2.5722    4.0657 H         1 <0>         0.0956
     13 C10         6.6886   -0.8461    4.3275 C.3       1 <0>        -0.1210
     14 C11         7.4593   -1.3971    5.5293 C.3       1 <0>        -0.1161
     15 C12         8.6515   -2.2216    5.0384 C.3       1 <0>        -0.1386
     16 C13         8.1423   -3.4036    4.2075 C.3       1 <0>         0.1209
     17 N2          7.2784   -2.8931    3.1338 N.pl3     1 <0>        -0.9857
     18 S1          7.5656   -3.2989    1.5542 S.o2      1 <0>         2.6849
     19 O2          8.1723   -4.5838    1.5688 O.2       1 <0>        -0.9549
     20 O3          6.3658   -3.0310    0.8414 O.2       1 <0>        -0.9376
     21 C14         8.7774   -2.1767    0.9401 C.ar      1 <0>        -0.6751
     22 C15         8.3899   -1.0885    0.1808 C.ar      1 <0>         0.0071
     23 C16         9.3405   -0.2081   -0.3009 C.ar      1 <0>        -0.1455
     24 C17        10.6787   -0.4158   -0.0230 C.ar      1 <0>        -0.0622
     25 C18        11.0661   -1.5035    0.7370 C.ar      1 <0>        -0.1471
     26 C19        10.1150   -2.3815    1.2224 C.ar      1 <0>        -0.0250
     27 H2         -1.1135   -3.6999   -0.0278 H         1 <0>         0.1226
     28 H3         -0.9210   -1.6047    1.2514 H         1 <0>         0.1233
     29 H4          1.2818   -0.5486    1.5601 H         1 <0>         0.1230
     30 H5          3.0988   -3.6792   -0.6955 H         1 <0>         0.1271
     31 H6          0.8957   -4.7345   -1.0055 H         1 <0>         0.1238
     32 H7          4.3084   -1.6296   -0.2168 H         1 <0>         0.0858
     33 H8          3.5500   -0.3228    0.7242 H         1 <0>         0.0732
     34 H9          3.8329   -2.5780    2.4007 H         1 <0>         0.3987
     35 H10         7.3534   -0.2333    3.7187 H         1 <0>         0.0830
     36 H11         5.8533   -0.2397    4.6779 H         1 <0>         0.0787
     37 H12         7.8177   -0.5693    6.1414 H         1 <0>         0.0718
     38 H13         6.8006   -2.0297    6.1242 H         1 <0>         0.0676
     39 H14         9.2979   -1.5959    4.4230 H         1 <0>         0.0701
     40 H15         9.2134   -2.5943    5.8949 H         1 <0>         0.0803
     41 H16         8.9883   -3.9367    3.7737 H         1 <0>         0.0910
     42 H17         7.5701   -4.0783    4.8443 H         1 <0>         0.0809
     43 H18         7.3444   -0.9263   -0.0363 H         1 <0>         0.1565
     44 H19         9.0379    0.6417   -0.8947 H         1 <0>         0.1307
     45 H20        11.4215    0.2716   -0.4000 H         1 <0>         0.1291
     46 H21        12.1115   -1.6659    0.9539 H         1 <0>         0.1308
     47 H22        10.4173   -3.2292    1.8193 H         1 <0>         0.1312
@<TRIPOS>BOND
     1    1    6 ar
     2    1    2 ar
     3    1   27 1
     4    2    3 ar
     5    2   28 1
     6    3    4 ar
     7    3   29 1
     8    4    5 ar
     9    4    7 1
    10    5    6 ar
    11    5   30 1
    12    6   31 1
    13    7    8 1
    14    7   32 1
    15    7   33 1
    16    8    9 am
    17    8   34 1
    18    9   10 2
    19    9   11 1
    20   11   12 1
    21   11   17 1
    22   11   13 1
    23   13   14 1
    24   13   35 1
    25   13   36 1
    26   14   15 1
    27   14   37 1
    28   14   38 1
    29   15   16 1
    30   15   39 1
    31   15   40 1
    32   16   17 1
    33   16   41 1
    34   16   42 1
    35   17   18 1
    36   18   19 2
    37   18   20 2
    38   18   21 1
    39   21   26 ar
    40   21   22 ar
    41   22   23 ar
    42   22   43 1
    43   23   24 ar
    44   23   44 1
    45   24   25 ar
    46   24   45 1
    47   25   26 ar
    48   25   46 1
    49   26   47 1
@<TRIPOS>MOLECULE
ZINC13441891
   53    55     0     0     0
SMALL
USER_CHARGES

@<TRIPOS>ATOM
      1 C1         -0.3696   -4.3453    0.0537 C.ar      1 <0>        -0.1249
      2 C2         -0.2609   -3.1713    0.7753 C.ar      1 <0>        -0.1187
      3 C3          0.9759   -2.5792    0.9498 C.ar      1 <0>        -0.1179
      4 C4          2.1042   -3.1613    0.4031 C.ar      1 <0>        -0.0822
      5 C5          1.9957   -4.3358   -0.3178 C.ar      1 <0>        -0.1171
      6 C6          0.7587   -4.9272   -0.4935 C.ar      1 <0>        -0.1181
      7 C7          3.4525   -2.5153    0.5925 C.3       1 <0>        -0.0777
      8 C8          4.1030   -3.0569    1.8670 C.3       1 <0>        -0.1261
      9 C9          5.4719   -2.4010    2.0592 C.3       1 <0>         0.1255
     10 N1          6.0948   -2.9196    3.2796 N.am      1 <0>        -0.7031
     11 C10         7.3134   -2.4813    3.6528 C.2       1 <0>         0.5163
     12 O1          7.8944   -1.6576    2.9783 O.2       1 <0>        -0.5358
     13 C11         7.9542   -3.0148    4.9081 C.3       1 <0>         0.1388
     14 H1          7.2177   -3.5740    5.4850 H         1 <0>         0.0955
     15 C12         8.4872   -1.8496    5.7477 C.3       1 <0>        -0.1211
     16 C13         9.2574   -2.4022    6.9492 C.3       1 <0>        -0.1161
     17 C14        10.4485   -3.2280    6.4577 C.3       1 <0>        -0.1386
     18 C15         9.9377   -4.4088    5.6262 C.3       1 <0>         0.1209
     19 N2          9.0744   -3.8967    4.5528 N.pl3     1 <0>        -0.9858
     20 S1          9.3610   -4.3019    2.9729 S.o2      1 <0>         2.6848
     21 O2          9.9674   -5.5869    2.9868 O.2       1 <0>        -0.9549
     22 O3          8.1610   -4.0335    2.2607 O.2       1 <0>        -0.9373
     23 C16        10.5727   -3.1798    2.3589 C.ar      1 <0>        -0.6753
     24 C17        10.1853   -2.0915    1.5996 C.ar      1 <0>         0.0073
     25 C18        11.1359   -1.2112    1.1179 C.ar      1 <0>        -0.1456
     26 C19        12.4740   -1.4188    1.3958 C.ar      1 <0>        -0.0622
     27 C20        12.8614   -2.5065    2.1558 C.ar      1 <0>        -0.1471
     28 C21        11.9104   -3.3845    2.6411 C.ar      1 <0>        -0.0249
     29 H2         -1.3353   -4.8103   -0.0788 H         1 <0>         0.1207
     30 H3         -1.1425   -2.7165    1.2025 H         1 <0>         0.1213
     31 H4          1.0607   -1.6615    1.5130 H         1 <0>         0.1209
     32 H5          2.8772   -4.7904   -0.7452 H         1 <0>         0.1218
     33 H6          0.6739   -5.8446   -1.0570 H         1 <0>         0.1216
     34 H7          4.0874   -2.7417   -0.2641 H         1 <0>         0.0770
     35 H8          3.3292   -1.4356    0.6780 H         1 <0>         0.0756
     36 H9          3.4681   -2.8304    2.7235 H         1 <0>         0.0687
     37 H10         4.2263   -4.1365    1.7814 H         1 <0>         0.0722
     38 H11         6.1068   -2.6274    1.2027 H         1 <0>         0.0780
     39 H12         5.3486   -1.3213    2.1448 H         1 <0>         0.0650
     40 H13         5.6301   -3.5784    3.8190 H         1 <0>         0.3977
     41 H14         9.1528   -1.2373    5.1392 H         1 <0>         0.0828
     42 H15         7.6528   -1.2424    6.0985 H         1 <0>         0.0785
     43 H16         9.6168   -1.5753    7.5617 H         1 <0>         0.0717
     44 H17         8.5979   -3.0344    7.5437 H         1 <0>         0.0676
     45 H18        11.0956   -2.6028    5.8426 H         1 <0>         0.0701
     46 H19        11.0100   -3.6019    7.3139 H         1 <0>         0.0803
     47 H20        10.7830   -4.9428    5.1920 H         1 <0>         0.0910
     48 H21         9.3648   -5.0832    6.2626 H         1 <0>         0.0808
     49 H22         9.1398   -1.9293    1.3825 H         1 <0>         0.1563
     50 H23        10.8332   -0.3614    0.5241 H         1 <0>         0.1307
     51 H24        13.2168   -0.7314    1.0188 H         1 <0>         0.1291
     52 H25        13.9069   -2.6689    2.3726 H         1 <0>         0.1309
     53 H26        12.2127   -4.2323    3.2381 H         1 <0>         0.1312
@<TRIPOS>BOND
     1    1    6 ar
     2    1    2 ar
     3    1   29 1
     4    2    3 ar
     5    2   30 1
     6    3    4 ar
     7    3   31 1
     8    4    5 ar
     9    4    7 1
    10    5    6 ar
    11    5   32 1
    12    6   33 1
    13    7    8 1
    14    7   34 1
    15    7   35 1
    16    8    9 1
    17    8   36 1
    18    8   37 1
    19    9   10 1
    20    9   38 1
    21    9   39 1
    22   10   11 am
    23   10   40 1
    24   11   12 2
    25   11   13 1
    26   13   14 1
    27   13   19 1
    28   13   15 1
    29   15   16 1
    30   15   41 1
    31   15   42 1
    32   16   17 1
    33   16   43 1
    34   16   44 1
    35   17   18 1
    36   17   45 1
    37   17   46 1
    38   18   19 1
    39   18   47 1
    40   18   48 1
    41   19   20 1
    42   20   21 2
    43   20   22 2
    44   20   23 1
    45   23   28 ar
    46   23   24 ar
    47   24   25 ar
    48   24   49 1
    49   25   26 ar
    50   25   50 1
    51   26   27 ar
    52   26   51 1
    53   27   28 ar
    54   27   52 1
    55   28   53 1
@<TRIPOS>MOLECULE
ZINC28645005
   53    55     0     0     0
SMALL
USER_CHARGES

@<TRIPOS>ATOM
      1 C1          9.0180    5.5374   -0.6857 C.ar      1 <0>        -0.1249
      2 C2          9.8672    4.4880   -0.9829 C.ar      1 <0>        -0.1180
      3 C3          9.4307    3.1841   -0.8409 C.ar      1 <0>        -0.1172
      4 C4          8.1451    2.9296   -0.4012 C.ar      1 <0>        -0.0822
      5 C5          7.2962    3.9790   -0.1031 C.ar      1 <0>        -0.1178
      6 C6          7.7322    5.2829   -0.2465 C.ar      1 <0>        -0.1187
      7 C7          7.6689    1.5081   -0.2473 C.3       1 <0>        -0.0777
      8 C8          7.9762    1.0178    1.1691 C.3       1 <0>        -0.1263
      9 C9          7.4927   -0.4253    1.3253 C.3       1 <0>         0.1248
     10 N1          7.7869   -0.8948    2.6815 N.am      1 <0>        -0.7073
     11 C10         7.4482   -2.1462    3.0498 C.2       1 <0>         0.5218
     12 O1          6.8998   -2.8837    2.2584 O.2       1 <0>        -0.5365
     13 C11         7.7508   -2.6291    4.4449 C.3       1 <0>         0.1379
     14 H1          8.1136   -1.7974    5.0488 H         1 <0>         0.0955
     15 C12         6.4796   -3.2058    5.0758 C.3       1 <0>        -0.1214
     16 C13         6.8226   -3.8195    6.4351 C.3       1 <0>        -0.1160
     17 C14         7.8265   -4.9587    6.2437 C.3       1 <0>        -0.1385
     18 C15         9.1130   -4.4019    5.6260 C.3       1 <0>         0.1223
     19 N2          8.7746   -3.6816    4.3905 N.pl3     1 <0>        -0.9860
     20 S1          9.5291   -4.0519    2.9637 S.o2      1 <0>         2.6853
     21 O2          9.2581   -2.9801    2.0709 O.2       1 <0>        -0.9356
     22 O3         10.8519   -4.4511    3.2954 O.2       1 <0>        -0.9562
     23 C16         8.7249   -5.4735    2.3027 C.ar      1 <0>        -0.6761
     24 C17         9.1719   -6.7382    2.6364 C.ar      1 <0>        -0.0266
     25 C18         8.5410   -7.8535    2.1179 C.ar      1 <0>        -0.1478
     26 C19         7.4627   -7.7041    1.2659 C.ar      1 <0>        -0.0626
     27 C20         7.0150   -6.4393    0.9329 C.ar      1 <0>        -0.1472
     28 C21         7.6433   -5.3241    1.4548 C.ar      1 <0>        -0.0040
     29 H2          9.3605    6.5561   -0.7924 H         1 <0>         0.1207
     30 H3         10.8717    4.6868   -1.3264 H         1 <0>         0.1216
     31 H4         10.0940    2.3642   -1.0737 H         1 <0>         0.1218
     32 H5          6.2916    3.7802    0.2401 H         1 <0>         0.1210
     33 H6          7.0688    6.1028   -0.0140 H         1 <0>         0.1213
     34 H7          6.5939    1.4642   -0.4218 H         1 <0>         0.0758
     35 H8          8.1807    0.8732   -0.9705 H         1 <0>         0.0772
     36 H9          9.0512    1.0618    1.3436 H         1 <0>         0.0717
     37 H10         7.4645    1.6528    1.8924 H         1 <0>         0.0689
     38 H11         6.4177   -0.4693    1.1509 H         1 <0>         0.0656
     39 H12         8.0045   -1.0603    0.6021 H         1 <0>         0.0791
     40 H13         8.2255   -0.3049    3.3145 H         1 <0>         0.3975
     41 H14         5.7470   -2.4100    5.2104 H         1 <0>         0.0790
     42 H15         6.0662   -3.9749    4.4233 H         1 <0>         0.0824
     43 H16         7.2588   -3.0555    7.0788 H         1 <0>         0.0678
     44 H17         5.9154   -4.2087    6.8972 H         1 <0>         0.0719
     45 H18         8.0525   -5.4106    7.2095 H         1 <0>         0.0802
     46 H19         7.4004   -5.7113    5.5802 H         1 <0>         0.0700
     47 H20         9.5882   -3.7163    6.3276 H         1 <0>         0.0807
     48 H21         9.7929   -5.2223    5.3963 H         1 <0>         0.0897
     49 H22        10.0143   -6.8550    3.3021 H         1 <0>         0.1340
     50 H23         8.8907   -8.8417    2.3781 H         1 <0>         0.1308
     51 H24         6.9702   -8.5754    0.8602 H         1 <0>         0.1287
     52 H25         6.1728   -6.3225    0.2670 H         1 <0>         0.1304
     53 H26         7.2913   -4.3360    1.1976 H         1 <0>         0.1696
@<TRIPOS>BOND
     1    1    6 ar
     2    1    2 ar
     3    1   29 1
     4    2    3 ar
     5    2   30 1
     6    3    4 ar
     7    3   31 1
     8    4    5 ar
     9    4    7 1
    10    5    6 ar
    11    5   32 1
    12    6   33 1
    13    7    8 1
    14    7   34 1
    15    7   35 1
    16    8    9 1
    17    8   36 1
    18    8   37 1
    19    9   10 1
    20    9   38 1
    21    9   39 1
    22   10   11 am
    23   10   40 1
    24   11   12 2
    25   11   13 1
    26   13   14 1
    27   13   19 1
    28   13   15 1
    29   15   16 1
    30   15   41 1
    31   15   42 1
    32   16   17 1
    33   16   43 1
    34   16   44 1
    35   17   18 1
    36   17   45 1
    37   17   46 1
    38   18   19 1
    39   18   47 1
    40   18   48 1
    41   19   20 1
    42   20   21 2
    43   20   22 2
    44   20   23 1
    45   23   28 ar
    46   23   24 ar
    47   24   25 ar
    48   24   49 1
    49   25   26 ar
    50   25   50 1
    51   26   27 ar
    52   26   51 1
    53   27   28 ar
    54   27   52 1
    55   28   53 1
@<TRIPOS>MOLECULE
ZINC09095353
   53    55     0     0     0
SMALL
USER_CHARGES

@<TRIPOS>ATOM
      1 C1         -0.0184    1.5028    0.0103 C.3       1 <0>        -0.1259
      2 C2          0.0021   -0.0041    0.0020 C.ar      1 <0>        -0.0289
      3 C3          0.0057   -0.6887   -1.1989 C.ar      1 <0>        -0.1418
      4 C4          0.0245   -2.0709   -1.2065 C.ar      1 <0>        -0.0169
      5 C5          0.0400   -2.7685   -0.0132 C.ar      1 <0>        -0.6889
      6 C6          0.0373   -2.0839    1.1877 C.ar      1 <0>        -0.0168
      7 C7          0.0229   -0.7016    1.1953 C.ar      1 <0>        -0.1422
      8 S1          0.0628   -4.5303   -0.0229 S.o2      1 <0>         2.7078
      9 O1         -0.4759   -4.9503    1.2232 O.2       1 <0>        -0.9285
     10 O2         -0.4897   -4.9367   -1.2674 O.2       1 <0>        -0.9499
     11 N1          1.6509   -4.9994   -0.0343 N.pl3     1 <0>        -0.9918
     12 C8          2.4700   -5.2301   -1.2381 C.3       1 <0>         0.1179
     13 C9          3.9320   -5.0273   -0.7677 C.3       1 <0>        -0.1290
     14 C10         3.8879   -5.6369    0.6583 C.3       1 <0>        -0.1198
     15 C11         2.4792   -5.2486    1.1545 C.3       1 <0>         0.1342
     16 H1          2.5344   -4.3464    1.7637 H         1 <0>         0.1020
     17 C12         1.8928   -6.3793    1.9600 C.2       1 <0>         0.4957
     18 O3          0.8797   -6.9299    1.5840 O.2       1 <0>        -0.5056
     19 N2          2.4941   -6.7786    3.0982 N.am      1 <0>        -0.7302
     20 C13         1.9240   -7.8777    3.8812 C.3       1 <0>         0.1185
     21 C14         2.7928   -8.1290    5.1153 C.3       1 <0>        -0.1242
     22 C15         2.1974   -9.2769    5.9330 C.3       1 <0>        -0.0788
     23 C16         3.0532   -9.5244    7.1485 C.ar      1 <0>        -0.0827
     24 C17         4.1061  -10.4176    7.0823 C.ar      1 <0>        -0.1175
     25 C18         4.8910  -10.6446    8.1973 C.ar      1 <0>        -0.1182
     26 C19         4.6234   -9.9781    9.3784 C.ar      1 <0>        -0.1244
     27 C20         3.5710   -9.0841    9.4443 C.ar      1 <0>        -0.1181
     28 C21         2.7887   -8.8539    8.3281 C.ar      1 <0>        -0.1174
     29 H2          1.0042    1.8801    0.0026 H         1 <0>         0.0799
     30 H3         -0.5455    1.8639   -0.8728 H         1 <0>         0.0737
     31 H4         -0.5286    1.8543    0.9071 H         1 <0>         0.0735
     32 H5         -0.0064   -0.1436   -2.1312 H         1 <0>         0.1336
     33 H6          0.0266   -2.6057   -2.1448 H         1 <0>         0.1392
     34 H7          0.0491   -2.6289    2.1200 H         1 <0>         0.1381
     35 H8          0.0245   -0.1667    2.1335 H         1 <0>         0.1331
     36 H9          2.3272   -6.2465   -1.6051 H         1 <0>         0.0768
     37 H10         2.2171   -4.5069   -2.0133 H         1 <0>         0.0811
     38 H11         4.6269   -5.5741   -1.4051 H         1 <0>         0.0901
     39 H12         4.1876   -3.9683   -0.7322 H         1 <0>         0.0812
     40 H13         4.0016   -6.7203    0.6183 H         1 <0>         0.0845
     41 H14         4.6541   -5.1908    1.2923 H         1 <0>         0.0925
     42 H15         3.3044   -6.3382    3.3989 H         1 <0>         0.3999
     43 H16         0.9141   -7.6143    4.1954 H         1 <0>         0.0713
     44 H17         1.8908   -8.7799    3.2704 H         1 <0>         0.0688
     45 H18         3.8028   -8.3924    4.8011 H         1 <0>         0.0713
     46 H19         2.8260   -7.2268    5.7260 H         1 <0>         0.0716
     47 H20         1.1875   -9.0135    6.2472 H         1 <0>         0.0772
     48 H21         2.1642  -10.1791    5.3222 H         1 <0>         0.0768
     49 H22         4.3152  -10.9384    6.1595 H         1 <0>         0.1212
     50 H23         5.7132  -11.3430    8.1457 H         1 <0>         0.1216
     51 H24         5.2362  -10.1560   10.2497 H         1 <0>         0.1210
     52 H25         3.3617   -8.5636   10.3672 H         1 <0>         0.1217
     53 H26         1.9688   -8.1528    8.3786 H         1 <0>         0.1215
@<TRIPOS>BOND
     1    1    2 1
     2    1   29 1
     3    1   30 1
     4    1   31 1
     5    2    7 ar
     6    2    3 ar
     7    3    4 ar
     8    3   32 1
     9    4    5 ar
    10    4   33 1
    11    5    6 ar
    12    5    8 1
    13    6    7 ar
    14    6   34 1
    15    7   35 1
    16    8    9 2
    17    8   10 2
    18    8   11 1
    19   11   15 1
    20   11   12 1
    21   12   13 1
    22   12   36 1
    23   12   37 1
    24   13   14 1
    25   13   38 1
    26   13   39 1
    27   14   15 1
    28   14   40 1
    29   14   41 1
    30   15   16 1
    31   15   17 1
    32   17   18 2
    33   17   19 am
    34   19   20 1
    35   19   42 1
    36   20   21 1
    37   20   43 1
    38   20   44 1
    39   21   22 1
    40   21   45 1
    41   21   46 1
    42   22   23 1
    43   22   47 1
    44   22   48 1
    45   23   28 ar
    46   23   24 ar
    47   24   25 ar
    48   24   49 1
    49   25   26 ar
    50   25   50 1
    51   26   27 ar
    52   26   51 1
    53   27   28 ar
    54   27   52 1
    55   28   53 1
@<TRIPOS>MOLECULE
ZINC09095354
   53    55     0     0     0
SMALL
USER_CHARGES

@<TRIPOS>ATOM
      1 C1         -2.1501  -11.1236    1.1615 C.3       1 <0>        -0.1263
      2 C2         -1.7158   -9.6807    1.1430 C.ar      1 <0>        -0.0277
      3 C3         -1.0106   -9.1574    2.2106 C.ar      1 <0>        -0.1421
      4 C4         -0.6122   -7.8338    2.1937 C.ar      1 <0>        -0.0158
      5 C5         -0.9186   -7.0336    1.1089 C.ar      1 <0>        -0.6873
      6 C6         -1.6230   -7.5571    0.0409 C.ar      1 <0>        -0.0164
      7 C7         -2.0176   -8.8819    0.0559 C.ar      1 <0>        -0.1413
      8 S1         -0.4118   -5.3462    1.0878 S.o2      1 <0>         2.7077
      9 O1         -1.2119   -4.6940    0.1112 O.2       1 <0>        -0.9469
     10 O2         -0.3644   -4.9194    2.4424 O.2       1 <0>        -0.9417
     11 N1          1.1453   -5.3096    0.5253 N.pl3     1 <0>        -0.9918
     12 C8          1.5460   -5.2879   -0.8933 C.3       1 <0>         0.1140
     13 C9          2.9561   -4.6464   -0.8972 C.3       1 <0>        -0.1280
     14 C10         3.5679   -5.2312    0.4032 C.3       1 <0>        -0.1155
     15 C11         2.3568   -5.2870    1.3579 C.3       1 <0>         0.1351
     16 H1          2.4067   -6.1913    1.9644 H         1 <0>         0.0963
     17 C12         2.3452   -4.0701    2.2468 C.2       1 <0>         0.5041
     18 O3          1.7217   -3.0837    1.9163 O.2       1 <0>        -0.5202
     19 N2          3.0276   -4.0780    3.4090 N.am      1 <0>        -0.7267
     20 C13         3.0163   -2.8951    4.2731 C.3       1 <0>         0.1181
     21 C14         3.8622   -3.1655    5.5190 C.3       1 <0>        -0.1245
     22 C15         3.8504   -1.9301    6.4215 C.3       1 <0>        -0.0788
     23 C16         4.6835   -2.1965    7.6486 C.ar      1 <0>        -0.0825
     24 C17         4.0995   -2.7459    8.7747 C.ar      1 <0>        -0.1172
     25 C18         4.8637   -2.9903    9.9003 C.ar      1 <0>        -0.1181
     26 C19         6.2121   -2.6856    9.8998 C.ar      1 <0>        -0.1245
     27 C20         6.7963   -2.1369    8.7735 C.ar      1 <0>        -0.1184
     28 C21         6.0329   -1.8966    7.6464 C.ar      1 <0>        -0.1175
     29 H2         -1.3697  -11.7436    0.7202 H         1 <0>         0.0804
     30 H3         -2.3248  -11.4373    2.1906 H         1 <0>         0.0738
     31 H4         -3.0698  -11.2336    0.5870 H         1 <0>         0.0740
     32 H5         -0.7712   -9.7825    3.0581 H         1 <0>         0.1336
     33 H6         -0.0619   -7.4248    3.0281 H         1 <0>         0.1366
     34 H7         -1.8626   -6.9319   -0.8065 H         1 <0>         0.1417
     35 H8         -2.5647   -9.2919   -0.7801 H         1 <0>         0.1345
     36 H9          1.5894   -6.3019   -1.2908 H         1 <0>         0.0731
     37 H10         0.8517   -4.6811   -1.4744 H         1 <0>         0.0888
     38 H11         3.5255   -4.9599   -1.7722 H         1 <0>         0.0902
     39 H12         2.8911   -3.5597   -0.8441 H         1 <0>         0.0830
     40 H13         3.9699   -6.2287    0.2256 H         1 <0>         0.0917
     41 H14         4.3378   -4.5689    0.7990 H         1 <0>         0.0864
     42 H15         3.5262   -4.8670    3.6732 H         1 <0>         0.4002
     43 H16         3.4299   -2.0449    3.7307 H         1 <0>         0.0690
     44 H17         1.9917   -2.6725    4.5709 H         1 <0>         0.0724
     45 H18         3.4486   -4.0157    6.0614 H         1 <0>         0.0721
     46 H19         4.8868   -3.3882    5.2212 H         1 <0>         0.0713
     47 H20         4.2640   -1.0799    5.8790 H         1 <0>         0.0768
     48 H21         2.8257   -1.7075    6.7193 H         1 <0>         0.0775
     49 H22         3.0461   -2.9840    8.7750 H         1 <0>         0.1216
     50 H23         4.4073   -3.4189   10.7803 H         1 <0>         0.1217
     51 H24         6.8090   -2.8758   10.7795 H         1 <0>         0.1210
     52 H25         7.8497   -1.8986    8.7732 H         1 <0>         0.1216
     53 H26         6.4901   -1.4714    6.7651 H         1 <0>         0.1212
@<TRIPOS>BOND
     1    1    2 1
     2    1   29 1
     3    1   30 1
     4    1   31 1
     5    2    7 ar
     6    2    3 ar
     7    3    4 ar
     8    3   32 1
     9    4    5 ar
    10    4   33 1
    11    5    6 ar
    12    5    8 1
    13    6    7 ar
    14    6   34 1
    15    7   35 1
    16    8    9 2
    17    8   10 2
    18    8   11 1
    19   11   15 1
    20   11   12 1
    21   12   13 1
    22   12   36 1
    23   12   37 1
    24   13   14 1
    25   13   38 1
    26   13   39 1
    27   14   15 1
    28   14   40 1
    29   14   41 1
    30   15   16 1
    31   15   17 1
    32   17   18 2
    33   17   19 am
    34   19   20 1
    35   19   42 1
    36   20   21 1
    37   20   43 1
    38   20   44 1
    39   21   22 1
    40   21   45 1
    41   21   46 1
    42   22   23 1
    43   22   47 1
    44   22   48 1
    45   23   28 ar
    46   23   24 ar
    47   24   25 ar
    48   24   49 1
    49   25   26 ar
    50   25   50 1
    51   26   27 ar
    52   26   51 1
    53   27   28 ar
    54   27   52 1
    55   28   53 1
@<TRIPOS>MOLECULE
ZINC13441889
   46    47     0     0     0
SMALL
USER_CHARGES

@<TRIPOS>ATOM
      1 C1          2.7764    0.2502    1.0747 C.3       1 <0>        -0.1531
      2 C2          1.8081   -0.6308    0.2828 C.3       1 <0>        -0.1215
      3 C3          2.5863   -1.4319   -0.7629 C.3       1 <0>        -0.1331
      4 C4          1.6180   -2.3129   -1.5548 C.3       1 <0>         0.1248
      5 N1          2.3632   -3.0800   -2.5560 N.am      1 <0>        -0.7034
      6 C5          1.7125   -3.9297   -3.3753 C.2       1 <0>         0.5158
      7 O1          0.5102   -4.0592   -3.2837 O.2       1 <0>        -0.5361
      8 C6          2.4791   -4.7188   -4.4053 C.3       1 <0>         0.1388
      9 H1          3.4936   -4.3281   -4.4842 H         1 <0>         0.0954
     10 C7          1.7788   -4.6074   -5.7632 C.3       1 <0>        -0.1212
     11 C8          2.4807   -5.5204   -6.7711 C.3       1 <0>        -0.1160
     12 C9          2.3878   -6.9727   -6.2973 C.3       1 <0>        -0.1386
     13 C10         3.0950   -7.1109   -4.9455 C.3       1 <0>         0.1209
     14 N2          2.5253   -6.1326   -4.0083 N.pl3     1 <0>        -0.9858
     15 S1          1.9424   -6.6149   -2.5352 S.o2      1 <0>         2.6848
     16 O2          2.6899   -7.7633   -2.1589 O.2       1 <0>        -0.9549
     17 O3          1.8752   -5.4502   -1.7240 O.2       1 <0>        -0.9373
     18 C11         0.2829   -7.1529   -2.7824 C.ar      1 <0>        -0.6751
     19 C12        -0.7695   -6.3082   -2.4826 C.ar      1 <0>         0.0072
     20 C13        -2.0714   -6.7303   -2.6765 C.ar      1 <0>        -0.1456
     21 C14        -2.3211   -7.9970   -3.1706 C.ar      1 <0>        -0.0622
     22 C15        -1.2687   -8.8414   -3.4712 C.ar      1 <0>        -0.1472
     23 C16         0.0334   -8.4177   -3.2813 C.ar      1 <0>        -0.0249
     24 H2          3.5142   -0.3781    1.5736 H         1 <0>         0.0545
     25 H3          3.2829    0.9355    0.3950 H         1 <0>         0.0538
     26 H4          2.2219    0.8210    1.8196 H         1 <0>         0.0556
     27 H5          1.3016   -1.3160    0.9625 H         1 <0>         0.0656
     28 H6          1.0703   -0.0024   -0.2161 H         1 <0>         0.0640
     29 H7          3.0928   -0.7466   -1.4426 H         1 <0>         0.0663
     30 H8          3.3241   -2.0603   -0.2640 H         1 <0>         0.0699
     31 H9          1.1115   -2.9982   -0.8751 H         1 <0>         0.0768
     32 H10         0.8802   -1.6846   -2.0537 H         1 <0>         0.0637
     33 H11         3.3248   -2.9764   -2.6293 H         1 <0>         0.3973
     34 H12         0.7369   -4.9112   -5.6612 H         1 <0>         0.0827
     35 H13         1.8250   -3.5761   -6.1129 H         1 <0>         0.0785
     36 H14         1.9997   -5.4245   -7.7444 H         1 <0>         0.0717
     37 H15         3.5286   -5.2319   -6.8541 H         1 <0>         0.0676
     38 H16         1.3402   -7.2542   -6.1904 H         1 <0>         0.0700
     39 H17         2.8675   -7.6249   -7.0272 H         1 <0>         0.0803
     40 H18         2.9470   -8.1185   -4.5569 H         1 <0>         0.0910
     41 H19         4.1606   -6.9176   -5.0691 H         1 <0>         0.0808
     42 H20        -0.5745   -5.3186   -2.0966 H         1 <0>         0.1562
     43 H21        -2.8936   -6.0705   -2.4416 H         1 <0>         0.1306
     44 H22        -3.3383   -8.3270   -3.3214 H         1 <0>         0.1291
     45 H23        -1.4637   -9.8311   -3.8568 H         1 <0>         0.1309
     46 H24         0.8556   -9.0761   -3.5197 H         1 <0>         0.1313
@<TRIPOS>BOND
     1    1    2 1
     2    1   24 1
     3    1   25 1
     4    1   26 1
     5    2    3 1
     6    2   27 1
     7    2   28 1
     8    3    4 1
     9    3   29 1
    10    3   30 1
    11    4    5 1
    12    4   31 1
    13    4   32 1
    14    5    6 am
    15    5   33 1
    16    6    7 2
    17    6    8 1
    18    8    9 1
    19    8   14 1
    20    8   10 1
    21   10   11 1
    22   10   34 1
    23   10   35 1
    24   11   12 1
    25   11   36 1
    26   11   37 1
    27   12   13 1
    28   12   38 1
    29   12   39 1
    30   13   14 1
    31   13   40 1
    32   13   41 1
    33   14   15 1
    34   15   16 2
    35   15   17 2
    36   15   18 1
    37   18   23 ar
    38   18   19 ar
    39   19   20 ar
    40   19   42 1
    41   20   21 ar
    42   20   43 1
    43   21   22 ar
    44   21   44 1
    45   22   23 ar
    46   22   45 1
    47   23   46 1
@<TRIPOS>MOLECULE
ZINC29220788
   46    47     0     0     0
SMALL
USER_CHARGES

@<TRIPOS>ATOM
      1 C1         -4.8035   -2.1506   -2.3520 C.3       1 <0>        -0.1531
      2 C2         -3.4196   -2.4160   -1.7559 C.3       1 <0>        -0.1216
      3 C3         -2.4709   -2.8881   -2.8595 C.3       1 <0>        -0.1334
      4 C4         -1.0870   -3.1535   -2.2635 C.3       1 <0>         0.1240
      5 N1         -0.1786   -3.6056   -3.3202 N.am      1 <0>        -0.7075
      6 C5          1.1031   -3.9009   -3.0263 C.2       1 <0>         0.5212
      7 O1          1.5046   -3.7923   -1.8870 O.2       1 <0>        -0.5369
      8 C6          2.0375   -4.3659   -4.1133 C.3       1 <0>         0.1379
      9 H1          1.5471   -4.2708   -5.0821 H         1 <0>         0.0955
     10 C7          3.3102   -3.5135   -4.0960 C.3       1 <0>        -0.1215
     11 C8          4.3111   -4.0776   -5.1070 C.3       1 <0>        -0.1160
     12 C9          4.6833   -5.5092   -4.7145 C.3       1 <0>        -0.1385
     13 C10         3.4262   -6.3843   -4.7388 C.3       1 <0>         0.1223
     14 N2          2.4023   -5.7702   -3.8818 N.pl3     1 <0>        -0.9860
     15 S1          1.6770   -6.6425   -2.6754 S.o2      1 <0>         2.6852
     16 O2          0.5240   -5.9109   -2.2821 O.2       1 <0>        -0.9356
     17 O3          1.6074   -7.9865   -3.1316 O.2       1 <0>        -0.9562
     18 C11         2.7730   -6.6350   -1.2958 C.ar      1 <0>        -0.6760
     19 C12         3.7274   -7.6266   -1.1659 C.ar      1 <0>        -0.0265
     20 C13         4.5873   -7.6207   -0.0835 C.ar      1 <0>        -0.1478
     21 C14         4.4931   -6.6230    0.8686 C.ar      1 <0>        -0.0627
     22 C15         3.5393   -5.6309    0.7382 C.ar      1 <0>        -0.1472
     23 C16         2.6822   -5.6344   -0.3464 C.ar      1 <0>        -0.0041
     24 H2         -4.7269   -1.3804   -3.1194 H         1 <0>         0.0539
     25 H3         -5.1901   -3.0682   -2.7954 H         1 <0>         0.0545
     26 H4         -5.4793   -1.8143   -1.5657 H         1 <0>         0.0557
     27 H5         -3.0329   -1.4984   -1.3125 H         1 <0>         0.0643
     28 H6         -3.4961   -3.1862   -0.9885 H         1 <0>         0.0658
     29 H7         -2.8575   -3.8057   -3.3030 H         1 <0>         0.0694
     30 H8         -2.3944   -2.1179   -3.6270 H         1 <0>         0.0665
     31 H9         -0.7004   -2.2359   -1.8200 H         1 <0>         0.0644
     32 H10        -1.1635   -3.9237   -1.4960 H         1 <0>         0.0779
     33 H11        -0.4997   -3.6924   -4.2314 H         1 <0>         0.3972
     34 H12         3.0635   -2.4859   -4.3630 H         1 <0>         0.0790
     35 H13         3.7492   -3.5353   -3.0986 H         1 <0>         0.0823
     36 H14         3.8625   -4.0785   -6.1004 H         1 <0>         0.0678
     37 H15         5.2080   -3.4583   -5.1144 H         1 <0>         0.0718
     38 H16         5.4138   -5.9021   -5.4216 H         1 <0>         0.0802
     39 H17         5.1093   -5.5123   -3.7112 H         1 <0>         0.0700
     40 H18         3.0504   -6.4558   -5.7595 H         1 <0>         0.0807
     41 H19         3.6665   -7.3797   -4.3652 H         1 <0>         0.0897
     42 H20         3.8010   -8.4060   -1.9098 H         1 <0>         0.1341
     43 H21         5.3324   -8.3957    0.0183 H         1 <0>         0.1308
     44 H22         5.1644   -6.6188    1.7146 H         1 <0>         0.1287
     45 H23         3.4654   -4.8516    1.4823 H         1 <0>         0.1304
     46 H24         1.9395   -4.8572   -0.4502 H         1 <0>         0.1695
@<TRIPOS>BOND
     1    1    2 1
     2    1   24 1
     3    1   25 1
     4    1   26 1
     5    2    3 1
     6    2   27 1
     7    2   28 1
     8    3    4 1
     9    3   29 1
    10    3   30 1
    11    4    5 1
    12    4   31 1
    13    4   32 1
    14    5    6 am
    15    5   33 1
    16    6    7 2
    17    6    8 1
    18    8    9 1
    19    8   14 1
    20    8   10 1
    21   10   11 1
    22   10   34 1
    23   10   35 1
    24   11   12 1
    25   11   36 1
    26   11   37 1
    27   12   13 1
    28   12   38 1
    29   12   39 1
    30   13   14 1
    31   13   40 1
    32   13   41 1
    33   14   15 1
    34   15   16 2
    35   15   17 2
    36   15   18 1
    37   18   23 ar
    38   18   19 ar
    39   19   20 ar
    40   19   42 1
    41   20   21 ar
    42   20   43 1
    43   21   22 ar
    44   21   44 1
    45   22   23 ar
    46   22   45 1
    47   23   46 1
@<TRIPOS>MOLECULE
ZINC10332406
   42    43     0     0     0
SMALL
USER_CHARGES
3-(4-isopropylphenyl)-1-morpholino-propan-1-one
@<TRIPOS>ATOM
      1 C1         -1.7015    3.1268    5.8918 C.3       1 <0>        -0.1452
      2 C2         -2.7180    2.9497    4.7620 C.3       1 <0>        -0.0587
      3 C3         -3.3948    4.2905    4.4702 C.3       1 <0>        -0.1446
      4 C4         -2.0119    2.4633    3.5227 C.ar      1 <0>        -0.0775
      5 C5         -2.3665    1.2538    2.9550 C.ar      1 <0>        -0.1158
      6 C6         -1.7194    0.8079    1.8177 C.ar      1 <0>        -0.1126
      7 C7         -0.7181    1.5718    1.2479 C.ar      1 <0>        -0.0895
      8 C8         -0.3599    2.7788    1.8186 C.ar      1 <0>        -0.1131
      9 C9         -1.0099    3.2267    2.9534 C.ar      1 <0>        -0.1123
     10 C10        -0.0127    1.0858    0.0080 C.3       1 <0>        -0.0644
     11 C11        -0.7527    1.5927   -1.2315 C.3       1 <0>        -0.1327
     12 C12        -0.0473    1.1066   -2.4714 C.2       1 <0>         0.5166
     13 O1          0.9491    0.4223   -2.3733 O.2       1 <0>        -0.5353
     14 N1         -0.5238    1.4325   -3.6893 N.am      1 <0>        -0.6203
     15 C13        -1.7345    2.2564   -3.8334 C.3       1 <0>         0.0707
     16 C14        -1.4184    3.4071   -4.8023 C.3       1 <0>         0.0459
     17 O2         -0.8707    2.8680   -6.0078 O.3       1 <0>        -0.3779
     18 C15         0.3691    2.1787   -5.8303 C.3       1 <0>         0.0475
     19 C16         0.1477    0.9698   -4.9141 C.3       1 <0>         0.0750
     20 H1         -0.9489    3.8562    5.5925 H         1 <0>         0.0567
     21 H2         -2.2122    3.4786    6.7882 H         1 <0>         0.0587
     22 H3         -1.2193    2.1716    6.0997 H         1 <0>         0.0559
     23 H4         -3.4706    2.2203    5.0614 H         1 <0>         0.0771
     24 H5         -4.1190    4.1644    3.6653 H         1 <0>         0.0556
     25 H6         -3.9055    4.6424    5.3666 H         1 <0>         0.0586
     26 H7         -2.6422    5.0199    4.1709 H         1 <0>         0.0565
     27 H8         -3.1493    0.6573    3.3998 H         1 <0>         0.1209
     28 H9         -1.9965   -0.1370    1.3742 H         1 <0>         0.1211
     29 H10         0.4254    3.3735    1.3759 H         1 <0>         0.1207
     30 H11        -0.7331    4.1718    3.3968 H         1 <0>         0.1208
     31 H12         0.0021   -0.0041    0.0020 H         1 <0>         0.0803
     32 H13         1.0099    1.4631    0.0003 H         1 <0>         0.0800
     33 H14        -1.7753    1.2154   -1.2238 H         1 <0>         0.0959
     34 H15        -0.7675    2.6825   -1.2255 H         1 <0>         0.0952
     35 H16        -2.5466    1.6490   -4.2330 H         1 <0>         0.0813
     36 H17        -2.0212    2.6607   -2.8626 H         1 <0>         0.0970
     37 H18        -0.6963    4.0836   -4.3450 H         1 <0>         0.0576
     38 H19        -2.3343    3.9523   -5.0304 H         1 <0>         0.1088
     39 H20         1.0976    2.8507   -5.3768 H         1 <0>         0.0568
     40 H21         0.7387    1.8393   -6.7980 H         1 <0>         0.1089
     41 H22         1.1081    0.5216   -4.6593 H         1 <0>         0.1028
     42 H23        -0.4780    0.2349   -5.4206 H         1 <0>         0.0770
@<TRIPOS>BOND
     1    1    2 1
     2    1   20 1
     3    1   21 1
     4    1   22 1
     5    2    3 1
     6    2    4 1
     7    2   23 1
     8    3   24 1
     9    3   25 1
    10    3   26 1
    11    4    9 ar
    12    4    5 ar
    13    5    6 ar
    14    5   27 1
    15    6    7 ar
    16    6   28 1
    17    7    8 ar
    18    7   10 1
    19    8    9 ar
    20    8   29 1
    21    9   30 1
    22   10   11 1
    23   10   31 1
    24   10   32 1
    25   11   12 1
    26   11   33 1
    27   11   34 1
    28   12   13 2
    29   12   14 am
    30   14   19 1
    31   14   15 1
    32   15   16 1
    33   15   35 1
    34   15   36 1
    35   16   17 1
    36   16   37 1
    37   16   38 1
    38   17   18 1
    39   18   19 1
    40   18   39 1
    41   18   40 1
    42   19   41 1
    43   19   42 1
@<TRIPOS>MOLECULE
ZINC13446262
   45    45     0     0     0
SMALL
USER_CHARGES
ethyl (2S)-1-(3,3-dimethyl-2-oxo-pentanoyl)piperidine-2-carboxylate
@<TRIPOS>ATOM
      1 C1         -1.0673    1.5353    0.8527 C.3       1 <0>        -0.1558
      2 C2         -1.0645    0.0054    0.8584 C.3       1 <0>        -0.1081
      3 C3          0.0058   -0.4991    1.8284 C.3       1 <0>        -0.0878
      4 C4          1.3780    0.0118    1.3844 C.3       1 <0>        -0.1457
      5 C5         -0.2988    0.0156    3.2366 C.3       1 <0>        -0.1472
      6 C6          0.0086   -2.0060    1.8340 C.2       1 <0>         0.3703
      7 O1         -0.7657   -2.6140    1.1343 O.2       1 <0>        -0.4067
      8 C7          0.9672   -2.7465    2.7033 C.2       1 <0>         0.4725
      9 O2          1.6368   -2.1454    3.5176 O.2       1 <0>        -0.4775
     10 N1          1.0901   -4.0834    2.5847 N.am      1 <0>        -0.5784
     11 C8          0.3990   -4.8061    1.5083 C.3       1 <0>         0.0718
     12 C9          1.4255   -5.6428    0.7381 C.3       1 <0>        -0.1393
     13 C10         2.1802   -6.5450    1.7172 C.3       1 <0>        -0.1194
     14 C11         2.9275   -5.6819    2.7364 C.3       1 <0>        -0.1251
     15 C12         1.9226   -4.8449    3.5258 C.3       1 <0>         0.1492
     16 H1          1.2910   -5.5037    4.1219 H         1 <0>         0.1075
     17 C13         2.6613   -3.8933    4.4312 C.2       1 <0>         0.4770
     18 O3          3.5387   -3.1928    3.9845 O.2       1 <0>        -0.4883
     19 O4          2.3446   -3.8238    5.7337 O.3       1 <0>        -0.3600
     20 C14         3.0977   -2.8849    6.5460 C.3       1 <0>         0.0691
     21 C15         2.5990   -2.9466    7.9911 C.3       1 <0>        -0.1526
     22 H2         -0.0898    1.8993    0.5364 H         1 <0>         0.0601
     23 H3         -1.8299    1.8947    0.1617 H         1 <0>         0.0587
     24 H4         -1.2844    1.9020    1.8560 H         1 <0>         0.0602
     25 H5         -2.0421   -0.3586    1.1747 H         1 <0>         0.0696
     26 H6         -0.8475   -0.3613   -0.1449 H         1 <0>         0.0692
     27 H7          1.3759    1.1018    1.3803 H         1 <0>         0.0770
     28 H8          2.1405   -0.3475    2.0754 H         1 <0>         0.0761
     29 H9          1.5950   -0.3549    0.3811 H         1 <0>         0.0569
     30 H10        -1.2763   -0.3483    3.5529 H         1 <0>         0.0562
     31 H11         0.4637   -0.3437    3.9276 H         1 <0>         0.0810
     32 H12        -0.3008    1.1056    3.2326 H         1 <0>         0.0753
     33 H13        -0.3593   -5.4616    1.9365 H         1 <0>         0.0782
     34 H14        -0.0716   -4.0922    0.8323 H         1 <0>         0.1354
     35 H15         0.9124   -6.2575   -0.0015 H         1 <0>         0.0846
     36 H16         2.1308   -4.9810    0.2355 H         1 <0>         0.0692
     37 H17         1.4714   -7.1894    2.2373 H         1 <0>         0.0708
     38 H18         2.8943   -7.1590    1.1685 H         1 <0>         0.0770
     39 H19         3.4836   -6.3244    3.4191 H         1 <0>         0.0852
     40 H20         3.6191   -5.0201    2.2151 H         1 <0>         0.0837
     41 H21         4.1557   -3.1451    6.5153 H         1 <0>         0.0665
     42 H22         2.9601   -1.8761    6.1569 H         1 <0>         0.0731
     43 H23         1.5409   -2.6864    8.0218 H         1 <0>         0.0655
     44 H24         2.7365   -3.9555    8.3802 H         1 <0>         0.0651
     45 H25         3.1643   -2.2418    8.6009 H         1 <0>         0.0798
@<TRIPOS>BOND
     1    1    2 1
     2    1   22 1
     3    1   23 1
     4    1   24 1
     5    2    3 1
     6    2   25 1
     7    2   26 1
     8    3    4 1
     9    3    5 1
    10    3    6 1
    11    4   27 1
    12    4   28 1
    13    4   29 1
    14    5   30 1
    15    5   31 1
    16    5   32 1
    17    6    7 2
    18    6    8 1
    19    8    9 2
    20    8   10 am
    21   10   15 1
    22   10   11 1
    23   11   12 1
    24   11   33 1
    25   11   34 1
    26   12   13 1
    27   12   35 1
    28   12   36 1
    29   13   14 1
    30   13   37 1
    31   13   38 1
    32   14   15 1
    33   14   39 1
    34   14   40 1
    35   15   16 1
    36   15   17 1
    37   17   18 2
    38   17   19 1
    39   19   20 1
    40   20   21 1
    41   20   41 1
    42   20   42 1
    43   21   43 1
    44   21   44 1
    45   21   45 1
