@<TRIPOS>MOLECULE
ZINC00601274
   66    70     0     0     0
SMALL
USER_CHARGES

@<TRIPOS>ATOM
      1 C1         -0.0173    1.4248    0.0099 C.3       1 <0>         0.0235
      2 O1          0.0021   -0.0041    0.0020 O.3       1 <0>        -0.3122
      3 C2          0.6058   -0.6071   -1.0557 C.ar      1 <0>         0.1470
      4 C3          1.1730    0.1607   -2.0624 C.ar      1 <0>        -0.2069
      5 C4          1.7865   -0.4547   -3.1363 C.ar      1 <0>        -0.0659
      6 C5          1.8352   -1.8346   -3.2086 C.ar      1 <0>        -0.1508
      7 C6          1.2702   -2.6021   -2.2068 C.ar      1 <0>        -0.0670
      8 C7          0.6609   -1.9915   -1.1277 C.ar      1 <0>        -0.1494
      9 C8          2.5046   -2.5033   -4.3815 C.3       1 <0>        -0.0928
     10 C9          3.9857   -2.7227   -4.0663 C.3       1 <0>        -0.0078
     11 N1          4.6383   -3.3746   -5.2096 N.4       1 <0>        -0.3851
     12 C10         4.0698   -4.7148   -5.3968 C.3       1 <0>        -0.0055
     13 C11         4.6882   -5.3670   -6.6352 C.3       1 <0>        -0.1571
     14 C12         6.2039   -5.4757   -6.4451 C.3       1 <0>         0.1653
     15 C13         6.7761   -4.0808   -6.1767 C.3       1 <0>        -0.1624
     16 C14         6.0803   -3.4763   -4.9553 C.3       1 <0>        -0.0018
     17 N2          6.8113   -6.0294   -7.6578 N.pl3     1 <0>        -0.7086
     18 C15         8.0180   -6.6927   -7.5834 C.2       1 <0>         0.5366
     19 N3          8.7020   -6.8894   -6.4840 N.2       1 <0>        -0.5407
     20 C16         9.8394   -7.5757   -6.7708 C.ar      1 <0>         0.0759
     21 C17        10.9029   -8.0392   -5.9923 C.ar      1 <0>        -0.0787
     22 C18        11.9400   -8.7213   -6.5881 C.ar      1 <0>        -0.1163
     23 C19        11.9371   -8.9520   -7.9558 C.ar      1 <0>        -0.1062
     24 C20        10.8945   -8.5005   -8.7384 C.ar      1 <0>        -0.1057
     25 C21         9.8416   -7.8121   -8.1552 C.ar      1 <0>         0.0482
     26 N4          8.6748   -7.2475   -8.6442 N.pl3     1 <0>        -0.5047
     27 C22         8.2299   -7.2439  -10.0400 C.3       1 <0>         0.1559
     28 C23         8.7638   -6.0175  -10.7343 C.ar      1 <0>        -0.1332
     29 C24         8.0277   -4.8473  -10.7325 C.ar      1 <0>        -0.0736
     30 C25         8.5165   -3.7219  -11.3684 C.ar      1 <0>        -0.1551
     31 C26         9.7440   -3.7666  -12.0075 C.ar      1 <0>         0.1157
     32 C27        10.4803   -4.9392  -12.0086 C.ar      1 <0>        -0.1485
     33 C28         9.9919   -6.0618  -11.3675 C.ar      1 <0>        -0.0624
     34 F1         10.2226   -2.6672  -12.6298 F         1 <0>        -0.1319
     35 H1          1.0053    1.8021    0.0021 H         1 <0>         0.0593
     36 H2         -0.5445    1.7859   -0.8732 H         1 <0>         0.0598
     37 H3         -0.5275    1.7763    0.9067 H         1 <0>         0.1079
     38 H4          1.1347    1.2385   -2.0068 H         1 <0>         0.1346
     39 H5          2.2283    0.1425   -3.9203 H         1 <0>         0.1266
     40 H6          1.3092   -3.6798   -2.2657 H         1 <0>         0.1311
     41 H7          0.2237   -2.5913   -0.3432 H         1 <0>         0.1377
     42 H8          2.0276   -3.4646   -4.5726 H         1 <0>         0.0937
     43 H9          2.4108   -1.8695   -5.2632 H         1 <0>         0.0926
     44 H10         4.4627   -1.7615   -3.8752 H         1 <0>         0.1324
     45 H11         4.0795   -3.3566   -3.1846 H         1 <0>         0.1326
     46 H12         4.2840   -5.3256   -4.5198 H         1 <0>         0.1348
     47 H13         2.9906   -4.6361   -5.5288 H         1 <0>         0.1381
     48 H14         4.2661   -6.3627   -6.7714 H         1 <0>         0.1200
     49 H15         4.4743   -4.7571   -7.5129 H         1 <0>         0.0930
     50 H16         6.4192   -6.1271   -5.5981 H         1 <0>         0.1098
     51 H17         7.8464   -4.1571   -5.9852 H         1 <0>         0.1198
     52 H18         6.6055   -3.4442   -7.0449 H         1 <0>         0.0875
     53 H19         6.4855   -2.4832   -4.7614 H         1 <0>         0.1334
     54 H20         6.2517   -4.1135   -4.0877 H         1 <0>         0.1336
     55 H21         6.3646   -5.9295   -8.5130 H         1 <0>         0.4084
     56 H22        10.9118   -7.8627   -4.9269 H         1 <0>         0.1280
     57 H23        12.7621   -9.0790   -5.9860 H         1 <0>         0.1315
     58 H24        12.7565   -9.4883   -8.4111 H         1 <0>         0.1319
     59 H25        10.8985   -8.6827   -9.8029 H         1 <0>         0.1194
     60 H26         8.6021   -8.1367  -10.5423 H         1 <0>         0.1066
     61 H27         7.1405   -7.2353  -10.0741 H         1 <0>         0.0963
     62 H28         7.0701   -4.8127  -10.2343 H         1 <0>         0.1230
     63 H29         7.9411   -2.8079  -11.3672 H         1 <0>         0.1384
     64 H30        11.4378   -4.9753  -12.5070 H         1 <0>         0.1433
     65 H31        10.5681   -6.9753  -11.3644 H         1 <0>         0.1356
     66 H32         4.4825   -2.8261   -6.0421 H         1 <0>         0.4217
@<TRIPOS>BOND
     1    1    2 1
     2    1   35 1
     3    1   36 1
     4    1   37 1
     5    2    3 1
     6    3    8 ar
     7    3    4 ar
     8    4    5 ar
     9    4   38 1
    10    5    6 ar
    11    5   39 1
    12    6    7 ar
    13    6    9 1
    14    7    8 ar
    15    7   40 1
    16    8   41 1
    17    9   10 1
    18    9   42 1
    19    9   43 1
    20   10   11 1
    21   10   44 1
    22   10   45 1
    23   11   16 1
    24   11   12 1
    25   11   66 1
    26   12   13 1
    27   12   46 1
    28   12   47 1
    29   13   14 1
    30   13   48 1
    31   13   49 1
    32   14   15 1
    33   14   17 1
    34   14   50 1
    35   15   16 1
    36   15   51 1
    37   15   52 1
    38   16   53 1
    39   16   54 1
    40   17   18 1
    41   17   55 1
    42   18   26 1
    43   18   19 2
    44   19   20 1
    45   20   25 ar
    46   20   21 ar
    47   21   22 ar
    48   21   56 1
    49   22   23 ar
    50   22   57 1
    51   23   24 ar
    52   23   58 1
    53   24   25 ar
    54   24   59 1
    55   25   26 1
    56   26   27 1
    57   27   28 1
    58   27   60 1
    59   27   61 1
    60   28   33 ar
    61   28   29 ar
    62   29   30 ar
    63   29   62 1
    64   30   31 ar
    65   30   63 1
    66   31   32 ar
    67   31   34 1
    68   32   33 ar
    69   32   64 1
    70   33   65 1
@<TRIPOS>MOLECULE
ZINC00601274
   67    71     0     0     0
SMALL
USER_CHARGES

@<TRIPOS>ATOM
      1 C1         -0.0173    1.4248    0.0099 C.3       1 <0>         0.0224
      2 O1          0.0021   -0.0041    0.0020 O.3       1 <0>        -0.3102
      3 C2          0.6058   -0.6071   -1.0557 C.ar      1 <0>         0.1527
      4 C3          1.1730    0.1607   -2.0624 C.ar      1 <0>        -0.2067
      5 C4          1.7865   -0.4547   -3.1363 C.ar      1 <0>        -0.0644
      6 C5          1.8352   -1.8346   -3.2086 C.ar      1 <0>        -0.1592
      7 C6          1.2702   -2.6021   -2.2068 C.ar      1 <0>        -0.0668
      8 C7          0.6609   -1.9915   -1.1277 C.ar      1 <0>        -0.1497
      9 C8          2.5046   -2.5033   -4.3815 C.3       1 <0>        -0.0905
     10 C9          3.9857   -2.7227   -4.0663 C.3       1 <0>        -0.0094
     11 N1          4.6383   -3.3746   -5.2096 N.4       1 <0>        -0.3874
     12 C10         4.0698   -4.7148   -5.3968 C.3       1 <0>        -0.0091
     13 C11         4.6882   -5.3670   -6.6352 C.3       1 <0>        -0.1548
     14 C12         6.2039   -5.4757   -6.4451 C.3       1 <0>         0.1296
     15 C13         6.7761   -4.0808   -6.1767 C.3       1 <0>        -0.1730
     16 C14         6.0803   -3.4763   -4.9553 C.3       1 <0>        -0.0038
     17 N2          6.8113   -6.0294   -7.6578 N.pl3     1 <0>        -0.6860
     18 C15         8.0180   -6.6927   -7.5834 C.cat     1 <0>         0.6345
     19 N3          8.7020   -6.8894   -6.4840 N.pl3     1 <0>        -0.5322
     20 C16         9.8394   -7.5757   -6.7708 C.ar      1 <0>         0.0552
     21 C17        10.9029   -8.0392   -5.9923 C.ar      1 <0>        -0.0776
     22 C18        11.9400   -8.7213   -6.5881 C.ar      1 <0>        -0.0769
     23 C19        11.9371   -8.9520   -7.9558 C.ar      1 <0>        -0.0650
     24 C20        10.8945   -8.5005   -8.7384 C.ar      1 <0>        -0.0869
     25 C21         9.8416   -7.8121   -8.1552 C.ar      1 <0>         0.0882
     26 N4          8.6748   -7.2475   -8.6442 N.pl3     1 <0>        -0.4526
     27 C22         8.2299   -7.2439  -10.0400 C.3       1 <0>         0.1501
     28 C23         8.7638   -6.0175  -10.7343 C.ar      1 <0>        -0.1610
     29 C24         8.0277   -4.8473  -10.7325 C.ar      1 <0>        -0.0724
     30 C25         8.5165   -3.7219  -11.3684 C.ar      1 <0>        -0.1535
     31 C26         9.7440   -3.7666  -12.0075 C.ar      1 <0>         0.1357
     32 C27        10.4803   -4.9392  -12.0086 C.ar      1 <0>        -0.1459
     33 C28         9.9919   -6.0618  -11.3675 C.ar      1 <0>        -0.0549
     34 F1         10.2226   -2.6672  -12.6298 F         1 <0>        -0.1219
     35 H1          1.0053    1.8021    0.0021 H         1 <0>         0.0601
     36 H2         -0.5445    1.7859   -0.8732 H         1 <0>         0.0614
     37 H3         -0.5275    1.7763    0.9067 H         1 <0>         0.1105
     38 H4          1.1347    1.2385   -2.0068 H         1 <0>         0.1365
     39 H5          2.2283    0.1425   -3.9203 H         1 <0>         0.1263
     40 H6          1.3092   -3.6798   -2.2657 H         1 <0>         0.1297
     41 H7          0.2237   -2.5913   -0.3432 H         1 <0>         0.1391
     42 H8          2.0276   -3.4646   -4.5726 H         1 <0>         0.0931
     43 H9          2.4108   -1.8695   -5.2632 H         1 <0>         0.0939
     44 H10         4.4627   -1.7615   -3.8752 H         1 <0>         0.1369
     45 H11         4.0795   -3.3566   -3.1846 H         1 <0>         0.1350
     46 H12         4.2840   -5.3256   -4.5198 H         1 <0>         0.1385
     47 H13         2.9906   -4.6361   -5.5288 H         1 <0>         0.1499
     48 H14         4.2661   -6.3627   -6.7714 H         1 <0>         0.1306
     49 H15         4.4743   -4.7571   -7.5129 H         1 <0>         0.1071
     50 H16         6.4192   -6.1271   -5.5981 H         1 <0>         0.1090
     51 H17         7.8464   -4.1571   -5.9852 H         1 <0>         0.1147
     52 H18         6.6055   -3.4442   -7.0449 H         1 <0>         0.1086
     53 H19         6.4855   -2.4832   -4.7614 H         1 <0>         0.1451
     54 H20         6.2517   -4.1135   -4.0877 H         1 <0>         0.1361
     55 H21         6.3646   -5.9295   -8.5130 H         1 <0>         0.4377
     56 H22        10.9118   -7.8627   -4.9269 H         1 <0>         0.1509
     57 H23        12.7621   -9.0790   -5.9860 H         1 <0>         0.1582
     58 H24        12.7565   -9.4883   -8.4111 H         1 <0>         0.1585
     59 H25        10.8985   -8.6827   -9.8029 H         1 <0>         0.1493
     60 H26         8.6021   -8.1367  -10.5423 H         1 <0>         0.1352
     61 H27         7.1405   -7.2353  -10.0741 H         1 <0>         0.1167
     62 H28         7.0701   -4.8127  -10.2343 H         1 <0>         0.1232
     63 H29         7.9411   -2.8079  -11.3672 H         1 <0>         0.1451
     64 H30        11.4378   -4.9753  -12.5070 H         1 <0>         0.1509
     65 H31        10.5681   -6.9753  -11.3644 H         1 <0>         0.1400
     66 H32         4.4825   -2.8261   -6.0421 H         1 <0>         0.4261
     67 H33         8.4373   -6.5905   -5.6000 H         1 <0>         0.4497
@<TRIPOS>BOND
     1    1    2 1
     2    1   35 1
     3    1   36 1
     4    1   37 1
     5    2    3 1
     6    3    8 ar
     7    3    4 ar
     8    4    5 ar
     9    4   38 1
    10    5    6 ar
    11    5   39 1
    12    6    7 ar
    13    6    9 1
    14    7    8 ar
    15    7   40 1
    16    8   41 1
    17    9   10 1
    18    9   42 1
    19    9   43 1
    20   10   11 1
    21   10   44 1
    22   10   45 1
    23   11   16 1
    24   11   12 1
    25   11   66 1
    26   12   13 1
    27   12   46 1
    28   12   47 1
    29   13   14 1
    30   13   48 1
    31   13   49 1
    32   14   15 1
    33   14   17 1
    34   14   50 1
    35   15   16 1
    36   15   51 1
    37   15   52 1
    38   16   53 1
    39   16   54 1
    40   17   18 1
    41   17   55 1
    42   18   26 1
    43   18   19 2
    44   19   20 1
    45   19   67 1
    46   20   25 ar
    47   20   21 ar
    48   21   22 ar
    49   21   56 1
    50   22   23 ar
    51   22   57 1
    52   23   24 ar
    53   23   58 1
    54   24   25 ar
    55   24   59 1
    56   25   26 1
    57   26   27 1
    58   27   28 1
    59   27   60 1
    60   27   61 1
    61   28   33 ar
    62   28   29 ar
    63   29   30 ar
    64   29   62 1
    65   30   31 ar
    66   30   63 1
    67   31   32 ar
    68   31   34 1
    69   32   33 ar
    70   32   64 1
    71   33   65 1
@<TRIPOS>MOLECULE
ZINC24613787
   46    45     0     0     0
SMALL
USER_CHARGES
[(1R,2E,6E)-1-hydroxy-3,7,11-trimethyl-dodeca-2,6,10-trienyl]phosphonic acid
@<TRIPOS>ATOM
      1 C1          2.9327   -1.9440   -7.8366 C.3       1 <0>        -0.1197
      2 C2          3.9804   -3.0245   -7.9127 C.2       1 <0>        -0.1392
      3 C3          4.6172   -3.3968   -6.8302 C.2       1 <0>        -0.1625
      4 C4          4.4084   -2.6493   -5.5384 C.3       1 <0>        -0.0913
      5 C5          3.7955   -3.5894   -4.4985 C.3       1 <0>        -0.0733
      6 C6          3.5867   -2.8419   -3.2067 C.2       1 <0>        -0.1327
      7 C7          2.4232   -2.3001   -2.9442 C.2       1 <0>        -0.1568
      8 C8          2.2379   -1.4832   -1.6915 C.3       1 <0>        -0.0992
      9 C9          1.6755   -0.1082   -2.0578 C.3       1 <0>        -0.0678
     10 C10         1.4902    0.7087   -0.8050 C.2       1 <0>        -0.1427
     11 C11         2.4264    1.5406   -0.4210 C.2       1 <0>        -0.1308
     12 C12         2.2948    2.2695    0.8914 C.3       1 <0>        -0.4567
     13 H1          1.2371    2.1626    1.1741 H         1 <0>         0.0688
     14 O1          2.3842    3.6776    0.6652 O.3       1 <0>        -0.5829
     15 P1          3.6338    1.7479    2.0131 P.3       1 <0>         2.2676
     16 O2          4.9428    2.0671    1.4007 O.2       1 <0>        -1.0748
     17 O3          3.4931    2.5266    3.4152 O.3       1 <0>        -1.1117
     18 O4          3.5330    0.1614    2.2679 O.3       1 <0>        -0.9330
     19 C13         0.2277    0.5686    0.0060 C.3       1 <0>        -0.1280
     20 C14         4.7163   -2.7176   -2.2170 C.3       1 <0>        -0.1350
     21 C15         4.2956   -3.6768   -9.2342 C.3       1 <0>        -0.1171
     22 H2          2.5119   -1.7701   -8.8380 H         1 <0>         0.0577
     23 H3          3.3901   -1.0153   -7.4647 H         1 <0>         0.0672
     24 H4          2.1313   -2.2579   -7.1516 H         1 <0>         0.0661
     25 H5          5.3044   -4.2551   -6.8641 H         1 <0>         0.1084
     26 H6          5.3755   -2.2760   -5.1704 H         1 <0>         0.0727
     27 H7          3.7296   -1.8011   -5.7111 H         1 <0>         0.0724
     28 H8          2.8285   -3.9627   -4.8665 H         1 <0>         0.0639
     29 H9          4.4743   -4.4376   -4.3257 H         1 <0>         0.0662
     30 H10         1.5815   -2.4415   -3.6382 H         1 <0>         0.1056
     31 H11         1.5372   -1.9984   -1.0181 H         1 <0>         0.0701
     32 H12         3.2077   -1.3602   -1.1871 H         1 <0>         0.0865
     33 H13         2.3763    0.4070   -2.7312 H         1 <0>         0.0658
     34 H14         0.7057   -0.2312   -2.5622 H         1 <0>         0.0637
     35 H15         3.3087    1.7071   -1.0565 H         1 <0>         0.1154
     36 H16         2.3093    4.3764    1.5114 H         1 <0>         0.4034
     37 H17         4.2618   -0.3378    2.9234 H         1 <0>         0.4442
     38 H18         0.2749    1.2393    0.8766 H         1 <0>         0.0712
     39 H19         0.1261   -0.4715    0.3494 H         1 <0>         0.0649
     40 H20        -0.6393    0.8357   -0.6161 H         1 <0>         0.0592
     41 H21         4.3764   -2.1427   -1.3429 H         1 <0>         0.0807
     42 H22         5.5630   -2.1989   -2.6903 H         1 <0>         0.0639
     43 H23         5.0340   -3.7204   -1.8954 H         1 <0>         0.0635
     44 H24         5.0796   -4.4350   -9.0911 H         1 <0>         0.0594
     45 H25         4.6480   -2.9144   -9.9446 H         1 <0>         0.0649
     46 H26         3.3892   -4.1571   -9.6314 H         1 <0>         0.0621
@<TRIPOS>BOND
     1    1    2 1
     2    1   22 1
     3    1   23 1
     4    1   24 1
     5    2    3 2
     6    2   21 1
     7    3    4 1
     8    3   25 1
     9    4    5 1
    10    4   26 1
    11    4   27 1
    12    5    6 1
    13    5   28 1
    14    5   29 1
    15    6    7 2
    16    6   20 1
    17    7    8 1
    18    7   30 1
    19    8    9 1
    20    8   31 1
    21    8   32 1
    22    9   10 1
    23    9   33 1
    24    9   34 1
    25   10   11 2
    26   10   19 1
    27   11   12 1
    28   11   35 1
    29   12   13 1
    30   12   14 1
    31   12   15 1
    32   14   36 1
    33   15   16 2
    34   15   17 1
    35   15   18 1
    36   18   37 1
    37   19   38 1
    38   19   39 1
    39   19   40 1
    40   20   41 1
    41   20   42 1
    42   20   43 1
    43   21   44 1
    44   21   45 1
    45   21   46 1
@<TRIPOS>MOLECULE
ZINC24789264
   46    45     0     0     0
SMALL
USER_CHARGES
[(1S,2E,6E)-1-hydroxy-3,7,11-trimethyl-dodeca-2,6,10-trienyl]phosphonic acid
@<TRIPOS>ATOM
      1 C1         -4.4551    4.0734    8.6477 C.3       1 <0>        -0.1210
      2 C2         -5.8732    4.1537    8.1442 C.2       1 <0>        -0.1368
      3 C3         -6.1116    4.1600    6.8561 C.2       1 <0>        -0.1645
      4 C4         -4.9659    4.1250    5.8777 C.3       1 <0>        -0.0919
      5 C5         -5.0353    2.8356    5.0570 C.3       1 <0>        -0.0718
      6 C6         -3.8897    2.8006    4.0786 C.2       1 <0>        -0.1355
      7 C7         -2.7821    2.1738    4.3890 C.2       1 <0>        -0.1536
      8 C8         -1.5965    2.2342    3.4606 C.3       1 <0>        -0.0965
      9 C9         -0.3890    2.7989    4.2115 C.3       1 <0>        -0.0695
     10 C10         0.7965    2.8593    3.2831 C.2       1 <0>        -0.1366
     11 C11         1.0709    3.9685    2.6424 C.2       1 <0>        -0.1125
     12 C12         2.3396    4.0792    1.8366 C.3       1 <0>        -0.4602
     13 H1          2.7726    3.0680    1.8429 H         1 <0>         0.0691
     14 O1          2.0136    4.2366    0.4542 O.3       1 <0>        -0.5906
     15 P1          3.2957    5.5239    2.4039 P.3       1 <0>         2.2623
     16 O2          2.4884    6.7513    2.2241 O.2       1 <0>        -1.0734
     17 O3          3.6629    5.3466    3.9614 O.3       1 <0>        -1.1036
     18 O4          4.6511    5.6422    1.5430 O.3       1 <0>        -0.9393
     19 C13         1.6664    1.6437    3.0918 C.3       1 <0>        -0.1248
     20 C14        -4.0183    3.4867    2.7430 C.3       1 <0>        -0.1325
     21 C15        -7.0171    4.2267    9.1226 C.3       1 <0>        -0.1172
     22 H2         -4.4557    4.0800    9.7477 H         1 <0>         0.0582
     23 H3         -3.8846    4.9374    8.2761 H         1 <0>         0.0692
     24 H4         -3.9900    3.1442    8.2868 H         1 <0>         0.0668
     25 H5         -7.1480    4.1908    6.4887 H         1 <0>         0.1071
     26 H6         -5.0322    4.9923    5.2043 H         1 <0>         0.0711
     27 H7         -4.0135    4.1592    6.4270 H         1 <0>         0.0749
     28 H8         -4.9690    1.9683    5.7304 H         1 <0>         0.0645
     29 H9         -5.9877    2.8013    4.5078 H         1 <0>         0.0644
     30 H10        -2.7174    1.6034    5.3273 H         1 <0>         0.1079
     31 H11        -1.3626    1.2223    3.0983 H         1 <0>         0.0656
     32 H12        -1.8332    2.8842    2.6053 H         1 <0>         0.0797
     33 H13        -0.6230    3.8108    4.5738 H         1 <0>         0.0720
     34 H14        -0.1523    2.1489    5.0667 H         1 <0>         0.0677
     35 H15         0.3753    4.8191    2.6926 H         1 <0>         0.1164
     36 H16         2.8156    4.3343   -0.2923 H         1 <0>         0.3894
     37 H17         5.3605    6.4586    1.7435 H         1 <0>         0.4469
     38 H18         2.4745    1.8789    2.3835 H         1 <0>         0.0686
     39 H19         1.0592    0.8172    2.6940 H         1 <0>         0.0578
     40 H20         2.1005    1.3477    4.0582 H         1 <0>         0.0644
     41 H21        -3.0881    3.3532    2.1712 H         1 <0>         0.0762
     42 H22        -4.2024    4.5600    2.8984 H         1 <0>         0.0640
     43 H23        -4.8582    3.0476    2.1846 H         1 <0>         0.0615
     44 H24        -7.9678    4.2793    8.5719 H         1 <0>         0.0585
     45 H25        -6.9065    5.1236    9.7497 H         1 <0>         0.0645
     46 H26        -7.0118    3.3305    9.7604 H         1 <0>         0.0631
@<TRIPOS>BOND
     1    1    2 1
     2    1   22 1
     3    1   23 1
     4    1   24 1
     5    2    3 2
     6    2   21 1
     7    3    4 1
     8    3   25 1
     9    4    5 1
    10    4   26 1
    11    4   27 1
    12    5    6 1
    13    5   28 1
    14    5   29 1
    15    6    7 2
    16    6   20 1
    17    7    8 1
    18    7   30 1
    19    8    9 1
    20    8   31 1
    21    8   32 1
    22    9   10 1
    23    9   33 1
    24    9   34 1
    25   10   11 2
    26   10   19 1
    27   11   12 1
    28   11   35 1
    29   12   13 1
    30   12   14 1
    31   12   15 1
    32   14   36 1
    33   15   16 2
    34   15   17 1
    35   15   18 1
    36   18   37 1
    37   19   38 1
    38   19   39 1
    39   19   40 1
    40   20   41 1
    41   20   42 1
    42   20   43 1
    43   21   44 1
    44   21   45 1
    45   21   46 1
@<TRIPOS>MOLECULE
ZINC53070632
   49    52     0     0     0
SMALL
USER_CHARGES

@<TRIPOS>ATOM
      1 C1          0.1172    1.6508   -1.0405 C.ar      1 <0>        -0.0950
      2 C2          1.3282    2.3156   -1.0379 C.ar      1 <0>        -0.0996
      3 C3          2.1971    2.1693    0.0353 C.ar      1 <0>         0.1482
      4 C4          1.8460    1.3545    1.1036 C.ar      1 <0>        -0.1090
      5 C5          0.6332    0.6919    1.0955 C.ar      1 <0>        -0.0255
      6 C6         -0.2305    0.8401    0.0240 C.ar      1 <0>        -0.1078
      7 Cl1         0.1928   -0.3275    2.4299 Cl        1 <0>        -0.0626
      8 N1          3.4245    2.8413    0.0400 N.am      1 <0>        -0.5626
      9 C7          4.6501    2.0559   -0.0734 C.3       1 <0>         0.1194
     10 C8          5.8122    2.9560   -0.4973 C.3       1 <0>         0.0339
     11 N2          5.8446    4.1333    0.3856 N.3       1 <0>        -0.5307
     12 C9          4.6821    4.9932    0.1262 C.3       1 <0>         0.0436
     13 C10         3.4224    4.1745    0.1428 C.2       1 <0>         0.5253
     14 O1          2.3593    4.7467    0.2590 O.2       1 <0>        -0.5257
     15 C11         7.0989    4.8802    0.2214 C.3       1 <0>         0.1243
     16 C12         7.2798    5.8203    1.3851 C.2       1 <0>        -0.0173
     17 C13         6.9108    7.1145    1.4365 C.2       1 <0>        -0.0153
     18 N3          7.2472    7.5943    2.6430 N.2       1 <0>        -0.4893
     19 C14         7.8107    6.6467    3.3412 C.2       1 <0>         0.1903
     20 N4          7.8453    5.5214    2.5953 N.pl3     1 <0>        -0.4424
     21 C15         8.3895    4.2240    3.0038 C.3       1 <0>         0.1420
     22 C16         9.8051    4.0932    2.5039 C.ar      1 <0>        -0.0864
     23 C17        10.0571    3.4323    1.3147 C.ar      1 <0>        -0.1030
     24 C18        11.3505    3.3088    0.8512 C.ar      1 <0>        -0.0693
     25 C19        12.4065    3.8530    1.5849 C.ar      1 <0>        -0.0149
     26 C20        12.1450    4.5191    2.7840 C.ar      1 <0>        -0.0677
     27 C21        10.8463    4.6394    3.2333 C.ar      1 <0>        -0.0977
     28 C22        13.7518    3.7283    1.1101 C.1       1 <0>         0.2456
     29 N5         14.8189    3.6293    0.7334 N.1       1 <0>        -0.4036
     30 H1         -0.5606    1.7680   -1.8730 H         1 <0>         0.1387
     31 H2          1.5990    2.9483   -1.8702 H         1 <0>         0.1283
     32 H3          2.5199    1.2386    1.9395 H         1 <0>         0.1355
     33 H4         -1.1779    0.3218    0.0197 H         1 <0>         0.1379
     34 H5          4.8783    1.6006    0.8903 H         1 <0>         0.0788
     35 H6          4.5098    1.2720   -0.8176 H         1 <0>         0.0863
     36 H7          6.7501    2.4076   -0.4097 H         1 <0>         0.1017
     37 H8          5.6687    3.2767   -1.5291 H         1 <0>         0.0541
     38 H9          4.6249    5.7654    0.8933 H         1 <0>         0.1213
     39 H10         4.7908    5.4635   -0.8511 H         1 <0>         0.0794
     40 H11         7.9352    4.1821    0.1848 H         1 <0>         0.0900
     41 H12         7.0624    5.4523   -0.7057 H         1 <0>         0.0692
     42 H13         6.4285    7.6688    0.6450 H         1 <0>         0.1658
     43 H14         8.1838    6.7449    4.3499 H         1 <0>         0.2043
     44 H15         8.3802    4.1523    4.0914 H         1 <0>         0.1084
     45 H16         7.7798    3.4252    2.5817 H         1 <0>         0.1081
     46 H17         9.2394    3.0119    0.7482 H         1 <0>         0.1339
     47 H18        11.5459    2.7921   -0.0768 H         1 <0>         0.1372
     48 H19        12.9572    4.9423    3.3564 H         1 <0>         0.1376
     49 H20        10.6421    5.1578    4.1585 H         1 <0>         0.1362
@<TRIPOS>BOND
     1    1    6 ar
     2    1    2 ar
     3    1   30 1
     4    2    3 ar
     5    2   31 1
     6    3    4 ar
     7    3    8 1
     8    4    5 ar
     9    4   32 1
    10    5    6 ar
    11    5    7 1
    12    6   33 1
    13    8   13 am
    14    8    9 1
    15    9   10 1
    16    9   34 1
    17    9   35 1
    18   10   11 1
    19   10   36 1
    20   10   37 1
    21   11   12 1
    22   11   15 1
    23   12   13 1
    24   12   38 1
    25   12   39 1
    26   13   14 2
    27   15   16 1
    28   15   40 1
    29   15   41 1
    30   16   20 1
    31   16   17 2
    32   17   18 1
    33   17   42 1
    34   18   19 2
    35   19   20 1
    36   19   43 1
    37   20   21 1
    38   21   22 1
    39   21   44 1
    40   21   45 1
    41   22   27 ar
    42   22   23 ar
    43   23   24 ar
    44   23   46 1
    45   24   25 ar
    46   24   47 1
    47   25   26 ar
    48   25   28 1
    49   26   27 ar
    50   26   48 1
    51   27   49 1
    52   28   29 3
@<TRIPOS>MOLECULE
ZINC53070632
   50    53     0     0     0
SMALL
USER_CHARGES

@<TRIPOS>ATOM
      1 C1          0.1172    1.6508   -1.0405 C.ar      1 <0>        -0.0928
      2 C2          1.3282    2.3156   -1.0379 C.ar      1 <0>        -0.0984
      3 C3          2.1971    2.1693    0.0353 C.ar      1 <0>         0.1382
      4 C4          1.8460    1.3545    1.1036 C.ar      1 <0>        -0.1082
      5 C5          0.6332    0.6919    1.0955 C.ar      1 <0>        -0.0258
      6 C6         -0.2305    0.8401    0.0240 C.ar      1 <0>        -0.1022
      7 Cl1         0.1928   -0.3275    2.4299 Cl        1 <0>        -0.0567
      8 N1          3.4245    2.8413    0.0400 N.am      1 <0>        -0.5579
      9 C7          4.6501    2.0559   -0.0734 C.3       1 <0>         0.1161
     10 C8          5.8122    2.9560   -0.4973 C.3       1 <0>         0.0350
     11 N2          5.8446    4.1333    0.3856 N.3       1 <0>        -0.5333
     12 C9          4.6821    4.9932    0.1262 C.3       1 <0>         0.0384
     13 C10         3.4224    4.1745    0.1428 C.2       1 <0>         0.5210
     14 O1          2.3593    4.7467    0.2590 O.2       1 <0>        -0.5193
     15 C11         7.0989    4.8802    0.2214 C.3       1 <0>         0.1034
     16 C12         7.2798    5.8203    1.3851 C.2       1 <0>         0.0651
     17 C13         6.9108    7.1145    1.4365 C.2       1 <0>         0.0071
     18 N3          7.2472    7.5943    2.6430 N.pl3     1 <0>        -0.4724
     19 C14         7.8107    6.6467    3.3412 C.cat     1 <0>         0.2935
     20 N4          7.8453    5.5214    2.5953 N.pl3     1 <0>        -0.3930
     21 C15         8.3895    4.2240    3.0038 C.3       1 <0>         0.1359
     22 C16         9.8051    4.0932    2.5039 C.ar      1 <0>        -0.1190
     23 C17        10.0571    3.4323    1.3147 C.ar      1 <0>        -0.0946
     24 C18        11.3505    3.3088    0.8512 C.ar      1 <0>        -0.0677
     25 C19        12.4065    3.8530    1.5849 C.ar      1 <0>         0.0123
     26 C20        12.1450    4.5191    2.7840 C.ar      1 <0>        -0.0678
     27 C21        10.8463    4.6394    3.2333 C.ar      1 <0>        -0.0946
     28 C22        13.7518    3.7283    1.1101 C.1       1 <0>         0.2287
     29 N5         14.8189    3.6293    0.7334 N.1       1 <0>        -0.3775
     30 H1         -0.5606    1.7680   -1.8730 H         1 <0>         0.1413
     31 H2          1.5990    2.9483   -1.8702 H         1 <0>         0.1283
     32 H3          2.5199    1.2386    1.9395 H         1 <0>         0.1346
     33 H4         -1.1779    0.3218    0.0197 H         1 <0>         0.1409
     34 H5          4.8783    1.6006    0.8903 H         1 <0>         0.0822
     35 H6          4.5098    1.2720   -0.8176 H         1 <0>         0.0937
     36 H7          6.7501    2.4076   -0.4097 H         1 <0>         0.1082
     37 H8          5.6687    3.2767   -1.5291 H         1 <0>         0.0637
     38 H9          4.6249    5.7654    0.8933 H         1 <0>         0.1133
     39 H10         4.7908    5.4635   -0.8511 H         1 <0>         0.0867
     40 H11         7.9352    4.1821    0.1848 H         1 <0>         0.1131
     41 H12         7.0624    5.4523   -0.7057 H         1 <0>         0.0940
     42 H13         6.4285    7.6688    0.6450 H         1 <0>         0.2215
     43 H14         8.1838    6.7449    4.3499 H         1 <0>         0.2612
     44 H15         8.3802    4.1523    4.0914 H         1 <0>         0.1344
     45 H16         7.7798    3.4252    2.5817 H         1 <0>         0.1370
     46 H17         9.2394    3.0119    0.7482 H         1 <0>         0.1383
     47 H18        11.5459    2.7921   -0.0768 H         1 <0>         0.1450
     48 H19        12.9572    4.9423    3.3564 H         1 <0>         0.1443
     49 H20        10.6421    5.1578    4.1585 H         1 <0>         0.1384
     50 H21         7.0959    8.5025    2.9483 H         1 <0>         0.4664
@<TRIPOS>BOND
     1    1    6 ar
     2    1    2 ar
     3    1   30 1
     4    2    3 ar
     5    2   31 1
     6    3    4 ar
     7    3    8 1
     8    4    5 ar
     9    4   32 1
    10    5    6 ar
    11    5    7 1
    12    6   33 1
    13    8   13 am
    14    8    9 1
    15    9   10 1
    16    9   34 1
    17    9   35 1
    18   10   11 1
    19   10   36 1
    20   10   37 1
    21   11   12 1
    22   11   15 1
    23   12   13 1
    24   12   38 1
    25   12   39 1
    26   13   14 2
    27   15   16 1
    28   15   40 1
    29   15   41 1
    30   16   20 1
    31   16   17 2
    32   17   18 1
    33   17   42 1
    34   18   19 2
    35   18   50 1
    36   19   20 1
    37   19   43 1
    38   20   21 1
    39   21   22 1
    40   21   44 1
    41   21   45 1
    42   22   27 ar
    43   22   23 ar
    44   23   24 ar
    45   23   46 1
    46   24   25 ar
    47   24   47 1
    48   25   26 ar
    49   25   28 1
    50   26   27 ar
    51   26   48 1
    52   27   49 1
    53   28   29 3
@<TRIPOS>MOLECULE
ZINC24809155
   56    60     0     0     0
SMALL
USER_CHARGES
6-[(R)-amino-(4-chlorophenyl)-(3-methylimidazol-4-yl)methyl]-4-(3-chlorophenyl)-1-methyl-quinolin-2-one
@<TRIPOS>ATOM
      1 C1          4.0958    4.0587    5.4913 C.3       1 <0>         0.0622
      2 N1          3.9399    5.4291    5.9851 N.pl3     1 <0>        -0.4500
      3 C2          4.8140    6.1056    6.7610 C.2       1 <0>         0.1876
      4 N2          4.3316    7.2953    6.9954 N.2       1 <0>        -0.4896
      5 C3          3.1469    7.4215    6.3792 C.2       1 <0>        -0.0049
      6 C4          2.8811    6.2631    5.7461 C.2       1 <0>        -0.0086
      7 C5          1.6564    5.9478    4.9264 C.3       1 <0>         0.2804
      8 C6          0.6824    7.0941    5.0172 C.ar      1 <0>        -0.0692
      9 C7          0.9485    8.2806    4.3595 C.ar      1 <0>        -0.0934
     10 C8          0.0528    9.3303    4.4378 C.ar      1 <0>        -0.1113
     11 C9         -1.1048    9.1974    5.1838 C.ar      1 <0>        -0.0278
     12 C10        -1.3678    8.0117    5.8464 C.ar      1 <0>        -0.1120
     13 C11        -0.4741    6.9607    5.7628 C.ar      1 <0>        -0.0777
     14 Cl1        -2.2271   10.5178    5.2879 Cl        1 <0>        -0.0683
     15 C12         2.0546    5.7396    3.4880 C.ar      1 <0>        -0.1439
     16 C13         3.0894    6.4884    2.9450 C.ar      1 <0>        -0.0472
     17 C14         3.4695    6.3133    1.6319 C.ar      1 <0>        -0.1558
     18 C15         2.8099    5.3778    0.8412 C.ar      1 <0>         0.1945
     19 C16         1.7627    4.6216    1.3961 C.ar      1 <0>        -0.1121
     20 C17         1.3939    4.8146    2.7289 C.ar      1 <0>        -0.0523
     21 C18         1.0731    3.6339    0.5505 C.2       1 <0>         0.0499
     22 C19         1.4866    3.4887   -0.7471 C.2       1 <0>        -0.1941
     23 C20         2.5376    4.2797   -1.2449 C.2       1 <0>         0.5342
     24 O1          2.8876    4.1391   -2.4044 O.2       1 <0>        -0.5306
     25 N3          3.1702    5.1824   -0.4762 N.am      1 <0>        -0.5207
     26 C21         4.2624    5.9739   -1.0478 C.3       1 <0>         0.0529
     27 C22        -0.0345    2.8143    1.0903 C.ar      1 <0>        -0.0525
     28 C23         0.1082    1.4304    1.2027 C.ar      1 <0>        -0.0918
     29 C24        -0.9275    0.6715    1.7070 C.ar      1 <0>        -0.1016
     30 C25        -2.1084    1.2784    2.0963 C.ar      1 <0>        -0.0987
     31 C26        -2.2549    2.6512    1.9925 C.ar      1 <0>        -0.0325
     32 C27        -1.2254    3.4218    1.4892 C.ar      1 <0>        -0.0917
     33 Cl2        -3.7381    3.4044    2.4892 Cl        1 <0>        -0.0577
     34 N4          1.0240    4.7259    5.4412 N.3       1 <0>        -0.8117
     35 H1          5.0501    3.6459    5.8504 H         1 <0>         0.0971
     36 H2          4.0886    4.0623    4.3913 H         1 <0>         0.0794
     37 H3          3.2658    3.4390    5.8614 H         1 <0>         0.0842
     38 H4          5.7563    5.7252    7.1267 H         1 <0>         0.2057
     39 H5          2.5155    8.2977    6.3911 H         1 <0>         0.1665
     40 H6          1.8542    8.3857    3.7808 H         1 <0>         0.1301
     41 H7          0.2586   10.2557    3.9203 H         1 <0>         0.1347
     42 H8         -2.2711    7.9076    6.4292 H         1 <0>         0.1350
     43 H9         -0.6791    6.0352    6.2803 H         1 <0>         0.1462
     44 H10         3.6020    7.2152    3.5577 H         1 <0>         0.1345
     45 H11         4.2759    6.9006    1.2180 H         1 <0>         0.1395
     46 H12         0.5897    4.2356    3.1583 H         1 <0>         0.1337
     47 H13         1.0020    2.7689   -1.3901 H         1 <0>         0.1587
     48 H14         4.4111    5.6878   -2.0995 H         1 <0>         0.1068
     49 H15         5.1868    5.7853   -0.4823 H         1 <0>         0.0780
     50 H16         4.0093    7.0429   -0.9908 H         1 <0>         0.0788
     51 H17         1.0279    0.9547    0.8957 H         1 <0>         0.1342
     52 H18        -0.8180   -0.3994    1.7939 H         1 <0>         0.1394
     53 H19        -2.9177    0.6791    2.4866 H         1 <0>         0.1384
     54 H20        -1.3416    4.4923    1.4050 H         1 <0>         0.1372
     55 H21         0.1301    4.4957    4.8429 H         1 <0>         0.3476
     56 H22         1.7350    3.8892    5.3749 H         1 <0>         0.3401
@<TRIPOS>BOND
     1    1    2 1
     2    1   35 1
     3    1   36 1
     4    1   37 1
     5    2    6 1
     6    2    3 1
     7    3    4 2
     8    3   38 1
     9    4    5 1
    10    5    6 2
    11    5   39 1
    12    6    7 1
    13    7    8 1
    14    7   15 1
    15    7   34 1
    16    8   13 ar
    17    8    9 ar
    18    9   10 ar
    19    9   40 1
    20   10   11 ar
    21   10   41 1
    22   11   12 ar
    23   11   14 1
    24   12   13 ar
    25   12   42 1
    26   13   43 1
    27   15   20 ar
    28   15   16 ar
    29   16   17 ar
    30   16   44 1
    31   17   18 ar
    32   17   45 1
    33   18   25 1
    34   18   19 ar
    35   19   20 ar
    36   19   21 1
    37   20   46 1
    38   21   22 2
    39   21   27 1
    40   22   23 1
    41   22   47 1
    42   23   24 2
    43   23   25 am
    44   25   26 1
    45   26   48 1
    46   26   49 1
    47   26   50 1
    48   27   32 ar
    49   27   28 ar
    50   28   29 ar
    51   28   51 1
    52   29   30 ar
    53   29   52 1
    54   30   31 ar
    55   30   53 1
    56   31   32 ar
    57   31   33 1
    58   32   54 1
    59   34   55 1
    60   34   56 1
@<TRIPOS>MOLECULE
ZINC24809155
   57    61     0     0     0
SMALL
USER_CHARGES
6-[(R)-amino-(4-chlorophenyl)-(3-methylimidazol-4-yl)methyl]-4-(3-chlorophenyl)-1-methyl-quinolin-2-one
@<TRIPOS>ATOM
      1 C1          4.0958    4.0587    5.4913 C.3       1 <0>         0.0431
      2 N1          3.9399    5.4291    5.9851 N.pl3     1 <0>        -0.4008
      3 C2          4.8140    6.1056    6.7610 C.cat     1 <0>         0.2791
      4 N2          4.3316    7.2953    6.9954 N.pl3     1 <0>        -0.4888
      5 C3          3.1469    7.4215    6.3792 C.2       1 <0>         0.0261
      6 C4          2.8811    6.2631    5.7461 C.2       1 <0>         0.0710
      7 C5          1.6564    5.9478    4.9264 C.3       1 <0>         0.2787
      8 C6          0.6824    7.0941    5.0172 C.ar      1 <0>        -0.0982
      9 C7          0.9485    8.2806    4.3595 C.ar      1 <0>        -0.0994
     10 C8          0.0528    9.3303    4.4378 C.ar      1 <0>        -0.1092
     11 C9         -1.1048    9.1974    5.1838 C.ar      1 <0>        -0.0198
     12 C10        -1.3678    8.0117    5.8464 C.ar      1 <0>        -0.1079
     13 C11        -0.4741    6.9607    5.7628 C.ar      1 <0>        -0.0717
     14 Cl1        -2.2271   10.5178    5.2879 Cl        1 <0>        -0.0511
     15 C12         2.0546    5.7396    3.4880 C.ar      1 <0>        -0.1672
     16 C13         3.0894    6.4884    2.9450 C.ar      1 <0>        -0.0635
     17 C14         3.4695    6.3133    1.6319 C.ar      1 <0>        -0.1494
     18 C15         2.8099    5.3778    0.8412 C.ar      1 <0>         0.2044
     19 C16         1.7627    4.6216    1.3961 C.ar      1 <0>        -0.1037
     20 C17         1.3939    4.8146    2.7289 C.ar      1 <0>        -0.0413
     21 C18         1.0731    3.6339    0.5505 C.2       1 <0>         0.0420
     22 C19         1.4866    3.4887   -0.7471 C.2       1 <0>        -0.1803
     23 C20         2.5376    4.2797   -1.2449 C.2       1 <0>         0.5323
     24 O1          2.8876    4.1391   -2.4044 O.2       1 <0>        -0.5147
     25 N3          3.1702    5.1824   -0.4762 N.am      1 <0>        -0.5221
     26 C21         4.2624    5.9739   -1.0478 C.3       1 <0>         0.0504
     27 C22        -0.0345    2.8143    1.0903 C.ar      1 <0>        -0.0580
     28 C23         0.1082    1.4304    1.2027 C.ar      1 <0>        -0.0913
     29 C24        -0.9275    0.6715    1.7070 C.ar      1 <0>        -0.0996
     30 C25        -2.1084    1.2784    2.0963 C.ar      1 <0>        -0.0954
     31 C26        -2.2549    2.6512    1.9925 C.ar      1 <0>        -0.0334
     32 C27        -1.2254    3.4218    1.4892 C.ar      1 <0>        -0.0940
     33 Cl2        -3.7381    3.4044    2.4892 Cl        1 <0>        -0.0542
     34 N4          1.0240    4.7259    5.4412 N.3       1 <0>        -0.8135
     35 H1          5.0501    3.6459    5.8504 H         1 <0>         0.1240
     36 H2          4.0886    4.0623    4.3913 H         1 <0>         0.1124
     37 H3          3.2658    3.4390    5.8614 H         1 <0>         0.1159
     38 H4          5.7563    5.7252    7.1267 H         1 <0>         0.2604
     39 H5          2.5155    8.2977    6.3911 H         1 <0>         0.2175
     40 H6          1.8542    8.3857    3.7808 H         1 <0>         0.1316
     41 H7          0.2586   10.2557    3.9203 H         1 <0>         0.1399
     42 H8         -2.2711    7.9076    6.4292 H         1 <0>         0.1414
     43 H9         -0.6791    6.0352    6.2803 H         1 <0>         0.1498
     44 H10         3.6020    7.2152    3.5577 H         1 <0>         0.1253
     45 H11         4.2759    6.9006    1.2180 H         1 <0>         0.1429
     46 H12         0.5897    4.2356    3.1583 H         1 <0>         0.1371
     47 H13         1.0020    2.7689   -1.3901 H         1 <0>         0.1633
     48 H14         4.4111    5.6878   -2.0995 H         1 <0>         0.1106
     49 H15         5.1868    5.7853   -0.4823 H         1 <0>         0.0792
     50 H16         4.0093    7.0429   -0.9908 H         1 <0>         0.0806
     51 H17         1.0279    0.9547    0.8957 H         1 <0>         0.1349
     52 H18        -0.8180   -0.3994    1.7939 H         1 <0>         0.1415
     53 H19        -2.9177    0.6791    2.4866 H         1 <0>         0.1406
     54 H20        -1.3416    4.4923    1.4050 H         1 <0>         0.1363
     55 H21         0.1301    4.4957    4.8429 H         1 <0>         0.3696
     56 H22         1.7350    3.8892    5.3749 H         1 <0>         0.3422
     57 H23         4.8965    8.0051    7.6175 H         1 <0>         0.5045
@<TRIPOS>BOND
     1    1    2 1
     2    1   35 1
     3    1   36 1
     4    1   37 1
     5    2    6 1
     6    2    3 1
     7    3    4 2
     8    3   38 1
     9    4    5 1
    10    4   57 1
    11    5    6 2
    12    5   39 1
    13    6    7 1
    14    7    8 1
    15    7   15 1
    16    7   34 1
    17    8   13 ar
    18    8    9 ar
    19    9   10 ar
    20    9   40 1
    21   10   11 ar
    22   10   41 1
    23   11   12 ar
    24   11   14 1
    25   12   13 ar
    26   12   42 1
    27   13   43 1
    28   15   20 ar
    29   15   16 ar
    30   16   17 ar
    31   16   44 1
    32   17   18 ar
    33   17   45 1
    34   18   25 1
    35   18   19 ar
    36   19   20 ar
    37   19   21 1
    38   20   46 1
    39   21   22 2
    40   21   27 1
    41   22   23 1
    42   22   47 1
    43   23   24 2
    44   23   25 am
    45   25   26 1
    46   26   48 1
    47   26   49 1
    48   26   50 1
    49   27   32 ar
    50   27   28 ar
    51   28   29 ar
    52   28   51 1
    53   29   30 ar
    54   29   52 1
    55   30   31 ar
    56   30   53 1
    57   31   32 ar
    58   31   33 1
    59   32   54 1
    60   34   55 1
    61   34   56 1
@<TRIPOS>MOLECULE
ZINC03950115
   67    71     0     0     0
SMALL
USER_CHARGES
4-[[4-(dibromo-chloro-BLAHyl)-1-piperidyl]carbonylmethyl]-N,N-bis[4-[[4-(dibromo-chloro-BLAHyl)-1-piperidyl]carbonylmethyl]-6-piperidyl]-piperidine-1-carboxamide
@<TRIPOS>ATOM
      1 C1          2.6466    3.4123    1.3119 C.ar      1 <0>        -0.0983
      2 C2          1.8873    4.5307    1.5449 C.ar      1 <0>        -0.0346
      3 C3          0.5476    4.5160    1.1970 C.ar      1 <0>        -0.0733
      4 C4          0.0142    3.3639    0.6759 C.ar      1 <0>        -0.0939
      5 C5          0.7962    2.2041    0.4804 C.ar      1 <0>        -0.0126
      6 C6          2.1013    2.2410    0.7390 C.ar      1 <0>        -0.0530
      7 C7          3.2036    1.2280    0.5083 C.3       1 <0>        -0.0745
      8 C8          2.8628   -0.1745    0.9057 C.3       1 <0>        -0.0711
      9 C9          1.7017   -0.7812    0.1507 C.ar      1 <0>        -0.1148
     10 C10         2.0114   -2.1203   -0.1993 C.ar      1 <0>        -0.0475
     11 C11         1.0559   -2.9244   -0.7767 C.ar      1 <0>        -0.1526
     12 C12        -0.2001   -2.3888   -1.0038 C.ar      1 <0>         0.1525
     13 N1         -0.4298   -1.1389   -0.6977 N.ar      1 <0>        -0.4676
     14 C13         0.4960   -0.3201   -0.1555 C.ar      1 <0>         0.1732
     15 C14        -0.0116    1.0583    0.0147 C.3       1 <0>        -0.0180
     16 H1         -0.8630    0.9891    0.6917 H         1 <0>         0.1104
     17 C15        -0.5983    1.4696   -1.3372 C.3       1 <0>        -0.0849
     18 C16        -1.9552    0.7892   -1.5324 C.3       1 <0>        -0.1462
     19 C17        -2.5552    1.2302   -2.8712 C.3       1 <0>         0.1072
     20 N2         -1.5834    0.9556   -3.9383 N.am      1 <0>        -0.6075
     21 C18        -0.2201    1.4873   -3.8063 C.3       1 <0>         0.1154
     22 C19         0.3538    1.0434   -2.4571 C.3       1 <0>        -0.1270
     23 C20        -1.9359    0.2302   -5.0181 C.2       1 <0>         0.5158
     24 O1         -1.1246    0.0107   -5.8925 O.2       1 <0>        -0.5379
     25 C21        -3.3382   -0.3084   -5.1390 C.3       1 <0>        -0.1356
     26 C22        -3.4735   -1.0896   -6.4475 C.3       1 <0>        -0.0700
     27 C23        -3.3011   -0.1351   -7.6313 C.3       1 <0>        -0.1339
     28 C24        -3.4027   -0.9264   -8.9391 C.3       1 <0>         0.1304
     29 N3         -4.6691   -1.6713   -8.9440 N.am      1 <0>        -0.6280
     30 C25        -4.9763   -2.5500   -7.8071 C.3       1 <0>         0.1125
     31 C26        -4.8571   -1.7405   -6.5120 C.3       1 <0>        -0.1318
     32 C27        -5.5328   -1.5506   -9.9715 C.2       1 <0>         0.7081
     33 O2         -5.2270   -0.8954  -10.9490 O.2       1 <0>        -0.5930
     34 N4         -6.7356   -2.1562   -9.9155 N.am      1 <0>        -0.8697
     35 Br1         1.4483   -4.7132   -1.2481 Br        1 <0>        -0.0292
     36 Br2        -1.8175    3.3281    0.2073 Br        1 <0>        -0.0170
     37 Cl1         2.5954    5.9425    2.2654 Cl        1 <0>        -0.0522
     38 H2          3.6941    3.4273    1.5745 H         1 <0>         0.1398
     39 H3         -0.0662    5.3941    1.3335 H         1 <0>         0.1482
     40 H4          4.0825    1.5414    1.0718 H         1 <0>         0.0903
     41 H5          3.4595    1.2330   -0.5512 H         1 <0>         0.0832
     42 H6          2.6245   -0.1832    1.9693 H         1 <0>         0.0831
     43 H7          3.7418   -0.7988    0.7457 H         1 <0>         0.0886
     44 H8          3.0009   -2.5103   -0.0116 H         1 <0>         0.1444
     45 H9         -0.9831   -2.9980   -1.4305 H         1 <0>         0.1687
     46 H10        -0.7278    2.5515   -1.3628 H         1 <0>         0.0915
     47 H11        -1.8230   -0.2928   -1.5318 H         1 <0>         0.1209
     48 H12        -2.6254    1.0748   -0.7216 H         1 <0>         0.0707
     49 H13        -2.7720    2.2980   -2.8403 H         1 <0>         0.0626
     50 H14        -3.4742    0.6761   -3.0624 H         1 <0>         0.0836
     51 H15        -0.2465    2.5761   -3.8517 H         1 <0>         0.0639
     52 H16         0.4040    1.1030   -4.6131 H         1 <0>         0.0903
     53 H17         1.3270    1.5099   -2.3044 H         1 <0>         0.0665
     54 H18         0.4642   -0.0410   -2.4477 H         1 <0>         0.0665
     55 H19        -3.5473   -0.9694   -4.2979 H         1 <0>         0.0946
     56 H20        -4.0470    0.5197   -5.1353 H         1 <0>         0.0917
     57 H21        -2.7062   -1.8626   -6.4899 H         1 <0>         0.0818
     58 H22        -4.0831    0.6238   -7.6036 H         1 <0>         0.0596
     59 H23        -2.3247    0.3457   -7.5719 H         1 <0>         0.0952
     60 H24        -2.5682   -1.6240   -9.0099 H         1 <0>         0.0670
     61 H25        -3.3787   -0.2409   -9.7862 H         1 <0>         0.0927
     62 H26        -4.2700   -3.3799   -7.7856 H         1 <0>         0.0719
     63 H27        -5.9909   -2.9360   -7.9047 H         1 <0>         0.0775
     64 H28        -4.9880   -2.4023   -5.6560 H         1 <0>         0.0776
     65 H29        -5.6244   -0.9665   -6.4949 H         1 <0>         0.0688
     66 H30        -7.0097   -2.6164   -9.1068 H         1 <0>         0.3952
     67 H31        -7.3271   -2.1318  -10.6839 H         1 <0>         0.4137
@<TRIPOS>BOND
     1    1    6 ar
     2    1    2 ar
     3    1   38 1
     4    2    3 ar
     5    2   37 1
     6    3    4 ar
     7    3   39 1
     8    4    5 ar
     9    4   36 1
    10    5   15 1
    11    5    6 ar
    12    6    7 1
    13    7    8 1
    14    7   40 1
    15    7   41 1
    16    8    9 1
    17    8   42 1
    18    8   43 1
    19    9   14 ar
    20    9   10 ar
    21   10   11 ar
    22   10   44 1
    23   11   12 ar
    24   11   35 1
    25   12   13 ar
    26   12   45 1
    27   13   14 ar
    28   14   15 1
    29   15   16 1
    30   15   17 1
    31   17   22 1
    32   17   18 1
    33   17   46 1
    34   18   19 1
    35   18   47 1
    36   18   48 1
    37   19   20 1
    38   19   49 1
    39   19   50 1
    40   20   21 1
    41   20   23 am
    42   21   22 1
    43   21   51 1
    44   21   52 1
    45   22   53 1
    46   22   54 1
    47   23   24 2
    48   23   25 1
    49   25   26 1
    50   25   55 1
    51   25   56 1
    52   26   31 1
    53   26   27 1
    54   26   57 1
    55   27   28 1
    56   27   58 1
    57   27   59 1
    58   28   29 1
    59   28   60 1
    60   28   61 1
    61   29   30 1
    62   29   32 am
    63   30   31 1
    64   30   62 1
    65   30   63 1
    66   31   64 1
    67   31   65 1
    68   32   33 2
    69   32   34 am
    70   34   66 1
    71   34   67 1
@<TRIPOS>MOLECULE
ZINC03973581
   84    86     0     0     0
SMALL
USER_CHARGES

@<TRIPOS>ATOM
      1 C1        -11.0609    0.0259   -2.5275 C.3       1 <0>        -0.1587
      2 C2        -10.1011   -1.1515   -2.3448 C.3       1 <0>        -0.1190
      3 C3         -8.6771   -0.6243   -2.1569 C.3       1 <0>        -0.1521
      4 C4         -7.7016   -1.8013   -2.0947 C.3       1 <0>        -0.0117
      5 C5         -5.3314   -2.2793   -2.2231 C.3       1 <0>        -0.0134
      6 C6         -5.3544   -2.4329   -3.7452 C.3       1 <0>        -0.1447
      7 C7         -4.2947   -3.4510   -4.1711 C.3       1 <0>        -0.0802
      8 C8         -2.9032   -2.9076   -3.8400 C.3       1 <0>        -0.1217
      9 C9         -1.8436   -3.9257   -4.2660 C.3       1 <0>        -0.1215
     10 C10        -1.9496   -4.1725   -5.7722 C.3       1 <0>        -0.1247
     11 C11        -3.3411   -4.7158   -6.1033 C.3       1 <0>        -0.1205
     12 C12        -4.4007   -3.6977   -5.6773 C.3       1 <0>        -0.1142
     13 C13        -6.2011   -0.9503   -0.3955 C.3       1 <0>         0.0479
     14 C14        -5.0160   -0.0351   -0.2255 C.ar      1 <0>        -0.1491
     15 C15        -3.7892   -0.5598    0.1465 C.ar      1 <0>        -0.1005
     16 C16        -2.6945    0.2653    0.2997 C.ar      1 <0>        -0.0843
     17 C17        -2.8225    1.6388    0.0909 C.ar      1 <0>        -0.0693
     18 C18        -4.0684    2.1704   -0.2868 C.ar      1 <0>         0.0266
     19 C19        -5.1600    1.3205   -0.4419 C.ar      1 <0>        -0.0953
     20 C20        -4.2183    3.6263   -0.5186 C.ar      1 <0>        -0.0568
     21 C21        -4.9392    4.4082    0.3836 C.ar      1 <0>        -0.0993
     22 C22        -5.0750    5.7634    0.1627 C.ar      1 <0>        -0.1311
     23 C23        -4.4977    6.3468   -0.9512 C.ar      1 <0>        -0.1038
     24 C24        -3.7816    5.5764   -1.8495 C.ar      1 <0>        -0.1182
     25 C25        -3.6344    4.2208   -1.6363 C.ar      1 <0>        -0.0196
     26 C26        -2.8490    3.3838   -2.6129 C.3       1 <0>        -0.1138
     27 C27        -1.6559    2.5277    0.2594 C.2       1 <0>         0.5405
     28 O1         -1.7705    3.7234    0.0715 O.2       1 <0>        -0.5026
     29 N1         -0.4638    2.0137    0.6214 N.am      1 <0>        -0.6902
     30 C28         0.6954    2.8949    0.7827 C.3       1 <0>         0.1087
     31 H1          0.3696    3.8533    1.1873 H         1 <0>         0.0936
     32 C29         1.6968    2.2499    1.7429 C.3       1 <0>        -0.0940
     33 C30         1.0722    2.1436    3.1356 C.3       1 <0>        -0.0774
     34 S1          2.2594    1.3788    4.2740 S.3       1 <0>        -0.2658
     35 C31         1.3772    1.3264    5.8582 C.3       1 <0>        -0.1218
     36 C32         1.3516    3.1119   -0.5564 C.2       1 <0>         0.4618
     37 O2          0.8977    2.5846   -1.5442 O.co2     1 <0>        -0.6287
     38 H2        -12.0851   -0.3441   -2.5741 H         1 <0>         0.0646
     39 H3        -10.9599    0.7110   -1.6857 H         1 <0>         0.0592
     40 H4        -10.8213    0.5497   -3.4529 H         1 <0>         0.0594
     41 H5        -10.1384   -1.7909   -3.2267 H         1 <0>         0.0719
     42 H6        -10.3944   -1.7265   -1.4665 H         1 <0>         0.0720
     43 H7         -8.6198   -0.0553   -1.2290 H         1 <0>         0.0857
     44 H8         -8.4150    0.0209   -2.9954 H         1 <0>         0.0877
     45 H9         -7.7042   -2.3263   -3.0499 H         1 <0>         0.1309
     46 H10        -8.0076   -2.4854   -1.3032 H         1 <0>         0.1307
     47 H11        -4.3472   -1.9329   -1.9077 H         1 <0>         0.1334
     48 H12        -5.5443   -3.2416   -1.7576 H         1 <0>         0.1307
     49 H13        -6.3385   -2.7793   -4.0606 H         1 <0>         0.0851
     50 H14        -5.1415   -1.4705   -4.2107 H         1 <0>         0.0873
     51 H15        -4.4554   -4.3876   -3.6373 H         1 <0>         0.0792
     52 H16        -2.7425   -1.9710   -4.3738 H         1 <0>         0.0698
     53 H17        -2.8277   -2.7319   -2.7670 H         1 <0>         0.0612
     54 H18        -2.0043   -4.8624   -3.7322 H         1 <0>         0.0621
     55 H19        -0.8523   -3.5387   -4.0301 H         1 <0>         0.0692
     56 H20        -1.1947   -4.8978   -6.0756 H         1 <0>         0.0653
     57 H21        -1.7889   -3.2358   -6.3060 H         1 <0>         0.0645
     58 H22        -3.5018   -5.6524   -5.5695 H         1 <0>         0.0623
     59 H23        -3.4166   -4.8916   -7.1763 H         1 <0>         0.0656
     60 H24        -5.3920   -4.0848   -5.9132 H         1 <0>         0.0630
     61 H25        -4.2400   -2.7610   -6.2111 H         1 <0>         0.0667
     62 H26        -6.0467   -1.8571    0.1893 H         1 <0>         0.1374
     63 H27        -7.1031   -0.4448   -0.0506 H         1 <0>         0.1357
     64 H28        -3.6881   -1.6220    0.3136 H         1 <0>         0.1349
     65 H29        -1.7398   -0.1511    0.5852 H         1 <0>         0.1398
     66 H30        -6.1197    1.7219   -0.7321 H         1 <0>         0.1351
     67 H31        -5.3899    3.9540    1.2535 H         1 <0>         0.1143
     68 H32        -5.6327    6.3700    0.8608 H         1 <0>         0.1197
     69 H33        -4.6063    7.4080   -1.1198 H         1 <0>         0.1205
     70 H34        -3.3335    6.0373   -2.7173 H         1 <0>         0.1222
     71 H35        -3.5032    3.0604   -3.4225 H         1 <0>         0.0586
     72 H36        -2.0300    3.9754   -3.0219 H         1 <0>         0.0759
     73 H37        -2.4458    2.5102   -2.1006 H         1 <0>         0.0643
     74 H38        -0.3723    1.0597    0.7713 H         1 <0>         0.3885
     75 H39         1.9548    1.2537    1.3835 H         1 <0>         0.0716
     76 H40         2.5971    2.8622    1.7943 H         1 <0>         0.1010
     77 H41         0.8141    3.1397    3.4950 H         1 <0>         0.0808
     78 H42         0.1718    1.5313    3.0842 H         1 <0>         0.0735
     79 H43         0.4705    0.7313    5.7496 H         1 <0>         0.0714
     80 H44         2.0184    0.8768    6.6164 H         1 <0>         0.1002
     81 H45         1.1127    2.3397    6.1604 H         1 <0>         0.0747
     82 N2         -6.3449   -1.2779   -1.8296 N.4       1 <0>        -0.3960
     83 H46        -6.2027   -0.4245   -2.3826 H         1 <0>         0.4270
     84 O3          2.4405    3.8911   -0.6518 O.co2     1 <0>        -0.7541
@<TRIPOS>BOND
     1    1    2 1
     2    1   38 1
     3    1   39 1
     4    1   40 1
     5    2    3 1
     6    2   41 1
     7    2   42 1
     8    3    4 1
     9    3   43 1
    10    3   44 1
    11    4   45 1
    12    4   46 1
    13    4   82 1
    14    5    6 1
    15    5   47 1
    16    5   48 1
    17    5   82 1
    18    6    7 1
    19    6   49 1
    20    6   50 1
    21    7   12 1
    22    7    8 1
    23    7   51 1
    24    8    9 1
    25    8   52 1
    26    8   53 1
    27    9   10 1
    28    9   54 1
    29    9   55 1
    30   10   11 1
    31   10   56 1
    32   10   57 1
    33   11   12 1
    34   11   58 1
    35   11   59 1
    36   12   60 1
    37   12   61 1
    38   13   14 1
    39   13   62 1
    40   13   63 1
    41   13   82 1
    42   14   19 ar
    43   14   15 ar
    44   15   16 ar
    45   15   64 1
    46   16   17 ar
    47   16   65 1
    48   17   18 ar
    49   17   27 1
    50   18   19 ar
    51   18   20 1
    52   19   66 1
    53   20   25 ar
    54   20   21 ar
    55   21   22 ar
    56   21   67 1
    57   22   23 ar
    58   22   68 1
    59   23   24 ar
    60   23   69 1
    61   24   25 ar
    62   24   70 1
    63   25   26 1
    64   26   71 1
    65   26   72 1
    66   26   73 1
    67   27   28 2
    68   27   29 am
    69   29   30 1
    70   29   74 1
    71   30   31 1
    72   30   32 1
    73   30   36 1
    74   32   33 1
    75   32   75 1
    76   32   76 1
    77   33   34 1
    78   33   77 1
    79   33   78 1
    80   34   35 1
    81   35   79 1
    82   35   80 1
    83   35   81 1
    84   36   37 2
    85   36   84 1
    86   82   83 1
@<TRIPOS>MOLECULE
ZINC05579304
   56    57     0     0     0
SMALL
USER_CHARGES

@<TRIPOS>ATOM
      1 C1          0.3239   -0.1776   -0.2519 C.3       1 <0>        -0.1209
      2 S1         -0.0143   -1.9376    0.0286 S.3       1 <0>        -0.2710
      3 C2         -1.8249   -2.0328    0.0857 C.3       1 <0>        -0.0744
      4 C3         -2.2522   -3.4831    0.3203 C.3       1 <0>        -0.0950
      5 C4         -3.7793   -3.5634    0.3685 C.3       1 <0>         0.0846
      6 H1         -4.1949   -3.1296   -0.5410 H         1 <0>         0.0862
      7 C5         -4.2034   -5.0054    0.4765 C.2       1 <0>         0.4939
      8 O1         -4.3453   -5.5187    1.5733 O.co2     1 <0>        -0.6900
      9 O2         -4.4044   -5.6589   -0.5330 O.co2     1 <0>        -0.6863
     10 N1         -4.2709   -2.8214    1.5322 N.am      1 <0>        -0.6895
     11 C6         -5.5216   -2.3192    1.5320 C.2       1 <0>         0.5425
     12 O3         -6.2421   -2.4819    0.5659 O.2       1 <0>        -0.5194
     13 C7         -6.0158   -1.5731    2.7022 C.ar      1 <0>        -0.1416
     14 C8         -5.2424   -1.4967    3.8633 C.ar      1 <0>        -0.0391
     15 C9         -5.7060   -0.7998    4.9554 C.ar      1 <0>        -0.1925
     16 C10        -6.9464   -0.1666    4.9113 C.ar      1 <0>         0.2076
     17 C11        -7.7266   -0.2337    3.7639 C.ar      1 <0>        -0.1771
     18 C12        -7.2672   -0.9292    2.6531 C.ar      1 <0>         0.0588
     19 C13        -8.0926   -0.9985    1.4240 C.ar      1 <0>        -0.0498
     20 C14        -7.6000   -0.4948    0.2209 C.ar      1 <0>        -0.0456
     21 C15        -8.3730   -0.5625   -0.9203 C.ar      1 <0>        -0.1221
     22 C16        -9.6342   -1.1288   -0.8721 C.ar      1 <0>        -0.1094
     23 C17       -10.1283   -1.6302    0.3188 C.ar      1 <0>        -0.1290
     24 C18        -9.3624   -1.5728    1.4653 C.ar      1 <0>        -0.1014
     25 N2         -7.4056    0.5353    6.0210 N.pl3     1 <0>        -0.7643
     26 C19        -6.5854    0.6076    7.2327 C.3       1 <0>         0.1056
     27 C20        -7.3160    1.4321    8.2945 C.3       1 <0>         0.0456
     28 H2         -7.4142    2.4619    7.9509 H         1 <0>         0.1613
     29 C21        -6.5185    1.4040    9.6000 C.3       1 <0>        -0.1113
     30 S2         -7.3847    2.3816   10.8588 S.3       1 <0>        -0.2491
     31 N3         -8.6507    0.8630    8.5237 N.4       1 <0>        -0.6361
     32 H3          1.4010   -0.0181   -0.3018 H         1 <0>         0.0991
     33 H4         -0.1336    0.1352   -1.1905 H         1 <0>         0.0743
     34 H5         -0.0924    0.4076    0.5680 H         1 <0>         0.0715
     35 H6         -2.1961   -1.4086    0.8986 H         1 <0>         0.0756
     36 H7         -2.2373   -1.6810   -0.8599 H         1 <0>         0.0800
     37 H8         -1.8810   -4.1072   -0.4925 H         1 <0>         0.0887
     38 H9         -1.8398   -3.8349    1.2660 H         1 <0>         0.0749
     39 H10        -3.6962   -2.6916    2.3028 H         1 <0>         0.3880
     40 H11        -4.2801   -1.9853    3.9037 H         1 <0>         0.1337
     41 H12        -5.1055   -0.7437    5.8513 H         1 <0>         0.1245
     42 H13        -8.6877    0.2579    3.7344 H         1 <0>         0.1283
     43 H14        -6.6157   -0.0522    0.1822 H         1 <0>         0.1118
     44 H15        -7.9926   -0.1724   -1.8528 H         1 <0>         0.1196
     45 H16       -10.2357   -1.1793   -1.7677 H         1 <0>         0.1187
     46 H17       -11.1138   -2.0708    0.3505 H         1 <0>         0.1191
     47 H18        -9.7473   -1.9686    2.3935 H         1 <0>         0.1145
     48 H19        -8.2688    0.9768    5.9925 H         1 <0>         0.3927
     49 H20        -6.4086   -0.3987    7.6124 H         1 <0>         0.0933
     50 H21        -5.6317    1.0804    6.9983 H         1 <0>         0.1107
     51 H22        -6.4203    0.3742    9.9436 H         1 <0>         0.1169
     52 H23        -5.5282    1.8263    9.4299 H         1 <0>         0.1373
     53 H24        -6.5983    2.2828   11.9455 H         1 <0>         0.1401
     54 H25        -9.1325    1.4068    9.2239 H         1 <0>         0.4414
     55 H26        -9.1766    0.8816    7.6628 H         1 <0>         0.4360
     56 H27        -8.5598   -0.0902    8.8418 H         1 <0>         0.4383
@<TRIPOS>BOND
     1    1    2 1
     2    1   32 1
     3    1   33 1
     4    1   34 1
     5    2    3 1
     6    3    4 1
     7    3   35 1
     8    3   36 1
     9    4    5 1
    10    4   37 1
    11    4   38 1
    12    5    6 1
    13    5    7 1
    14    5   10 1
    15    7    8 2
    16    7    9 1
    17   10   11 am
    18   10   39 1
    19   11   12 2
    20   11   13 1
    21   13   18 ar
    22   13   14 ar
    23   14   15 ar
    24   14   40 1
    25   15   16 ar
    26   15   41 1
    27   16   17 ar
    28   16   25 1
    29   17   18 ar
    30   17   42 1
    31   18   19 1
    32   19   24 ar
    33   19   20 ar
    34   20   21 ar
    35   20   43 1
    36   21   22 ar
    37   21   44 1
    38   22   23 ar
    39   22   45 1
    40   23   24 ar
    41   23   46 1
    42   24   47 1
    43   25   26 1
    44   25   48 1
    45   26   27 1
    46   26   49 1
    47   26   50 1
    48   27   28 1
    49   27   29 1
    50   27   31 1
    51   29   30 1
    52   29   51 1
    53   29   52 1
    54   30   53 1
    55   31   54 1
    56   31   55 1
    57   31   56 1
@<TRIPOS>MOLECULE
ZINC34016620
   69    69     0     0     0
SMALL
USER_CHARGES

@<TRIPOS>ATOM
      1 C1          0.7698    0.2642   -0.5103 C.3       1 <0>        -0.1738
      2 C2         -0.2700    0.4153    0.6018 C.3       1 <0>        -0.1091
      3 C3         -0.7259    1.8737    0.6790 C.3       1 <0>        -0.1527
      4 C4         -1.4734   -0.4800    0.2999 C.3       1 <0>         0.0325
      5 H1         -2.2168   -0.3678    1.0891 H         1 <0>         0.1498
      6 C5         -2.0879   -0.0734   -1.0410 C.3       1 <0>         0.0278
      7 N1         -3.1673   -1.0073   -1.3883 N.3       1 <0>        -0.6639
      8 C6         -3.8768   -0.5660   -2.5965 C.3       1 <0>         0.0876
      9 H2         -3.5978    0.4623   -2.8265 H         1 <0>         0.0997
     10 C7         -3.4979   -1.4718   -3.7699 C.3       1 <0>        -0.1092
     11 C8         -2.0277   -1.3228   -4.0653 C.ar      1 <0>        -0.0795
     12 C9         -1.5843   -0.2816   -4.8592 C.ar      1 <0>        -0.1128
     13 C10        -0.2357   -0.1449   -5.1301 C.ar      1 <0>        -0.1086
     14 C11         0.6696   -1.0490   -4.6068 C.ar      1 <0>        -0.1224
     15 C12         0.2263   -2.0897   -3.8121 C.ar      1 <0>        -0.1173
     16 C13        -1.1219   -2.2239   -3.5377 C.ar      1 <0>        -0.1383
     17 C14        -5.3635   -0.6427   -2.3623 C.2       1 <0>         0.5105
     18 O1         -5.7900   -1.0272   -1.2940 O.2       1 <0>        -0.5216
     19 N2         -6.2191   -0.2841   -3.3399 N.am      1 <0>        -0.6936
     20 C15        -7.6644   -0.3588   -3.1122 C.3       1 <0>         0.0848
     21 H3         -7.8822   -0.1064   -2.0744 H         1 <0>         0.0846
     22 C16        -8.3782    0.6286   -4.0378 C.3       1 <0>        -0.0962
     23 C17        -7.9824    2.0578   -3.6615 C.3       1 <0>        -0.0743
     24 S1         -8.8286    3.2284   -4.7588 S.3       1 <0>        -0.2686
     25 C18        -8.2601    4.8539   -4.1887 C.3       1 <0>        -0.1213
     26 C19        -8.1469   -1.7569   -3.4011 C.2       1 <0>         0.4930
     27 O2         -9.1092   -2.2057   -2.8019 O.co2     1 <0>        -0.6866
     28 O3         -7.5750   -2.4392   -4.2341 O.co2     1 <0>        -0.6884
     29 N3         -1.0371   -1.8811    0.2338 N.4       1 <0>        -0.5023
     30 C20        -0.5620   -2.3090    1.5564 C.3       1 <0>        -0.0016
     31 C21        -0.1036   -3.7670    1.4865 C.3       1 <0>         0.0806
     32 H4         -0.9584   -4.4065    1.2664 H         1 <0>         0.1221
     33 C22         0.5061   -4.1748    2.8292 C.3       1 <0>        -0.1162
     34 S2          1.0496   -5.9035    2.7464 S.3       1 <0>        -0.2256
     35 N4          0.9033   -3.9135    0.4269 N.3       1 <0>        -0.8518
     36 H5          1.6272    0.9020   -0.2952 H         1 <0>         0.0824
     37 H6          1.0947   -0.7749   -0.5653 H         1 <0>         0.0538
     38 H7          0.3285    0.5578   -1.4627 H         1 <0>         0.0772
     39 H8          0.1714    0.1217    1.5543 H         1 <0>         0.0938
     40 H9         -1.0714    2.1988   -0.3023 H         1 <0>         0.0693
     41 H10        -1.5399    1.9623    1.3986 H         1 <0>         0.0698
     42 H11         0.1088    2.4990    0.9959 H         1 <0>         0.0750
     43 H12        -2.4915    0.9362   -0.9644 H         1 <0>         0.1197
     44 H13        -1.3210   -0.1003   -1.8151 H         1 <0>         0.0673
     45 H14        -2.8122   -1.9451   -1.4997 H         1 <0>         0.3324
     46 H15        -3.7135   -2.5089   -3.5127 H         1 <0>         0.0919
     47 H16        -4.0758   -1.1879   -4.6494 H         1 <0>         0.1006
     48 H17        -2.2916    0.4248   -5.2680 H         1 <0>         0.1263
     49 H18         0.1106    0.6681   -5.7509 H         1 <0>         0.1247
     50 H19         1.7232   -0.9426   -4.8190 H         1 <0>         0.1225
     51 H20         0.9335   -2.7963   -3.4035 H         1 <0>         0.1243
     52 H21        -1.4679   -3.0348   -2.9138 H         1 <0>         0.1172
     53 H22        -5.8780    0.0233   -4.1943 H         1 <0>         0.3905
     54 H23        -8.0901    0.4317   -5.0704 H         1 <0>         0.0763
     55 H24        -9.4566    0.5106   -3.9326 H         1 <0>         0.0888
     56 H25        -8.2704    2.2546   -2.6288 H         1 <0>         0.0788
     57 H26        -6.9039    2.1758   -3.7667 H         1 <0>         0.0746
     58 H27        -8.7206    5.6333   -4.7957 H         1 <0>         0.0998
     59 H28        -8.5423    4.9919   -3.1449 H         1 <0>         0.0738
     60 H29        -7.1758    4.9131   -4.2828 H         1 <0>         0.0716
     61 H30        -1.8122   -2.4618   -0.0492 H         1 <0>         0.4301
     62 H31         0.2734   -1.6797    1.8634 H         1 <0>         0.1318
     63 H32        -1.3716   -2.2170    2.2805 H         1 <0>         0.1423
     64 H33         1.3609   -3.5353    3.0494 H         1 <0>         0.0928
     65 H34        -0.2410   -4.0662    3.6154 H         1 <0>         0.1012
     66 H35         1.5604   -6.1428    3.9674 H         1 <0>         0.1060
     67 H36         1.7064   -3.3301    0.6081 H         1 <0>         0.3500
     68 H37         1.1750   -4.8790    0.3173 H         1 <0>         0.3774
     69 H38        -0.2885   -1.9690   -0.4371 H         1 <0>         0.4285
@<TRIPOS>BOND
     1    1    2 1
     2    1   36 1
     3    1   37 1
     4    1   38 1
     5    2    3 1
     6    2    4 1
     7    2   39 1
     8    3   40 1
     9    3   41 1
    10    3   42 1
    11    4    5 1
    12    4    6 1
    13    4   29 1
    14    6    7 1
    15    6   43 1
    16    6   44 1
    17    7    8 1
    18    7   45 1
    19    8    9 1
    20    8   10 1
    21    8   17 1
    22   10   11 1
    23   10   46 1
    24   10   47 1
    25   11   16 ar
    26   11   12 ar
    27   12   13 ar
    28   12   48 1
    29   13   14 ar
    30   13   49 1
    31   14   15 ar
    32   14   50 1
    33   15   16 ar
    34   15   51 1
    35   16   52 1
    36   17   18 2
    37   17   19 am
    38   19   20 1
    39   19   53 1
    40   20   21 1
    41   20   22 1
    42   20   26 1
    43   22   23 1
    44   22   54 1
    45   22   55 1
    46   23   24 1
    47   23   56 1
    48   23   57 1
    49   24   25 1
    50   25   58 1
    51   25   59 1
    52   25   60 1
    53   26   27 2
    54   26   28 1
    55   29   30 1
    56   29   61 1
    57   29   69 1
    58   30   31 1
    59   30   62 1
    60   30   63 1
    61   31   32 1
    62   31   33 1
    63   31   35 1
    64   33   34 1
    65   33   64 1
    66   33   65 1
    67   34   66 1
    68   35   67 1
    69   35   68 1
@<TRIPOS>MOLECULE
ZINC34016620
   70    70     0     0     0
SMALL
USER_CHARGES

@<TRIPOS>ATOM
      1 C1          0.5778    0.4603   -0.2664 C.3       1 <0>        -0.1746
      2 C2         -0.5487    0.4832    0.7686 C.3       1 <0>        -0.1113
      3 C3         -1.1258    1.8971    0.8631 C.3       1 <0>        -0.1575
      4 C4         -1.6505   -0.4901    0.3448 C.3       1 <0>         0.0336
      5 H1         -2.4586   -0.4649    1.0759 H         1 <0>         0.1664
      6 C5         -2.1912   -0.0823   -1.0272 C.3       1 <0>         0.0219
      7 N1         -3.1633   -1.0829   -1.4876 N.3       1 <0>        -0.6603
      8 C6         -3.8148   -0.6506   -2.7312 C.3       1 <0>         0.0866
      9 H2         -3.5868    0.3993   -2.9148 H         1 <0>         0.1029
     10 C7         -3.2992   -1.4960   -3.8975 C.3       1 <0>        -0.1117
     11 C8         -1.8216   -1.2592   -4.0750 C.ar      1 <0>        -0.0738
     12 C9         -1.3785   -0.1669   -4.7970 C.ar      1 <0>        -0.1052
     13 C10        -0.0230    0.0504   -4.9598 C.ar      1 <0>        -0.0999
     14 C11         0.8893   -0.8245   -4.4002 C.ar      1 <0>        -0.1182
     15 C12         0.4462   -1.9163   -3.6774 C.ar      1 <0>        -0.1338
     16 C13        -0.9092   -2.1312   -3.5110 C.ar      1 <0>        -0.1542
     17 C14        -5.3061   -0.8261   -2.6042 C.2       1 <0>         0.5089
     18 O1         -5.7796   -1.2678   -1.5787 O.2       1 <0>        -0.5240
     19 N2         -6.1137   -0.4923   -3.6303 N.am      1 <0>        -0.6887
     20 C15        -7.5635   -0.6629   -3.5069 C.3       1 <0>         0.0843
     21 H3         -7.8677   -0.4554   -2.4809 H         1 <0>         0.0859
     22 C16        -8.2735    0.3055   -4.4551 C.3       1 <0>        -0.0980
     23 C17        -7.9965    1.7446   -4.0157 C.3       1 <0>        -0.0757
     24 S1         -8.8383    2.8927   -5.1399 S.3       1 <0>        -0.2638
     25 C18        -8.4151    4.5326   -4.4902 C.3       1 <0>        -0.1218
     26 C19        -7.9349   -2.0789   -3.8644 C.2       1 <0>         0.4928
     27 O2         -8.9055   -2.6040   -3.3460 O.co2     1 <0>        -0.6822
     28 O3         -7.2648   -2.6995   -4.6721 O.co2     1 <0>        -0.6900
     29 N3         -1.1003   -1.8501    0.2698 N.4       1 <0>        -0.5272
     30 C20        -0.6894   -2.2867    1.6109 C.3       1 <0>        -0.0343
     31 C21        -0.2229   -3.7427    1.5526 C.3       1 <0>         0.0288
     32 H4         -1.0636   -4.3831    1.2858 H         1 <0>         0.1862
     33 C22         0.3213   -4.1590    2.9205 C.3       1 <0>        -0.1231
     34 S2          0.8744   -5.8853    2.8514 S.3       1 <0>        -0.2257
     35 N4          0.8354   -3.8777    0.5428 N.4       1 <0>        -0.6499
     36 H5          1.3628    1.1537    0.0355 H         1 <0>         0.0930
     37 H6          0.9889   -0.5469   -0.3338 H         1 <0>         0.0353
     38 H7          0.1843    0.7578   -1.2384 H         1 <0>         0.0853
     39 H8         -0.1552    0.1857    1.7406 H         1 <0>         0.0969
     40 H9         -1.4251    2.2344   -0.1292 H         1 <0>         0.0740
     41 H10        -1.9939    1.8919    1.5223 H         1 <0>         0.0758
     42 H11        -0.3695    2.5722    1.2636 H         1 <0>         0.0824
     43 H12        -2.6786    0.8897   -0.9514 H         1 <0>         0.1315
     44 H13        -1.3678   -0.0214   -1.7388 H         1 <0>         0.0706
     45 H14        -2.7264   -1.9851   -1.6029 H         1 <0>         0.3234
     46 H15        -3.4755   -2.5510   -3.6874 H         1 <0>         0.0936
     47 H16        -3.8245   -1.2147   -4.8103 H         1 <0>         0.1065
     48 H17        -2.0912    0.5166   -5.2343 H         1 <0>         0.1323
     49 H18         0.3231    0.9034   -5.5245 H         1 <0>         0.1310
     50 H19         1.9482   -0.6552   -4.5280 H         1 <0>         0.1264
     51 H20         1.1589   -2.6000   -3.2404 H         1 <0>         0.1160
     52 H21        -1.2554   -2.9822   -2.9432 H         1 <0>         0.1117
     53 H22        -5.7350   -0.1390   -4.4505 H         1 <0>         0.3914
     54 H23        -7.9033    0.1576   -5.4696 H         1 <0>         0.0772
     55 H24        -9.3470    0.1179   -4.4291 H         1 <0>         0.0913
     56 H25        -8.3667    1.8925   -3.0012 H         1 <0>         0.0786
     57 H26        -6.9231    1.9322   -4.0417 H         1 <0>         0.0722
     58 H27        -8.7765    4.6219   -3.4657 H         1 <0>         0.0743
     59 H28        -7.3329    4.6616   -4.5062 H         1 <0>         0.0710
     60 H29        -8.8816    5.2998   -5.1082 H         1 <0>         0.1017
     61 H30        -1.8042   -2.4785   -0.0875 H         1 <0>         0.4405
     62 H31         0.1276   -1.6572    1.9635 H         1 <0>         0.1652
     63 H32        -1.5339   -2.2029    2.2949 H         1 <0>         0.1907
     64 H33         1.1620   -3.5185    3.1874 H         1 <0>         0.1237
     65 H34        -0.4639   -4.0588    3.6698 H         1 <0>         0.1488
     66 H35         1.3253   -6.1325    4.0942 H         1 <0>         0.1522
     67 H36         0.4764   -3.6032   -0.3594 H         1 <0>         0.4268
     68 H37         1.6136   -3.2849    0.7897 H         1 <0>         0.4442
     69 H38        -0.3006   -1.8559   -0.3455 H         1 <0>         0.4079
     70 H39         1.1430   -4.8379    0.5043 H         1 <0>         0.4632
@<TRIPOS>BOND
     1    1    2 1
     2    1   36 1
     3    1   37 1
     4    1   38 1
     5    2    3 1
     6    2    4 1
     7    2   39 1
     8    3   40 1
     9    3   41 1
    10    3   42 1
    11    4    5 1
    12    4    6 1
    13    4   29 1
    14    6    7 1
    15    6   43 1
    16    6   44 1
    17    7    8 1
    18    7   45 1
    19    8    9 1
    20    8   10 1
    21    8   17 1
    22   10   11 1
    23   10   46 1
    24   10   47 1
    25   11   16 ar
    26   11   12 ar
    27   12   13 ar
    28   12   48 1
    29   13   14 ar
    30   13   49 1
    31   14   15 ar
    32   14   50 1
    33   15   16 ar
    34   15   51 1
    35   16   52 1
    36   17   18 2
    37   17   19 am
    38   19   20 1
    39   19   53 1
    40   20   21 1
    41   20   22 1
    42   20   26 1
    43   22   23 1
    44   22   54 1
    45   22   55 1
    46   23   24 1
    47   23   56 1
    48   23   57 1
    49   24   25 1
    50   25   58 1
    51   25   59 1
    52   25   60 1
    53   26   27 2
    54   26   28 1
    55   29   30 1
    56   29   61 1
    57   29   69 1
    58   30   31 1
    59   30   62 1
    60   30   63 1
    61   31   32 1
    62   31   33 1
    63   31   35 1
    64   33   34 1
    65   33   64 1
    66   33   65 1
    67   34   66 1
    68   35   67 1
    69   35   68 1
    70   35   70 1
