@<TRIPOS>MOLECULE
ZINC14276204
   59    58     0     0     0
SMALL
USER_CHARGES
(Z)-2-[(Z)-hexadec-7-enyl]-3-methyl-but-2-enedioic acid
@<TRIPOS>ATOM
      1 C1         -9.3274    1.2273  -13.7204 C.3       1 <0>        -0.1529
      2 C2         -8.6494    0.8720  -12.3957 C.3       1 <0>        -0.1271
      3 C3         -7.1526    1.1742  -12.4917 C.3       1 <0>        -0.1201
      4 C4         -6.4745    0.8189  -11.1670 C.3       1 <0>        -0.1225
      5 C5         -4.9778    1.1211  -11.2631 C.3       1 <0>        -0.1188
      6 C6         -4.2997    0.7659   -9.9383 C.3       1 <0>        -0.1227
      7 C7         -2.8029    1.0681  -10.0344 C.3       1 <0>        -0.1111
      8 C8         -2.1249    0.7128   -8.7096 C.3       1 <0>        -0.1029
      9 C9         -0.6506    1.0105   -8.8043 C.2       1 <0>        -0.1714
     10 C10        -0.0783    1.7769   -7.9091 C.2       1 <0>        -0.1471
     11 C11        -0.8508    2.2229   -6.6945 C.3       1 <0>        -0.1045
     12 C12        -0.0521    1.8919   -5.4322 C.3       1 <0>        -0.1111
     13 C13        -0.8363    2.3448   -4.1990 C.3       1 <0>        -0.1205
     14 C14        -0.0376    2.0138   -2.9367 C.3       1 <0>        -0.1146
     15 C15        -0.8218    2.4667   -1.7036 C.3       1 <0>        -0.1110
     16 C16        -0.0231    2.1357   -0.4413 C.3       1 <0>        -0.0655
     17 C17        -0.7956    2.5818    0.7734 C.2       1 <0>        -0.1289
     18 C18        -1.5797    1.7098    1.4280 C.2       1 <0>        -0.1738
     19 C19        -1.5822    0.2553    1.0337 C.3       1 <0>        -0.0868
     20 C20        -2.4388    2.1760    2.5336 C.2       1 <0>         0.4838
     21 O1         -2.5186    3.3621    2.7819 O.co2     1 <0>        -0.5920
     22 C21        -0.6904    3.9766    1.2434 C.2       1 <0>         0.5322
     23 O2         -1.2769    4.8618    0.6541 O.co2     1 <0>        -0.6565
     24 H1        -10.3938    1.0120  -13.6520 H         1 <0>         0.0521
     25 H2         -9.1835    2.2873  -13.9295 H         1 <0>         0.0529
     26 H3         -8.8881    0.6356  -14.5236 H         1 <0>         0.0519
     27 H4         -8.7933   -0.1880  -12.1866 H         1 <0>         0.0602
     28 H5         -9.0887    1.4637  -11.5925 H         1 <0>         0.0616
     29 H6         -7.0086    2.2342  -12.7008 H         1 <0>         0.0602
     30 H7         -6.7133    0.5826  -13.2949 H         1 <0>         0.0589
     31 H8         -6.6185   -0.2411  -10.9580 H         1 <0>         0.0606
     32 H9         -6.9138    1.4106  -10.3639 H         1 <0>         0.0625
     33 H10        -4.8338    2.1812  -11.4721 H         1 <0>         0.0601
     34 H11        -4.5384    0.5295  -12.0662 H         1 <0>         0.0584
     35 H12        -4.4437   -0.2942   -9.7293 H         1 <0>         0.0609
     36 H13        -4.7390    1.3575   -9.1352 H         1 <0>         0.0636
     37 H14        -2.6589    2.1281  -10.2434 H         1 <0>         0.0607
     38 H15        -2.3636    0.4764  -10.8375 H         1 <0>         0.0577
     39 H16        -2.2688   -0.3472   -8.5006 H         1 <0>         0.0662
     40 H17        -2.5642    1.3045   -7.9065 H         1 <0>         0.0795
     41 H18        -0.0658    0.5919   -9.6100 H         1 <0>         0.1033
     42 H19         0.9471    2.0890   -8.0416 H         1 <0>         0.1059
     43 H20        -1.8098    1.7058   -6.6637 H         1 <0>         0.0757
     44 H21        -1.0195    3.2986   -6.7460 H         1 <0>         0.0694
     45 H22         0.9069    2.4091   -5.4630 H         1 <0>         0.0596
     46 H23         0.1167    0.8163   -5.3806 H         1 <0>         0.0590
     47 H24        -1.7953    1.8276   -4.1682 H         1 <0>         0.0600
     48 H25        -1.0051    3.4204   -4.2506 H         1 <0>         0.0626
     49 H26         0.9214    2.5310   -2.9676 H         1 <0>         0.0569
     50 H27         0.1312    0.9382   -2.8852 H         1 <0>         0.0547
     51 H28        -1.7809    1.9495   -1.6727 H         1 <0>         0.0573
     52 H29        -0.9906    3.5423   -1.7551 H         1 <0>         0.0722
     53 H30         0.1456    1.0601   -0.3897 H         1 <0>         0.0567
     54 H31         0.9359    2.6528   -0.4721 H         1 <0>         0.0551
     55 H32        -0.8229   -0.2776    1.6060 H         1 <0>         0.0461
     56 H33        -2.5619   -0.1755    1.2403 H         1 <0>         0.0576
     57 H34        -1.3636    0.1671   -0.0305 H         1 <0>         0.0406
     58 O3         -3.1348    1.2857    3.2675 O.co2     1 <0>        -0.8014
     59 O4          0.0564    4.2681    2.3265 O.co2     1 <0>        -0.7734
@<TRIPOS>BOND
     1    1    2 1
     2    1   24 1
     3    1   25 1
     4    1   26 1
     5    2    3 1
     6    2   27 1
     7    2   28 1
     8    3    4 1
     9    3   29 1
    10    3   30 1
    11    4    5 1
    12    4   31 1
    13    4   32 1
    14    5    6 1
    15    5   33 1
    16    5   34 1
    17    6    7 1
    18    6   35 1
    19    6   36 1
    20    7    8 1
    21    7   37 1
    22    7   38 1
    23    8    9 1
    24    8   39 1
    25    8   40 1
    26    9   10 2
    27    9   41 1
    28   10   11 1
    29   10   42 1
    30   11   12 1
    31   11   43 1
    32   11   44 1
    33   12   13 1
    34   12   45 1
    35   12   46 1
    36   13   14 1
    37   13   47 1
    38   13   48 1
    39   14   15 1
    40   14   49 1
    41   14   50 1
    42   15   16 1
    43   15   51 1
    44   15   52 1
    45   16   17 1
    46   16   53 1
    47   16   54 1
    48   17   18 2
    49   17   22 1
    50   18   19 1
    51   18   20 1
    52   19   55 1
    53   19   56 1
    54   19   57 1
    55   20   21 2
    56   20   58 1
    57   22   23 2
    58   22   59 1
@<TRIPOS>MOLECULE
ZINC14276303
   55    54     0     0     0
SMALL
USER_CHARGES
(Z)-2-methyl-3-tetradecyl-but-2-enedioic acid
@<TRIPOS>ATOM
      1 C1          0.0544    4.1153  -15.9067 C.3       1 <0>        -0.1534
      2 C2          0.7595    3.4931  -14.6999 C.3       1 <0>        -0.1260
      3 C3         -0.0684    3.7472  -13.4386 C.3       1 <0>        -0.1214
      4 C4          0.6368    3.1251  -12.2317 C.3       1 <0>        -0.1207
      5 C5         -0.1911    3.3792  -10.9704 C.3       1 <0>        -0.1208
      6 C6          0.5141    2.7570   -9.7635 C.3       1 <0>        -0.1199
      7 C7         -0.3138    3.0111   -8.5022 C.3       1 <0>        -0.1208
      8 C8          0.3913    2.3889   -7.2954 C.3       1 <0>        -0.1193
      9 C9         -0.4366    2.6430   -6.0341 C.3       1 <0>        -0.1210
     10 C10         0.2686    2.0208   -4.8272 C.3       1 <0>        -0.1179
     11 C11        -0.5593    2.2749   -3.5659 C.3       1 <0>        -0.1206
     12 C12         0.1459    1.6527   -2.3590 C.3       1 <0>        -0.1148
     13 C13        -0.6820    1.9068   -1.0977 C.3       1 <0>        -0.1112
     14 C14         0.0231    1.2847    0.1091 C.3       1 <0>        -0.0653
     15 C15        -0.7923    1.5349    1.3515 C.2       1 <0>        -0.1292
     16 C16        -1.6597    0.6053    1.7840 C.2       1 <0>        -0.1736
     17 C17        -1.7273   -0.7372    1.1026 C.3       1 <0>        -0.0869
     18 C18        -2.5467    0.8984    2.9264 C.2       1 <0>         0.4837
     19 O1         -2.5682    2.0130    3.4081 O.co2     1 <0>        -0.5914
     20 C19        -0.6378    2.8015    2.0928 C.2       1 <0>         0.5320
     21 O2         -1.1276    3.8238    1.6570 O.co2     1 <0>        -0.6577
     22 H1          0.6442    3.9343  -16.8053 H         1 <0>         0.0516
     23 H2         -0.9319    3.6659  -16.0228 H         1 <0>         0.0530
     24 H3         -0.0516    5.1891  -15.7519 H         1 <0>         0.0530
     25 H4          1.7458    3.9426  -14.5838 H         1 <0>         0.0599
     26 H5          0.8655    2.4194  -14.8547 H         1 <0>         0.0599
     27 H6         -1.0546    3.2978  -13.5546 H         1 <0>         0.0604
     28 H7         -0.1743    4.8210  -13.2837 H         1 <0>         0.0605
     29 H8          1.6230    3.5745  -12.1156 H         1 <0>         0.0601
     30 H9          0.7428    2.0513  -12.3866 H         1 <0>         0.0599
     31 H10        -1.1773    2.9297  -11.0865 H         1 <0>         0.0602
     32 H11        -0.2971    4.4529  -10.8155 H         1 <0>         0.0604
     33 H12         1.5003    3.2064   -9.6475 H         1 <0>         0.0597
     34 H13         0.6200    1.6833   -9.9184 H         1 <0>         0.0595
     35 H14        -1.3001    2.5616   -8.6183 H         1 <0>         0.0600
     36 H15        -0.4198    4.0848   -8.3474 H         1 <0>         0.0603
     37 H16         1.3776    2.8383   -7.1793 H         1 <0>         0.0592
     38 H17         0.4973    1.3152   -7.4502 H         1 <0>         0.0588
     39 H18        -1.4228    2.1936   -6.1501 H         1 <0>         0.0598
     40 H19        -0.5425    3.7167   -5.8792 H         1 <0>         0.0605
     41 H20         1.2548    2.4703   -4.7111 H         1 <0>         0.0584
     42 H21         0.3746    0.9471   -4.9821 H         1 <0>         0.0576
     43 H22        -1.5455    1.8255   -3.6820 H         1 <0>         0.0595
     44 H23        -0.6653    3.3487   -3.4110 H         1 <0>         0.0618
     45 H24         1.1321    2.1022   -2.2430 H         1 <0>         0.0566
     46 H25         0.2518    0.5790   -2.5139 H         1 <0>         0.0543
     47 H26        -1.6683    1.4574   -1.2138 H         1 <0>         0.0572
     48 H27        -0.7880    2.9806   -0.9429 H         1 <0>         0.0722
     49 H28         0.1291    0.2109   -0.0457 H         1 <0>         0.0565
     50 H29         1.0094    1.7341    0.2252 H         1 <0>         0.0550
     51 H30        -1.0318   -1.4245    1.5843 H         1 <0>         0.0461
     52 H31        -2.7402   -1.1327    1.1786 H         1 <0>         0.0577
     53 H32        -1.4588   -0.6254    0.0521 H         1 <0>         0.0405
     54 O3         -3.3328   -0.0707    3.4350 O.co2     1 <0>        -0.8016
     55 O4          0.0469    2.8238    3.2532 O.co2     1 <0>        -0.7721
@<TRIPOS>BOND
     1    1    2 1
     2    1   22 1
     3    1   23 1
     4    1   24 1
     5    2    3 1
     6    2   25 1
     7    2   26 1
     8    3    4 1
     9    3   27 1
    10    3   28 1
    11    4    5 1
    12    4   29 1
    13    4   30 1
    14    5    6 1
    15    5   31 1
    16    5   32 1
    17    6    7 1
    18    6   33 1
    19    6   34 1
    20    7    8 1
    21    7   35 1
    22    7   36 1
    23    8    9 1
    24    8   37 1
    25    8   38 1
    26    9   10 1
    27    9   39 1
    28    9   40 1
    29   10   11 1
    30   10   41 1
    31   10   42 1
    32   11   12 1
    33   11   43 1
    34   11   44 1
    35   12   13 1
    36   12   45 1
    37   12   46 1
    38   13   14 1
    39   13   47 1
    40   13   48 1
    41   14   15 1
    42   14   49 1
    43   14   50 1
    44   15   16 2
    45   15   20 1
    46   16   17 1
    47   16   18 1
    48   17   51 1
    49   17   52 1
    50   17   53 1
    51   18   19 2
    52   18   54 1
    53   20   21 2
    54   20   55 1
@<TRIPOS>MOLECULE
ZINC05579304
   56    57     0     0     0
SMALL
USER_CHARGES

@<TRIPOS>ATOM
      1 C1          0.3239   -0.1776   -0.2519 C.3       1 <0>        -0.1209
      2 S1         -0.0143   -1.9376    0.0286 S.3       1 <0>        -0.2710
      3 C2         -1.8249   -2.0328    0.0857 C.3       1 <0>        -0.0744
      4 C3         -2.2522   -3.4831    0.3203 C.3       1 <0>        -0.0950
      5 C4         -3.7793   -3.5634    0.3685 C.3       1 <0>         0.0846
      6 H1         -4.1949   -3.1296   -0.5410 H         1 <0>         0.0862
      7 C5         -4.2034   -5.0054    0.4765 C.2       1 <0>         0.4939
      8 O1         -4.3453   -5.5187    1.5733 O.co2     1 <0>        -0.6900
      9 O2         -4.4044   -5.6589   -0.5330 O.co2     1 <0>        -0.6863
     10 N1         -4.2709   -2.8214    1.5322 N.am      1 <0>        -0.6895
     11 C6         -5.5216   -2.3192    1.5320 C.2       1 <0>         0.5425
     12 O3         -6.2421   -2.4819    0.5659 O.2       1 <0>        -0.5194
     13 C7         -6.0158   -1.5731    2.7022 C.ar      1 <0>        -0.1416
     14 C8         -5.2424   -1.4967    3.8633 C.ar      1 <0>        -0.0391
     15 C9         -5.7060   -0.7998    4.9554 C.ar      1 <0>        -0.1925
     16 C10        -6.9464   -0.1666    4.9113 C.ar      1 <0>         0.2076
     17 C11        -7.7266   -0.2337    3.7639 C.ar      1 <0>        -0.1771
     18 C12        -7.2672   -0.9292    2.6531 C.ar      1 <0>         0.0588
     19 C13        -8.0926   -0.9985    1.4240 C.ar      1 <0>        -0.0498
     20 C14        -7.6000   -0.4948    0.2209 C.ar      1 <0>        -0.0456
     21 C15        -8.3730   -0.5625   -0.9203 C.ar      1 <0>        -0.1221
     22 C16        -9.6342   -1.1288   -0.8721 C.ar      1 <0>        -0.1094
     23 C17       -10.1283   -1.6302    0.3188 C.ar      1 <0>        -0.1290
     24 C18        -9.3624   -1.5728    1.4653 C.ar      1 <0>        -0.1014
     25 N2         -7.4056    0.5353    6.0210 N.pl3     1 <0>        -0.7643
     26 C19        -6.5854    0.6076    7.2327 C.3       1 <0>         0.1056
     27 C20        -7.3160    1.4321    8.2945 C.3       1 <0>         0.0456
     28 H2         -7.4142    2.4619    7.9509 H         1 <0>         0.1613
     29 C21        -6.5185    1.4040    9.6000 C.3       1 <0>        -0.1113
     30 S2         -7.3847    2.3816   10.8588 S.3       1 <0>        -0.2491
     31 N3         -8.6507    0.8630    8.5237 N.4       1 <0>        -0.6361
     32 H3          1.4010   -0.0181   -0.3018 H         1 <0>         0.0991
     33 H4         -0.1336    0.1352   -1.1905 H         1 <0>         0.0743
     34 H5         -0.0924    0.4076    0.5680 H         1 <0>         0.0715
     35 H6         -2.1961   -1.4086    0.8986 H         1 <0>         0.0756
     36 H7         -2.2373   -1.6810   -0.8599 H         1 <0>         0.0800
     37 H8         -1.8810   -4.1072   -0.4925 H         1 <0>         0.0887
     38 H9         -1.8398   -3.8349    1.2660 H         1 <0>         0.0749
     39 H10        -3.6962   -2.6916    2.3028 H         1 <0>         0.3880
     40 H11        -4.2801   -1.9853    3.9037 H         1 <0>         0.1337
     41 H12        -5.1055   -0.7437    5.8513 H         1 <0>         0.1245
     42 H13        -8.6877    0.2579    3.7344 H         1 <0>         0.1283
     43 H14        -6.6157   -0.0522    0.1822 H         1 <0>         0.1118
     44 H15        -7.9926   -0.1724   -1.8528 H         1 <0>         0.1196
     45 H16       -10.2357   -1.1793   -1.7677 H         1 <0>         0.1187
     46 H17       -11.1138   -2.0708    0.3505 H         1 <0>         0.1191
     47 H18        -9.7473   -1.9686    2.3935 H         1 <0>         0.1145
     48 H19        -8.2688    0.9768    5.9925 H         1 <0>         0.3927
     49 H20        -6.4086   -0.3987    7.6124 H         1 <0>         0.0933
     50 H21        -5.6317    1.0804    6.9983 H         1 <0>         0.1107
     51 H22        -6.4203    0.3742    9.9436 H         1 <0>         0.1169
     52 H23        -5.5282    1.8263    9.4299 H         1 <0>         0.1373
     53 H24        -6.5983    2.2828   11.9455 H         1 <0>         0.1401
     54 H25        -9.1325    1.4068    9.2239 H         1 <0>         0.4414
     55 H26        -9.1766    0.8816    7.6628 H         1 <0>         0.4360
     56 H27        -8.5598   -0.0902    8.8418 H         1 <0>         0.4383
@<TRIPOS>BOND
     1    1    2 1
     2    1   32 1
     3    1   33 1
     4    1   34 1
     5    2    3 1
     6    3    4 1
     7    3   35 1
     8    3   36 1
     9    4    5 1
    10    4   37 1
    11    4   38 1
    12    5    6 1
    13    5    7 1
    14    5   10 1
    15    7    8 2
    16    7    9 1
    17   10   11 am
    18   10   39 1
    19   11   12 2
    20   11   13 1
    21   13   18 ar
    22   13   14 ar
    23   14   15 ar
    24   14   40 1
    25   15   16 ar
    26   15   41 1
    27   16   17 ar
    28   16   25 1
    29   17   18 ar
    30   17   42 1
    31   18   19 1
    32   19   24 ar
    33   19   20 ar
    34   20   21 ar
    35   20   43 1
    36   21   22 ar
    37   21   44 1
    38   22   23 ar
    39   22   45 1
    40   23   24 ar
    41   23   46 1
    42   24   47 1
    43   25   26 1
    44   25   48 1
    45   26   27 1
    46   26   49 1
    47   26   50 1
    48   27   28 1
    49   27   29 1
    50   27   31 1
    51   29   30 1
    52   29   51 1
    53   29   52 1
    54   30   53 1
    55   31   54 1
    56   31   55 1
    57   31   56 1
@<TRIPOS>MOLECULE
ZINC13775770
   38    41     0     0     0
SMALL
USER_CHARGES
1-[[(2R,3R)-3-[(2-chloro-3-thienyl)methoxy]-5-fluoro-2,3-dihydrobenzothiophen-2-yl]methyl]imidazole
@<TRIPOS>ATOM
      1 C1          6.2358    3.1324   -4.8403 C.ar      1 <0>        -0.1205
      2 C2          5.0280    3.5129   -4.2854 C.ar      1 <0>        -0.0584
      3 C3          4.4928    2.7915   -3.2354 C.ar      1 <0>        -0.0720
      4 C4          5.1404    1.6816   -2.6985 C.ar      1 <0>        -0.1145
      5 C5          6.3562    1.3110   -3.2787 C.ar      1 <0>        -0.1163
      6 C6          6.8914    2.0250   -4.3295 C.ar      1 <0>         0.0995
      7 F1          8.0697    1.6400   -4.8669 F         1 <0>        -0.1336
      8 C7          4.4615    1.0122   -1.5290 C.3       1 <0>         0.1351
      9 H1          4.5709   -0.0680   -1.6254 H         1 <0>         0.0933
     10 C8          2.9580    1.3619   -1.4608 C.3       1 <0>        -0.0688
     11 H2          2.3553    0.6369   -2.0079 H         1 <0>         0.1277
     12 S1          2.9842    2.9927   -2.3138 S.3       1 <0>        -0.1043
     13 C9          2.4818    1.4971   -0.0131 C.3       1 <0>         0.1367
     14 N1          1.0752    1.9066    0.0020 N.pl3     1 <0>        -0.4634
     15 C10        -0.0126    1.0758    0.0080 C.2       1 <0>        -0.0603
     16 C11        -1.1046    1.8638    0.0167 C.2       1 <0>        -0.0247
     17 N2         -0.6947    3.1409    0.0248 N.2       1 <0>        -0.4922
     18 C12         0.6098    3.1743    0.0128 C.2       1 <0>         0.1931
     19 O1          5.0933    1.4352   -0.3191 O.3       1 <0>        -0.3560
     20 C13         6.2183    0.6389    0.0583 C.3       1 <0>         0.1131
     21 C14         6.8035    1.1719    1.3406 C.2       1 <0>        -0.1022
     22 C15         6.2482    2.2764    1.9601 C.2       1 <0>        -0.1355
     23 C16         6.7960    2.7273    3.1146 C.2       1 <0>        -0.1620
     24 S2          8.1471    1.5852    3.3538 S.3       1 <0>         0.1009
     25 C17         7.8867    0.5790    1.9023 C.2       1 <0>        -0.1273
     26 Cl1         8.7859   -0.8004    1.3526 Cl        1 <0>         0.0203
     27 H3          6.6616    3.6908   -5.6609 H         1 <0>         0.1502
     28 H4          4.5028    4.3736   -4.6727 H         1 <0>         0.1437
     29 H5          6.8857    0.4504   -2.8974 H         1 <0>         0.1352
     30 H6          3.0842    2.2475    0.4989 H         1 <0>         0.1183
     31 H7          2.5866    0.5385    0.4949 H         1 <0>         0.1098
     32 H8          0.0021   -0.0041    0.0020 H         1 <0>         0.1738
     33 H9         -2.1306    1.5265    0.0194 H         1 <0>         0.1696
     34 H10         1.2166    4.0677    0.0113 H         1 <0>         0.2032
     35 H11         5.9000   -0.3931    0.2055 H         1 <0>         0.0724
     36 H12         6.9715    0.6781   -0.7287 H         1 <0>         0.0704
     37 H13         5.3882    2.7700    1.5322 H         1 <0>         0.1509
     38 H14         6.4953    3.5631    3.7290 H         1 <0>         0.1950
@<TRIPOS>BOND
     1    1    6 ar
     2    1    2 ar
     3    1   27 1
     4    2    3 ar
     5    2   28 1
     6    3   12 1
     7    3    4 ar
     8    4    5 ar
     9    4    8 1
    10    5    6 ar
    11    5   29 1
    12    6    7 1
    13    8    9 1
    14    8   10 1
    15    8   19 1
    16   10   11 1
    17   10   12 1
    18   10   13 1
    19   13   14 1
    20   13   30 1
    21   13   31 1
    22   14   18 1
    23   14   15 1
    24   15   16 2
    25   15   32 1
    26   16   17 1
    27   16   33 1
    28   17   18 2
    29   18   34 1
    30   19   20 1
    31   20   21 1
    32   20   35 1
    33   20   36 1
    34   21   25 2
    35   21   22 1
    36   22   23 2
    37   22   37 1
    38   23   24 1
    39   23   38 1
    40   24   25 1
    41   25   26 1
@<TRIPOS>MOLECULE
ZINC13775770
   39    42     0     0     0
SMALL
USER_CHARGES
1-[[(2R,3R)-3-[(2-chloro-3-thienyl)methoxy]-5-fluoro-2,3-dihydrobenzothiophen-2-yl]methyl]imidazole
@<TRIPOS>ATOM
      1 C1          6.2358    3.1324   -4.8403 C.ar      1 <0>        -0.1180
      2 C2          5.0280    3.5129   -4.2854 C.ar      1 <0>        -0.0519
      3 C3          4.4928    2.7915   -3.2354 C.ar      1 <0>        -0.0708
      4 C4          5.1404    1.6816   -2.6985 C.ar      1 <0>        -0.1120
      5 C5          6.3562    1.3110   -3.2787 C.ar      1 <0>        -0.1159
      6 C6          6.8914    2.0250   -4.3295 C.ar      1 <0>         0.1140
      7 F1          8.0697    1.6400   -4.8669 F         1 <0>        -0.1263
      8 C7          4.4615    1.0122   -1.5290 C.3       1 <0>         0.1366
      9 H1          4.5709   -0.0680   -1.6254 H         1 <0>         0.1004
     10 C8          2.9580    1.3619   -1.4608 C.3       1 <0>        -0.0778
     11 H2          2.3553    0.6369   -2.0079 H         1 <0>         0.1364
     12 S1          2.9842    2.9927   -2.3138 S.3       1 <0>        -0.1308
     13 C9          2.4818    1.4971   -0.0131 C.3       1 <0>         0.1245
     14 N1          1.0752    1.9066    0.0020 N.pl3     1 <0>        -0.4129
     15 C10        -0.0126    1.0758    0.0080 C.2       1 <0>         0.0223
     16 C11        -1.1046    1.8638    0.0167 C.2       1 <0>         0.0073
     17 C12         0.6098    3.1743    0.0128 C.cat     1 <0>         0.2957
     18 O1          5.0933    1.4352   -0.3191 O.3       1 <0>        -0.3621
     19 C13         6.2183    0.6389    0.0583 C.3       1 <0>         0.1156
     20 C14         6.8035    1.1719    1.3406 C.2       1 <0>        -0.1114
     21 C15         6.2482    2.2764    1.9601 C.2       1 <0>        -0.1393
     22 C16         6.7960    2.7273    3.1146 C.2       1 <0>        -0.1654
     23 S2          8.1471    1.5852    3.3538 S.3       1 <0>         0.1193
     24 C17         7.8867    0.5790    1.9023 C.2       1 <0>        -0.1250
     25 Cl1         8.7859   -0.8004    1.3526 Cl        1 <0>         0.0267
     26 H3          6.6616    3.6908   -5.6609 H         1 <0>         0.1557
     27 H4          4.5028    4.3736   -4.6727 H         1 <0>         0.1459
     28 H5          6.8857    0.4504   -2.8974 H         1 <0>         0.1400
     29 H6          3.0842    2.2475    0.4989 H         1 <0>         0.1436
     30 H7          2.5866    0.5385    0.4949 H         1 <0>         0.1414
     31 H8          0.0021   -0.0041    0.0020 H         1 <0>         0.2229
     32 H9         -2.1306    1.5265    0.0194 H         1 <0>         0.2240
     33 H10         1.2166    4.0677    0.0113 H         1 <0>         0.2577
     34 H11         5.9000   -0.3931    0.2055 H         1 <0>         0.0750
     35 H12         6.9715    0.6781   -0.7287 H         1 <0>         0.0733
     36 H13         5.3882    2.7700    1.5322 H         1 <0>         0.1454
     37 H14         6.4953    3.5631    3.7290 H         1 <0>         0.1948
     38 N2         -0.6939    3.1398    0.0248 N.pl3     1 <0>        -0.4813
     39 H15        -1.3094    3.9615    0.0383 H         1 <0>         0.4824
@<TRIPOS>BOND
     1    1    6 ar
     2    1    2 ar
     3    1   26 1
     4    2    3 ar
     5    2   27 1
     6    3   12 1
     7    3    4 ar
     8    4    5 ar
     9    4    8 1
    10    5    6 ar
    11    5   28 1
    12    6    7 1
    13    8    9 1
    14    8   10 1
    15    8   18 1
    16   10   11 1
    17   10   12 1
    18   10   13 1
    19   13   14 1
    20   13   29 1
    21   13   30 1
    22   14   17 1
    23   14   15 1
    24   15   16 2
    25   15   31 1
    26   16   32 1
    27   16   38 1
    28   17   33 1
    29   17   38 2
    30   18   19 1
    31   19   20 1
    32   19   34 1
    33   19   35 1
    34   20   24 2
    35   20   21 1
    36   21   22 2
    37   21   36 1
    38   22   23 1
    39   22   37 1
    40   23   24 1
    41   24   25 1
    42   38   39 1
@<TRIPOS>MOLECULE
ZINC03821325
   60    61     0     0     0
SMALL
USER_CHARGES

@<TRIPOS>ATOM
      1 C1          0.2500    2.8234   -1.3633 C.3       1 <0>         0.0335
      2 O1          0.2371    1.4392   -1.0088 O.3       1 <0>        -0.3489
      3 C2          0.7917    0.5818   -1.8799 C.2       1 <0>         0.4494
      4 O2          1.2723    0.9929   -2.9095 O.2       1 <0>        -0.4938
      5 C3          0.8151   -0.8937   -1.5740 C.3       1 <0>         0.1667
      6 H1         -0.2061   -1.2574   -1.4604 H         1 <0>         0.1336
      7 C4          1.5890   -1.1332   -0.2760 C.3       1 <0>        -0.1078
      8 C5          1.5071   -2.6138    0.1008 C.3       1 <0>        -0.0874
      9 S1          2.4247   -2.8977    1.6396 S.3       1 <0>        -0.2543
     10 C6          2.2319   -4.6756    1.9438 C.3       1 <0>        -0.1209
     11 N1          1.4693   -1.6098   -2.6719 N.am      1 <0>        -0.7108
     12 C7          0.7574   -1.9773   -3.7556 C.2       1 <0>         0.5626
     13 O3         -0.4282   -1.7144   -3.8221 O.2       1 <0>        -0.5063
     14 C8          1.4152   -2.6974   -4.8596 C.ar      1 <0>        -0.1636
     15 C9          2.7997   -2.8851   -4.8482 C.ar      1 <0>        -0.0337
     16 C10         3.4125   -3.5575   -5.8804 C.ar      1 <0>        -0.1951
     17 C11         2.6588   -4.0552   -6.9416 C.ar      1 <0>         0.2255
     18 C12         1.2815   -3.8763   -6.9668 C.ar      1 <0>        -0.1791
     19 C13         0.6506   -3.2044   -5.9279 C.ar      1 <0>         0.0709
     20 C14        -0.8194   -3.0164   -5.9465 C.ar      1 <0>        -0.0584
     21 C15        -1.6046   -3.5377   -4.9191 C.ar      1 <0>        -0.0525
     22 C16        -2.9728   -3.3591   -4.9416 C.ar      1 <0>        -0.1213
     23 C17        -3.5655   -2.6646   -5.9809 C.ar      1 <0>        -0.1062
     24 C18        -2.7915   -2.1451   -7.0030 C.ar      1 <0>        -0.1259
     25 C19        -1.4218   -2.3128   -6.9886 C.ar      1 <0>        -0.1000
     26 N2          3.2883   -4.7334   -7.9801 N.pl3     1 <0>        -0.7614
     27 C20         4.7407   -4.9234   -7.9567 C.3       1 <0>         0.1036
     28 C21         5.1744   -5.6937   -9.2055 C.3       1 <0>         0.0454
     29 H2          4.7518   -6.6981   -9.1778 H         1 <0>         0.1628
     30 C22         6.7013   -5.7838   -9.2444 C.3       1 <0>        -0.1134
     31 S2          7.2155   -6.6972  -10.7250 S.3       1 <0>        -0.2454
     32 N3          4.6945   -4.9933  -10.4042 N.4       1 <0>        -0.6366
     33 H3          1.2802    3.1572   -1.4872 H         1 <0>         0.0617
     34 H4         -0.2924    2.9641   -2.2983 H         1 <0>         0.0616
     35 H5         -0.2280    3.4049   -0.5750 H         1 <0>         0.1070
     36 H6          2.6324   -0.8515   -0.4179 H         1 <0>         0.0871
     37 H7          1.1553   -0.5306    0.5220 H         1 <0>         0.1091
     38 H8          0.4637   -2.8954    0.2427 H         1 <0>         0.0889
     39 H9          1.9408   -3.2163   -0.6973 H         1 <0>         0.0834
     40 H10         2.7563   -4.9464    2.8602 H         1 <0>         0.1055
     41 H11         1.1733   -4.9139    2.0470 H         1 <0>         0.0790
     42 H12         2.6504   -5.2348    1.1070 H         1 <0>         0.0760
     43 H13         2.4149   -1.8194   -2.6188 H         1 <0>         0.4040
     44 H14         3.3894   -2.5018   -4.0286 H         1 <0>         0.1315
     45 H15         4.4830   -3.7000   -5.8684 H         1 <0>         0.1289
     46 H16         0.7012   -4.2629   -7.7915 H         1 <0>         0.1330
     47 H17        -1.1431   -4.0804   -4.1074 H         1 <0>         0.1123
     48 H18        -3.5821   -3.7627   -4.1465 H         1 <0>         0.1220
     49 H19        -4.6367   -2.5276   -5.9944 H         1 <0>         0.1220
     50 H20        -3.2597   -1.6041   -7.8120 H         1 <0>         0.1222
     51 H21        -0.8181   -1.9030   -7.7848 H         1 <0>         0.1163
     52 H22         2.7655   -5.0807   -8.7197 H         1 <0>         0.3963
     53 H23         5.2340   -3.9515   -7.9398 H         1 <0>         0.0949
     54 H24         5.0191   -5.4877   -7.0667 H         1 <0>         0.1129
     55 H25         7.1239   -4.7795   -9.2721 H         1 <0>         0.1164
     56 H26         7.0574   -6.3035   -8.3550 H         1 <0>         0.1375
     57 H27         8.5583   -6.7102  -10.6492 H         1 <0>         0.1423
     58 H28         5.0857   -4.0636  -10.4298 H         1 <0>         0.4381
     59 H29         4.9805   -5.5014  -11.2277 H         1 <0>         0.4439
     60 H30         3.6875   -4.9339  -10.3785 H         1 <0>         0.4350
@<TRIPOS>BOND
     1    1    2 1
     2    1   33 1
     3    1   34 1
     4    1   35 1
     5    2    3 1
     6    3    4 2
     7    3    5 1
     8    5    6 1
     9    5    7 1
    10    5   11 1
    11    7    8 1
    12    7   36 1
    13    7   37 1
    14    8    9 1
    15    8   38 1
    16    8   39 1
    17    9   10 1
    18   10   40 1
    19   10   41 1
    20   10   42 1
    21   11   12 am
    22   11   43 1
    23   12   13 2
    24   12   14 1
    25   14   19 ar
    26   14   15 ar
    27   15   16 ar
    28   15   44 1
    29   16   17 ar
    30   16   45 1
    31   17   18 ar
    32   17   26 1
    33   18   19 ar
    34   18   46 1
    35   19   20 1
    36   20   25 ar
    37   20   21 ar
    38   21   22 ar
    39   21   47 1
    40   22   23 ar
    41   22   48 1
    42   23   24 ar
    43   23   49 1
    44   24   25 ar
    45   24   50 1
    46   25   51 1
    47   26   27 1
    48   26   52 1
    49   27   28 1
    50   27   53 1
    51   27   54 1
    52   28   29 1
    53   28   30 1
    54   28   32 1
    55   30   31 1
    56   30   55 1
    57   30   56 1
    58   31   57 1
    59   32   58 1
    60   32   59 1
    61   32   60 1
@<TRIPOS>MOLECULE
ZINC24613787
   46    45     0     0     0
SMALL
USER_CHARGES
[(1R,2E,6E)-1-hydroxy-3,7,11-trimethyl-dodeca-2,6,10-trienyl]phosphonic acid
@<TRIPOS>ATOM
      1 C1          2.9327   -1.9440   -7.8366 C.3       1 <0>        -0.1197
      2 C2          3.9804   -3.0245   -7.9127 C.2       1 <0>        -0.1392
      3 C3          4.6172   -3.3968   -6.8302 C.2       1 <0>        -0.1625
      4 C4          4.4084   -2.6493   -5.5384 C.3       1 <0>        -0.0913
      5 C5          3.7955   -3.5894   -4.4985 C.3       1 <0>        -0.0733
      6 C6          3.5867   -2.8419   -3.2067 C.2       1 <0>        -0.1327
      7 C7          2.4232   -2.3001   -2.9442 C.2       1 <0>        -0.1568
      8 C8          2.2379   -1.4832   -1.6915 C.3       1 <0>        -0.0992
      9 C9          1.6755   -0.1082   -2.0578 C.3       1 <0>        -0.0678
     10 C10         1.4902    0.7087   -0.8050 C.2       1 <0>        -0.1427
     11 C11         2.4264    1.5406   -0.4210 C.2       1 <0>        -0.1308
     12 C12         2.2948    2.2695    0.8914 C.3       1 <0>        -0.4567
     13 H1          1.2371    2.1626    1.1741 H         1 <0>         0.0688
     14 O1          2.3842    3.6776    0.6652 O.3       1 <0>        -0.5829
     15 P1          3.6338    1.7479    2.0131 P.3       1 <0>         2.2676
     16 O2          4.9428    2.0671    1.4007 O.2       1 <0>        -1.0748
     17 O3          3.4931    2.5266    3.4152 O.3       1 <0>        -1.1117
     18 O4          3.5330    0.1614    2.2679 O.3       1 <0>        -0.9330
     19 C13         0.2277    0.5686    0.0060 C.3       1 <0>        -0.1280
     20 C14         4.7163   -2.7176   -2.2170 C.3       1 <0>        -0.1350
     21 C15         4.2956   -3.6768   -9.2342 C.3       1 <0>        -0.1171
     22 H2          2.5119   -1.7701   -8.8380 H         1 <0>         0.0577
     23 H3          3.3901   -1.0153   -7.4647 H         1 <0>         0.0672
     24 H4          2.1313   -2.2579   -7.1516 H         1 <0>         0.0661
     25 H5          5.3044   -4.2551   -6.8641 H         1 <0>         0.1084
     26 H6          5.3755   -2.2760   -5.1704 H         1 <0>         0.0727
     27 H7          3.7296   -1.8011   -5.7111 H         1 <0>         0.0724
     28 H8          2.8285   -3.9627   -4.8665 H         1 <0>         0.0639
     29 H9          4.4743   -4.4376   -4.3257 H         1 <0>         0.0662
     30 H10         1.5815   -2.4415   -3.6382 H         1 <0>         0.1056
     31 H11         1.5372   -1.9984   -1.0181 H         1 <0>         0.0701
     32 H12         3.2077   -1.3602   -1.1871 H         1 <0>         0.0865
     33 H13         2.3763    0.4070   -2.7312 H         1 <0>         0.0658
     34 H14         0.7057   -0.2312   -2.5622 H         1 <0>         0.0637
     35 H15         3.3087    1.7071   -1.0565 H         1 <0>         0.1154
     36 H16         2.3093    4.3764    1.5114 H         1 <0>         0.4034
     37 H17         4.2618   -0.3378    2.9234 H         1 <0>         0.4442
     38 H18         0.2749    1.2393    0.8766 H         1 <0>         0.0712
     39 H19         0.1261   -0.4715    0.3494 H         1 <0>         0.0649
     40 H20        -0.6393    0.8357   -0.6161 H         1 <0>         0.0592
     41 H21         4.3764   -2.1427   -1.3429 H         1 <0>         0.0807
     42 H22         5.5630   -2.1989   -2.6903 H         1 <0>         0.0639
     43 H23         5.0340   -3.7204   -1.8954 H         1 <0>         0.0635
     44 H24         5.0796   -4.4350   -9.0911 H         1 <0>         0.0594
     45 H25         4.6480   -2.9144   -9.9446 H         1 <0>         0.0649
     46 H26         3.3892   -4.1571   -9.6314 H         1 <0>         0.0621
@<TRIPOS>BOND
     1    1    2 1
     2    1   22 1
     3    1   23 1
     4    1   24 1
     5    2    3 2
     6    2   21 1
     7    3    4 1
     8    3   25 1
     9    4    5 1
    10    4   26 1
    11    4   27 1
    12    5    6 1
    13    5   28 1
    14    5   29 1
    15    6    7 2
    16    6   20 1
    17    7    8 1
    18    7   30 1
    19    8    9 1
    20    8   31 1
    21    8   32 1
    22    9   10 1
    23    9   33 1
    24    9   34 1
    25   10   11 2
    26   10   19 1
    27   11   12 1
    28   11   35 1
    29   12   13 1
    30   12   14 1
    31   12   15 1
    32   14   36 1
    33   15   16 2
    34   15   17 1
    35   15   18 1
    36   18   37 1
    37   19   38 1
    38   19   39 1
    39   19   40 1
    40   20   41 1
    41   20   42 1
    42   20   43 1
    43   21   44 1
    44   21   45 1
    45   21   46 1
@<TRIPOS>MOLECULE
ZINC24789264
   46    45     0     0     0
SMALL
USER_CHARGES
[(1S,2E,6E)-1-hydroxy-3,7,11-trimethyl-dodeca-2,6,10-trienyl]phosphonic acid
@<TRIPOS>ATOM
      1 C1         -4.4551    4.0734    8.6477 C.3       1 <0>        -0.1210
      2 C2         -5.8732    4.1537    8.1442 C.2       1 <0>        -0.1368
      3 C3         -6.1116    4.1600    6.8561 C.2       1 <0>        -0.1645
      4 C4         -4.9659    4.1250    5.8777 C.3       1 <0>        -0.0919
      5 C5         -5.0353    2.8356    5.0570 C.3       1 <0>        -0.0718
      6 C6         -3.8897    2.8006    4.0786 C.2       1 <0>        -0.1355
      7 C7         -2.7821    2.1738    4.3890 C.2       1 <0>        -0.1536
      8 C8         -1.5965    2.2342    3.4606 C.3       1 <0>        -0.0965
      9 C9         -0.3890    2.7989    4.2115 C.3       1 <0>        -0.0695
     10 C10         0.7965    2.8593    3.2831 C.2       1 <0>        -0.1366
     11 C11         1.0709    3.9685    2.6424 C.2       1 <0>        -0.1125
     12 C12         2.3396    4.0792    1.8366 C.3       1 <0>        -0.4602
     13 H1          2.7726    3.0680    1.8429 H         1 <0>         0.0691
     14 O1          2.0136    4.2366    0.4542 O.3       1 <0>        -0.5906
     15 P1          3.2957    5.5239    2.4039 P.3       1 <0>         2.2623
     16 O2          2.4884    6.7513    2.2241 O.2       1 <0>        -1.0734
     17 O3          3.6629    5.3466    3.9614 O.3       1 <0>        -1.1036
     18 O4          4.6511    5.6422    1.5430 O.3       1 <0>        -0.9393
     19 C13         1.6664    1.6437    3.0918 C.3       1 <0>        -0.1248
     20 C14        -4.0183    3.4867    2.7430 C.3       1 <0>        -0.1325
     21 C15        -7.0171    4.2267    9.1226 C.3       1 <0>        -0.1172
     22 H2         -4.4557    4.0800    9.7477 H         1 <0>         0.0582
     23 H3         -3.8846    4.9374    8.2761 H         1 <0>         0.0692
     24 H4         -3.9900    3.1442    8.2868 H         1 <0>         0.0668
     25 H5         -7.1480    4.1908    6.4887 H         1 <0>         0.1071
     26 H6         -5.0322    4.9923    5.2043 H         1 <0>         0.0711
     27 H7         -4.0135    4.1592    6.4270 H         1 <0>         0.0749
     28 H8         -4.9690    1.9683    5.7304 H         1 <0>         0.0645
     29 H9         -5.9877    2.8013    4.5078 H         1 <0>         0.0644
     30 H10        -2.7174    1.6034    5.3273 H         1 <0>         0.1079
     31 H11        -1.3626    1.2223    3.0983 H         1 <0>         0.0656
     32 H12        -1.8332    2.8842    2.6053 H         1 <0>         0.0797
     33 H13        -0.6230    3.8108    4.5738 H         1 <0>         0.0720
     34 H14        -0.1523    2.1489    5.0667 H         1 <0>         0.0677
     35 H15         0.3753    4.8191    2.6926 H         1 <0>         0.1164
     36 H16         2.8156    4.3343   -0.2923 H         1 <0>         0.3894
     37 H17         5.3605    6.4586    1.7435 H         1 <0>         0.4469
     38 H18         2.4745    1.8789    2.3835 H         1 <0>         0.0686
     39 H19         1.0592    0.8172    2.6940 H         1 <0>         0.0578
     40 H20         2.1005    1.3477    4.0582 H         1 <0>         0.0644
     41 H21        -3.0881    3.3532    2.1712 H         1 <0>         0.0762
     42 H22        -4.2024    4.5600    2.8984 H         1 <0>         0.0640
     43 H23        -4.8582    3.0476    2.1846 H         1 <0>         0.0615
     44 H24        -7.9678    4.2793    8.5719 H         1 <0>         0.0585
     45 H25        -6.9065    5.1236    9.7497 H         1 <0>         0.0645
     46 H26        -7.0118    3.3305    9.7604 H         1 <0>         0.0631
@<TRIPOS>BOND
     1    1    2 1
     2    1   22 1
     3    1   23 1
     4    1   24 1
     5    2    3 2
     6    2   21 1
     7    3    4 1
     8    3   25 1
     9    4    5 1
    10    4   26 1
    11    4   27 1
    12    5    6 1
    13    5   28 1
    14    5   29 1
    15    6    7 2
    16    6   20 1
    17    7    8 1
    18    7   30 1
    19    8    9 1
    20    8   31 1
    21    8   32 1
    22    9   10 1
    23    9   33 1
    24    9   34 1
    25   10   11 2
    26   10   19 1
    27   11   12 1
    28   11   35 1
    29   12   13 1
    30   12   14 1
    31   12   15 1
    32   14   36 1
    33   15   16 2
    34   15   17 1
    35   15   18 1
    36   18   37 1
    37   19   38 1
    38   19   39 1
    39   19   40 1
    40   20   41 1
    41   20   42 1
    42   20   43 1
    43   21   44 1
    44   21   45 1
    45   21   46 1
@<TRIPOS>MOLECULE
ZINC13796731
   62    65     0     0     0
SMALL
USER_CHARGES

@<TRIPOS>ATOM
      1 C1         -0.0187    1.5258    0.0104 C.3       1 <0>        -0.1451
      2 C2          0.0021   -0.0041    0.0020 C.3       1 <0>        -0.0944
      3 C3          0.7421   -0.5109    1.2415 C.3       1 <0>        -0.1473
      4 C4         -1.4333   -0.5336    0.0129 C.3       1 <0>        -0.1058
      5 C5         -1.4157   -2.0577   -0.1212 C.3       1 <0>         0.0774
      6 H1         -0.7891   -2.4841    0.6622 H         1 <0>         0.0855
      7 C6         -2.8192   -2.5900    0.0125 C.2       1 <0>         0.4924
      8 O1         -3.3892   -3.0569   -0.9588 O.co2     1 <0>        -0.6888
      9 O2         -3.3846   -2.5537    1.0921 O.co2     1 <0>        -0.6963
     10 N1         -0.8765   -2.4263   -1.4325 N.am      1 <0>        -0.6866
     11 C7         -0.2982   -3.6308   -1.6090 C.2       1 <0>         0.5458
     12 O3         -0.2240   -4.4118   -0.6796 O.2       1 <0>        -0.5181
     13 C8          0.2439   -4.0014   -2.9273 C.ar      1 <0>        -0.1440
     14 C9          0.1654   -3.1044   -3.9955 C.ar      1 <0>        -0.0401
     15 C10         0.6724   -3.4523   -5.2264 C.ar      1 <0>        -0.1973
     16 C11         1.2669   -4.6984   -5.4168 C.ar      1 <0>         0.2137
     17 C12         1.3527   -5.6014   -4.3654 C.ar      1 <0>        -0.1777
     18 C13         0.8492   -5.2603   -3.1152 C.ar      1 <0>         0.0580
     19 C14         0.9432   -6.2156   -1.9897 C.ar      1 <0>        -0.0236
     20 C15         2.1789   -6.5753   -1.4783 C.ar      1 <0>        -0.1096
     21 C16         2.2748   -7.4723   -0.4210 C.ar      1 <0>        -0.1270
     22 C17         1.1616   -8.0214    0.1408 C.ar      1 <0>        -0.0975
     23 C18        -0.1128   -7.6845   -0.3467 C.ar      1 <0>        -0.0534
     24 C19        -0.2295   -6.7676   -1.4198 C.ar      1 <0>         0.0118
     25 C20        -1.5017   -6.4282   -1.9016 C.ar      1 <0>        -0.0837
     26 C21        -2.6086   -6.9784   -1.3293 C.ar      1 <0>        -0.1028
     27 C22        -2.4962   -7.8755   -0.2693 C.ar      1 <0>        -0.1100
     28 C23        -1.2766   -8.2379    0.2150 C.ar      1 <0>        -0.1149
     29 N2          1.7759   -5.0393   -6.6657 N.pl3     1 <0>        -0.7533
     30 C24         1.6866   -4.0892   -7.7773 C.3       1 <0>         0.1868
     31 C25         2.3064   -4.6974   -9.0089 C.2       1 <0>         0.0142
     32 C26         3.5764   -4.5259   -9.4228 C.2       1 <0>         0.0574
     33 N3          3.7188   -5.2508  -10.5751 N.pl3     1 <0>        -0.5116
     34 H2          4.5233   -5.3268  -11.1116 H         1 <0>         0.4685
     35 C27         2.5300   -5.8405  -10.8255 C.cat     1 <0>         0.3111
     36 N4          1.6916   -5.5090   -9.8819 N.pl3     1 <0>        -0.4687
     37 H3          1.0039    1.9031    0.0027 H         1 <0>         0.0487
     38 H4         -0.5459    1.8868   -0.8726 H         1 <0>         0.0507
     39 H5         -0.5289    1.8773    0.9072 H         1 <0>         0.0547
     40 H6          0.5123   -0.3556   -0.8948 H         1 <0>         0.0630
     41 H7          0.2319   -0.1594    2.1383 H         1 <0>         0.0550
     42 H8          0.7568   -1.6008    1.2356 H         1 <0>         0.0584
     43 H9          1.7647   -0.1336    1.2338 H         1 <0>         0.0462
     44 H10        -1.9156   -0.2570    0.9504 H         1 <0>         0.0801
     45 H11        -1.9862   -0.1019   -0.8214 H         1 <0>         0.0585
     46 H12        -0.9356   -1.8035   -2.1738 H         1 <0>         0.3839
     47 H13        -0.2939   -2.1371   -3.8550 H         1 <0>         0.1313
     48 H14         0.6090   -2.7561   -6.0496 H         1 <0>         0.1236
     49 H15         1.8136   -6.5662   -4.5177 H         1 <0>         0.1269
     50 H16         3.0772   -6.1549   -1.9057 H         1 <0>         0.1145
     51 H17         3.2488   -7.7390   -0.0382 H         1 <0>         0.1176
     52 H18         1.2587   -8.7167    0.9615 H         1 <0>         0.1209
     53 H19        -1.6035   -5.7335   -2.7222 H         1 <0>         0.1143
     54 H20        -3.5874   -6.7153   -1.7024 H         1 <0>         0.1197
     55 H21        -3.3891   -8.2975    0.1677 H         1 <0>         0.1189
     56 H22        -1.2042   -8.9356    1.0362 H         1 <0>         0.1218
     57 H23         2.1901   -5.9060   -6.8005 H         1 <0>         0.4008
     58 H24         0.6398   -3.8575   -7.9739 H         1 <0>         0.0927
     59 H25         2.2186   -3.1742   -7.5168 H         1 <0>         0.1076
     60 H26         4.3364   -3.9305   -8.9387 H         1 <0>         0.2302
     61 H27         2.3106   -6.4833  -11.6652 H         1 <0>         0.2678
     62 H28         0.7688   -5.8019   -9.8224 H         1 <0>         0.4675
@<TRIPOS>BOND
     1    1    2 1
     2    1   37 1
     3    1   38 1
     4    1   39 1
     5    2    3 1
     6    2    4 1
     7    2   40 1
     8    3   41 1
     9    3   42 1
    10    3   43 1
    11    4    5 1
    12    4   44 1
    13    4   45 1
    14    5    6 1
    15    5    7 1
    16    5   10 1
    17    7    8 2
    18    7    9 1
    19   10   11 am
    20   10   46 1
    21   11   12 2
    22   11   13 1
    23   13   18 ar
    24   13   14 ar
    25   14   15 ar
    26   14   47 1
    27   15   16 ar
    28   15   48 1
    29   16   17 ar
    30   16   29 1
    31   17   18 ar
    32   17   49 1
    33   18   19 1
    34   19   24 ar
    35   19   20 ar
    36   20   21 ar
    37   20   50 1
    38   21   22 ar
    39   21   51 1
    40   22   23 ar
    41   22   52 1
    42   23   28 ar
    43   23   24 ar
    44   24   25 ar
    45   25   26 ar
    46   25   53 1
    47   26   27 ar
    48   26   54 1
    49   27   28 ar
    50   27   55 1
    51   28   56 1
    52   29   30 1
    53   29   57 1
    54   30   31 1
    55   30   58 1
    56   30   59 1
    57   31   36 1
    58   31   32 2
    59   32   33 1
    60   32   60 1
    61   33   34 1
    62   33   35 1
    63   35   36 2
    64   35   61 1
    65   36   62 1
@<TRIPOS>MOLECULE
ZINC13796731
   61    64     0     0     0
SMALL
USER_CHARGES

@<TRIPOS>ATOM
      1 C1          0.8560   -0.2422   -1.2378 C.3       1 <0>        -0.1440
      2 C2         -0.0457   -0.0907   -0.0110 C.3       1 <0>        -0.0963
      3 C3         -1.3347   -0.8869   -0.2240 C.3       1 <0>        -0.1459
      4 C4          0.6827   -0.6207    1.2257 C.3       1 <0>        -0.1044
      5 C5         -0.1607   -0.3438    2.4719 C.3       1 <0>         0.0788
      6 H1         -1.1500   -0.7837    2.3462 H         1 <0>         0.0833
      7 C6          0.5097   -0.9512    3.6773 C.2       1 <0>         0.4925
      8 O1          1.0107   -0.2308    4.5238 O.co2     1 <0>        -0.6864
      9 O2          0.5510   -2.1629    3.8059 O.co2     1 <0>        -0.7022
     10 N1         -0.2901    1.1030    2.6624 N.am      1 <0>        -0.6909
     11 C7         -1.3436    1.6020    3.3389 C.2       1 <0>         0.5529
     12 O3         -2.1869    0.8512    3.7912 O.2       1 <0>        -0.5263
     13 C8         -1.4738    3.0564    3.5303 C.ar      1 <0>        -0.1667
     14 C9         -0.5100    3.9220    3.0071 C.ar      1 <0>        -0.0367
     15 C10        -0.6332    5.2805    3.1869 C.ar      1 <0>        -0.2037
     16 C11        -1.7174    5.8026    3.8900 C.ar      1 <0>         0.2365
     17 C12        -2.6840    4.9559    4.4164 C.ar      1 <0>        -0.1907
     18 C13        -2.5742    3.5816    4.2372 C.ar      1 <0>         0.0530
     19 C14        -3.6039    2.6750    4.7904 C.ar      1 <0>        -0.0087
     20 C15        -4.9011    2.7112    4.3069 C.ar      1 <0>        -0.1158
     21 C16        -5.8737    1.8624    4.8218 C.ar      1 <0>        -0.1222
     22 C17        -5.5811    0.9740    5.8125 C.ar      1 <0>        -0.1071
     23 C18        -4.2775    0.9032    6.3328 C.ar      1 <0>        -0.0524
     24 C19        -3.2725    1.7566    5.8158 C.ar      1 <0>         0.0105
     25 C20        -1.9710    1.6812    6.3320 C.ar      1 <0>        -0.0757
     26 C21        -1.6875    0.7857    7.3186 C.ar      1 <0>        -0.1097
     27 C22        -2.6733   -0.0593    7.8239 C.ar      1 <0>        -0.1106
     28 C23        -3.9503   -0.0041    7.3556 C.ar      1 <0>        -0.1194
     29 N2         -1.8316    7.1778    4.0656 N.pl3     1 <0>        -0.7369
     30 C24        -0.8134    8.0739    3.5120 C.3       1 <0>         0.2106
     31 C25        -1.1690    9.5013    3.8393 C.2       1 <0>        -0.0178
     32 C26        -0.7086   10.2114    4.8869 C.2       1 <0>        -0.0300
     33 N3         -1.2800   11.4526    4.8059 N.pl3     1 <0>        -0.5703
     34 H2         -1.1430   12.1905    5.4203 H         1 <0>         0.4220
     35 C27        -2.0703   11.4578    3.7108 C.2       1 <0>         0.1851
     36 N4         -1.9950   10.2892    3.1349 N.2       1 <0>        -0.4795
     37 H3          1.1698   -1.2818   -1.3319 H         1 <0>         0.0528
     38 H4          0.3064    0.0537   -2.1314 H         1 <0>         0.0484
     39 H5          1.7340    0.3935   -1.1241 H         1 <0>         0.0505
     40 H6         -0.2885    0.9620    0.1336 H         1 <0>         0.0661
     41 H7         -1.0919   -1.9396   -0.3687 H         1 <0>         0.0527
     42 H8         -1.9770   -0.7789    0.6500 H         1 <0>         0.0591
     43 H9         -1.8536   -0.5093   -1.1051 H         1 <0>         0.0455
     44 H10         0.8381   -1.6947    1.1235 H         1 <0>         0.0772
     45 H11         1.6469   -0.1215    1.3213 H         1 <0>         0.0581
     46 H12         0.3824    1.7017    2.3017 H         1 <0>         0.3846
     47 H13         0.3328    3.5243    2.4612 H         1 <0>         0.1259
     48 H14         0.1146    5.9460    2.7813 H         1 <0>         0.1244
     49 H15        -3.5221    5.3648    4.9612 H         1 <0>         0.1244
     50 H16        -5.1597    3.4065    3.5219 H         1 <0>         0.1157
     51 H17        -6.8791    1.9080    4.4301 H         1 <0>         0.1154
     52 H18        -6.3520    0.3236    6.1987 H         1 <0>         0.1177
     53 H19        -1.1970    2.3297    5.9491 H         1 <0>         0.1173
     54 H20        -0.6842    0.7296    7.7144 H         1 <0>         0.1181
     55 H21        -2.4230   -0.7612    8.6056 H         1 <0>         0.1157
     56 H22        -4.7048   -0.6641    7.7576 H         1 <0>         0.1186
     57 H23        -2.5853    7.5434    4.5546 H         1 <0>         0.4000
     58 H24         0.1572    7.8328    3.9454 H         1 <0>         0.0737
     59 H25        -0.7693    7.9494    2.4301 H         1 <0>         0.0740
     60 H26        -0.0210    9.8674    5.6454 H         1 <0>         0.1800
     61 H27        -2.6631   12.2923    3.3664 H         1 <0>         0.2092
@<TRIPOS>BOND
     1    1    2 1
     2    1   37 1
     3    1   38 1
     4    1   39 1
     5    2    3 1
     6    2    4 1
     7    2   40 1
     8    3   41 1
     9    3   42 1
    10    3   43 1
    11    4    5 1
    12    4   44 1
    13    4   45 1
    14    5    6 1
    15    5    7 1
    16    5   10 1
    17    7    8 2
    18    7    9 1
    19   10   11 am
    20   10   46 1
    21   11   12 2
    22   11   13 1
    23   13   18 ar
    24   13   14 ar
    25   14   15 ar
    26   14   47 1
    27   15   16 ar
    28   15   48 1
    29   16   17 ar
    30   16   29 1
    31   17   18 ar
    32   17   49 1
    33   18   19 1
    34   19   24 ar
    35   19   20 ar
    36   20   21 ar
    37   20   50 1
    38   21   22 ar
    39   21   51 1
    40   22   23 ar
    41   22   52 1
    42   23   28 ar
    43   23   24 ar
    44   24   25 ar
    45   25   26 ar
    46   25   53 1
    47   26   27 ar
    48   26   54 1
    49   27   28 ar
    50   27   55 1
    51   28   56 1
    52   29   30 1
    53   29   57 1
    54   30   31 1
    55   30   58 1
    56   30   59 1
    57   31   36 1
    58   31   32 2
    59   32   33 1
    60   32   60 1
    61   33   34 1
    62   33   35 1
    63   35   36 2
    64   35   61 1
@<TRIPOS>MOLECULE
ZINC13796731
   61    64     0     0     0
SMALL
USER_CHARGES

@<TRIPOS>ATOM
      1 C1         -0.0187    1.5258    0.0104 C.3       1 <0>        -0.1441
      2 C2          0.0021   -0.0041    0.0020 C.3       1 <0>        -0.0956
      3 C3          0.7421   -0.5109    1.2415 C.3       1 <0>        -0.1466
      4 C4         -1.4333   -0.5336    0.0129 C.3       1 <0>        -0.1060
      5 C5         -1.4157   -2.0577   -0.1212 C.3       1 <0>         0.0793
      6 H1         -0.7891   -2.4841    0.6622 H         1 <0>         0.0840
      7 C6         -2.8192   -2.5900    0.0125 C.2       1 <0>         0.4937
      8 O1         -3.5206   -2.7151   -0.9768 O.co2     1 <0>        -0.6930
      9 O2         -3.2532   -2.8956    1.1101 O.co2     1 <0>        -0.6966
     10 N1         -0.8765   -2.4263   -1.4325 N.am      1 <0>        -0.6910
     11 C7         -0.2982   -3.6308   -1.6090 C.2       1 <0>         0.5471
     12 O3         -0.2240   -4.4118   -0.6796 O.2       1 <0>        -0.5224
     13 C8          0.2439   -4.0014   -2.9273 C.ar      1 <0>        -0.1640
     14 C9          0.1654   -3.1044   -3.9955 C.ar      1 <0>        -0.0369
     15 C10         0.6724   -3.4523   -5.2264 C.ar      1 <0>        -0.2026
     16 C11         1.2669   -4.6984   -5.4168 C.ar      1 <0>         0.2319
     17 C12         1.3527   -5.6014   -4.3654 C.ar      1 <0>        -0.1880
     18 C13         0.8492   -5.2603   -3.1152 C.ar      1 <0>         0.0544
     19 C14         0.9432   -6.2156   -1.9897 C.ar      1 <0>        -0.0124
     20 C15         2.1789   -6.5753   -1.4783 C.ar      1 <0>        -0.1135
     21 C16         2.2748   -7.4723   -0.4210 C.ar      1 <0>        -0.1226
     22 C17         1.1616   -8.0214    0.1408 C.ar      1 <0>        -0.1048
     23 C18        -0.1128   -7.6845   -0.3467 C.ar      1 <0>        -0.0520
     24 C19        -0.2295   -6.7676   -1.4198 C.ar      1 <0>         0.0113
     25 C20        -1.5017   -6.4282   -1.9016 C.ar      1 <0>        -0.0814
     26 C21        -2.6086   -6.9784   -1.3293 C.ar      1 <0>        -0.1102
     27 C22        -2.4962   -7.8755   -0.2693 C.ar      1 <0>        -0.1100
     28 C23        -1.2766   -8.2379    0.2150 C.ar      1 <0>        -0.1165
     29 N2          1.7759   -5.0393   -6.6657 N.pl3     1 <0>        -0.7433
     30 C24         1.6866   -4.0892   -7.7773 C.3       1 <0>         0.2021
     31 C25         2.3064   -4.6974   -9.0089 C.2       1 <0>        -0.0466
     32 C26         3.5739   -4.5343   -9.4338 C.2       1 <0>         0.0015
     33 N3          3.7265   -5.2398  -10.5643 N.2       1 <0>        -0.4962
     34 C27         2.6019   -5.8339  -10.8560 C.2       1 <0>         0.1940
     35 N4          1.6911   -5.5265   -9.9075 N.pl3     1 <0>        -0.5619
     36 H2          0.7719   -5.8341   -9.8710 H         1 <0>         0.4219
     37 H3          1.0039    1.9031    0.0027 H         1 <0>         0.0485
     38 H4         -0.5459    1.8868   -0.8726 H         1 <0>         0.0513
     39 H5         -0.5289    1.8773    0.9072 H         1 <0>         0.0526
     40 H6          0.5123   -0.3556   -0.8948 H         1 <0>         0.0660
     41 H7          1.7647   -0.1336    1.2338 H         1 <0>         0.0459
     42 H8          0.2319   -0.1594    2.1383 H         1 <0>         0.0527
     43 H9          0.7568   -1.6008    1.2356 H         1 <0>         0.0598
     44 H10        -1.9156   -0.2570    0.9504 H         1 <0>         0.0734
     45 H11        -1.9862   -0.1019   -0.8214 H         1 <0>         0.0618
     46 H12        -0.9356   -1.8035   -2.1738 H         1 <0>         0.3859
     47 H13        -0.2939   -2.1371   -3.8550 H         1 <0>         0.1277
     48 H14         0.6090   -2.7561   -6.0496 H         1 <0>         0.1245
     49 H15         1.8136   -6.5662   -4.5177 H         1 <0>         0.1255
     50 H16         3.0772   -6.1549   -1.9057 H         1 <0>         0.1161
     51 H17         3.2488   -7.7390   -0.0382 H         1 <0>         0.1163
     52 H18         1.2587   -8.7167    0.9615 H         1 <0>         0.1188
     53 H19        -1.6035   -5.7335   -2.7222 H         1 <0>         0.1158
     54 H20        -3.5874   -6.7153   -1.7024 H         1 <0>         0.1180
     55 H21        -3.3891   -8.2975    0.1677 H         1 <0>         0.1170
     56 H22        -1.2042   -8.9356    1.0362 H         1 <0>         0.1199
     57 H23         2.1901   -5.9060   -6.8005 H         1 <0>         0.4010
     58 H24         0.6398   -3.8575   -7.9739 H         1 <0>         0.0694
     59 H25         2.2186   -3.1742   -7.5168 H         1 <0>         0.0875
     60 H26         4.3341   -3.9396   -8.9493 H         1 <0>         0.1721
     61 H27         2.4292   -6.4694  -11.7120 H         1 <0>         0.2099
@<TRIPOS>BOND
     1    1    2 1
     2    1   37 1
     3    1   38 1
     4    1   39 1
     5    2    3 1
     6    2    4 1
     7    2   40 1
     8    3   41 1
     9    3   42 1
    10    3   43 1
    11    4    5 1
    12    4   44 1
    13    4   45 1
    14    5    6 1
    15    5    7 1
    16    5   10 1
    17    7    8 2
    18    7    9 1
    19   10   11 am
    20   10   46 1
    21   11   12 2
    22   11   13 1
    23   13   18 ar
    24   13   14 ar
    25   14   15 ar
    26   14   47 1
    27   15   16 ar
    28   15   48 1
    29   16   17 ar
    30   16   29 1
    31   17   18 ar
    32   17   49 1
    33   18   19 1
    34   19   24 ar
    35   19   20 ar
    36   20   21 ar
    37   20   50 1
    38   21   22 ar
    39   21   51 1
    40   22   23 ar
    41   22   52 1
    42   23   28 ar
    43   23   24 ar
    44   24   25 ar
    45   25   26 ar
    46   25   53 1
    47   26   27 ar
    48   26   54 1
    49   27   28 ar
    50   27   55 1
    51   28   56 1
    52   29   30 1
    53   29   57 1
    54   30   31 1
    55   30   58 1
    56   30   59 1
    57   31   35 1
    58   31   32 2
    59   32   33 1
    60   32   60 1
    61   33   34 2
    62   34   35 1
    63   34   61 1
    64   35   36 1
@<TRIPOS>MOLECULE
ZINC13796725
   64    66     0     0     0
SMALL
USER_CHARGES
(2S)-2-[[4-[[(2R)-2-amino-3-sulfanyl-propyl]amino]-2-(1-naphthyl)benzoyl]amino]-4-methyl-pentanoic acid
@<TRIPOS>ATOM
      1 C1         12.5817    5.3523    2.6500 C.3       1 <0>        -0.1453
      2 C2         11.6546    6.3674    1.9784 C.3       1 <0>        -0.0944
      3 C3         11.8205    7.7320    2.6502 C.3       1 <0>        -0.1480
      4 C4         12.0127    6.4821    0.4954 C.3       1 <0>        -0.1057
      5 C5         11.0082    7.4015   -0.2022 C.3       1 <0>         0.1035
      6 H1         10.9761    8.3617    0.3126 H         1 <0>         0.0919
      7 C6         11.4304    7.6128   -1.6334 C.2       1 <0>         0.4593
      8 O1         10.6964    7.2829   -2.5347 O.co2     1 <0>        -0.6301
      9 N1          9.6792    6.7858   -0.1709 N.am      1 <0>        -0.6921
     10 C7          8.5770    7.5578   -0.2466 C.2       1 <0>         0.5466
     11 O2          8.6857    8.7655   -0.3408 O.2       1 <0>        -0.5125
     12 C8          7.2410    6.9389   -0.2151 C.ar      1 <0>        -0.1387
     13 C9          7.1127    5.5519   -0.1069 C.ar      1 <0>        -0.0419
     14 C10         5.8637    4.9755   -0.0772 C.ar      1 <0>        -0.1915
     15 C11         4.7199    5.7682   -0.1546 C.ar      1 <0>         0.2071
     16 C12         4.8303    7.1477   -0.2681 C.ar      1 <0>        -0.1753
     17 C13         6.0863    7.7433   -0.2935 C.ar      1 <0>         0.0598
     18 C14         6.2103    9.2129   -0.4083 C.ar      1 <0>        -0.0295
     19 C15         5.7520   10.0354    0.6072 C.ar      1 <0>        -0.1068
     20 C16         5.8659   11.4169    0.5066 C.ar      1 <0>        -0.1283
     21 C17         6.4287   11.9998   -0.5887 C.ar      1 <0>        -0.0945
     22 C18         6.9067   11.2032   -1.6433 C.ar      1 <0>        -0.0546
     23 C19         6.8041    9.7935   -1.5551 C.ar      1 <0>         0.0135
     24 C20         7.2767    9.0004   -2.6103 C.ar      1 <0>        -0.0865
     25 C21         7.8366    9.5933   -3.7015 C.ar      1 <0>        -0.0995
     26 C22         7.9432   10.9797   -3.7878 C.ar      1 <0>        -0.1112
     27 C23         7.4908   11.7806   -2.7843 C.ar      1 <0>        -0.1126
     28 N2          3.4624    5.1743   -0.1236 N.pl3     1 <0>        -0.7642
     29 C24         3.3423    3.7187   -0.0099 C.3       1 <0>         0.1050
     30 C25         1.8630    3.3284    0.0021 C.3       1 <0>         0.0496
     31 H2          1.3891    3.7278    0.8988 H         1 <0>         0.1595
     32 C26         1.7378    1.8035   -0.0048 C.3       1 <0>        -0.1083
     33 S1         -0.0162    1.3408    0.0094 S.3       1 <0>        -0.2485
     34 H3         13.6155    5.6830    2.5504 H         1 <0>         0.0559
     35 H4         12.3266    5.2706    3.7065 H         1 <0>         0.0492
     36 H5         12.4635    4.3801    2.1714 H         1 <0>         0.0506
     37 H6         10.6208    6.0367    2.0781 H         1 <0>         0.0623
     38 H7         11.1601    8.4552    2.1718 H         1 <0>         0.0578
     39 H8         11.5654    7.6503    3.7067 H         1 <0>         0.0469
     40 H9         12.8544    8.0627    2.5506 H         1 <0>         0.0565
     41 H10        11.9805    5.4940    0.0364 H         1 <0>         0.0580
     42 H11        13.0157    6.8969    0.3948 H         1 <0>         0.0872
     43 H12         9.5925    5.8227   -0.0958 H         1 <0>         0.3849
     44 H13         7.9947    4.9316   -0.0469 H         1 <0>         0.1321
     45 H14         5.7690    3.9029    0.0069 H         1 <0>         0.1241
     46 H15         3.9414    7.7577   -0.3326 H         1 <0>         0.1289
     47 H16         5.3017    9.5989    1.4864 H         1 <0>         0.1148
     48 H17         5.5024   12.0392    1.3110 H         1 <0>         0.1185
     49 H18         6.5071   13.0754   -0.6468 H         1 <0>         0.1217
     50 H19         7.2008    7.9244   -2.5565 H         1 <0>         0.1132
     51 H20         8.2036    8.9798   -4.5110 H         1 <0>         0.1197
     52 H21         8.3915   11.4255   -4.6633 H         1 <0>         0.1194
     53 H22         7.5798   12.8539   -2.8645 H         1 <0>         0.1224
     54 H23         2.6650    5.7240   -0.1773 H         1 <0>         0.3922
     55 H24         3.8133    3.3865    0.9153 H         1 <0>         0.1100
     56 H25         3.8359    3.2460   -0.8590 H         1 <0>         0.0929
     57 H26         2.2286    1.3946    0.8783 H         1 <0>         0.1367
     58 H27         2.2116    1.4042   -0.9016 H         1 <0>         0.1160
     59 H28         0.0021   -0.0041    0.0020 H         1 <0>         0.1385
     60 H29         1.6229    3.5241   -2.0332 H         1 <0>         0.4403
     61 H30         0.2105    3.6904   -1.1711 H         1 <0>         0.4436
     62 O3         12.6218    8.1673   -1.9068 O.co2     1 <0>        -0.7644
     63 N3          1.2064    3.9041   -1.1848 N.4       1 <0>        -0.6451
     64 H31         1.3304    4.9233   -1.1781 H         1 <0>         0.4396
@<TRIPOS>BOND
     1    1    2 1
     2    1   34 1
     3    1   35 1
     4    1   36 1
     5    2    3 1
     6    2    4 1
     7    2   37 1
     8    3   38 1
     9    3   39 1
    10    3   40 1
    11    4    5 1
    12    4   41 1
    13    4   42 1
    14    5    6 1
    15    5    7 1
    16    5    9 1
    17    7    8 2
    18    7   62 1
    19    9   10 am
    20    9   43 1
    21   10   11 2
    22   10   12 1
    23   12   17 ar
    24   12   13 ar
    25   13   14 ar
    26   13   44 1
    27   14   15 ar
    28   14   45 1
    29   15   16 ar
    30   15   28 1
    31   16   17 ar
    32   16   46 1
    33   17   18 1
    34   18   23 ar
    35   18   19 ar
    36   19   20 ar
    37   19   47 1
    38   20   21 ar
    39   20   48 1
    40   21   22 ar
    41   21   49 1
    42   22   27 ar
    43   22   23 ar
    44   23   24 ar
    45   24   25 ar
    46   24   50 1
    47   25   26 ar
    48   25   51 1
    49   26   27 ar
    50   26   52 1
    51   27   53 1
    52   28   29 1
    53   28   54 1
    54   29   30 1
    55   29   55 1
    56   29   56 1
    57   30   31 1
    58   30   32 1
    59   30   63 1
    60   32   33 1
    61   32   57 1
    62   32   58 1
    63   33   59 1
    64   60   63 1
    65   61   63 1
    66   63   64 1
@<TRIPOS>MOLECULE
ZINC53070632
   49    52     0     0     0
SMALL
USER_CHARGES

@<TRIPOS>ATOM
      1 C1          0.1172    1.6508   -1.0405 C.ar      1 <0>        -0.0950
      2 C2          1.3282    2.3156   -1.0379 C.ar      1 <0>        -0.0996
      3 C3          2.1971    2.1693    0.0353 C.ar      1 <0>         0.1482
      4 C4          1.8460    1.3545    1.1036 C.ar      1 <0>        -0.1090
      5 C5          0.6332    0.6919    1.0955 C.ar      1 <0>        -0.0255
      6 C6         -0.2305    0.8401    0.0240 C.ar      1 <0>        -0.1078
      7 Cl1         0.1928   -0.3275    2.4299 Cl        1 <0>        -0.0626
      8 N1          3.4245    2.8413    0.0400 N.am      1 <0>        -0.5626
      9 C7          4.6501    2.0559   -0.0734 C.3       1 <0>         0.1194
     10 C8          5.8122    2.9560   -0.4973 C.3       1 <0>         0.0339
     11 N2          5.8446    4.1333    0.3856 N.3       1 <0>        -0.5307
     12 C9          4.6821    4.9932    0.1262 C.3       1 <0>         0.0436
     13 C10         3.4224    4.1745    0.1428 C.2       1 <0>         0.5253
     14 O1          2.3593    4.7467    0.2590 O.2       1 <0>        -0.5257
     15 C11         7.0989    4.8802    0.2214 C.3       1 <0>         0.1243
     16 C12         7.2798    5.8203    1.3851 C.2       1 <0>        -0.0173
     17 C13         6.9108    7.1145    1.4365 C.2       1 <0>        -0.0153
     18 N3          7.2472    7.5943    2.6430 N.2       1 <0>        -0.4893
     19 C14         7.8107    6.6467    3.3412 C.2       1 <0>         0.1903
     20 N4          7.8453    5.5214    2.5953 N.pl3     1 <0>        -0.4424
     21 C15         8.3895    4.2240    3.0038 C.3       1 <0>         0.1420
     22 C16         9.8051    4.0932    2.5039 C.ar      1 <0>        -0.0864
     23 C17        10.0571    3.4323    1.3147 C.ar      1 <0>        -0.1030
     24 C18        11.3505    3.3088    0.8512 C.ar      1 <0>        -0.0693
     25 C19        12.4065    3.8530    1.5849 C.ar      1 <0>        -0.0149
     26 C20        12.1450    4.5191    2.7840 C.ar      1 <0>        -0.0677
     27 C21        10.8463    4.6394    3.2333 C.ar      1 <0>        -0.0977
     28 C22        13.7518    3.7283    1.1101 C.1       1 <0>         0.2456
     29 N5         14.8189    3.6293    0.7334 N.1       1 <0>        -0.4036
     30 H1         -0.5606    1.7680   -1.8730 H         1 <0>         0.1387
     31 H2          1.5990    2.9483   -1.8702 H         1 <0>         0.1283
     32 H3          2.5199    1.2386    1.9395 H         1 <0>         0.1355
     33 H4         -1.1779    0.3218    0.0197 H         1 <0>         0.1379
     34 H5          4.8783    1.6006    0.8903 H         1 <0>         0.0788
     35 H6          4.5098    1.2720   -0.8176 H         1 <0>         0.0863
     36 H7          6.7501    2.4076   -0.4097 H         1 <0>         0.1017
     37 H8          5.6687    3.2767   -1.5291 H         1 <0>         0.0541
     38 H9          4.6249    5.7654    0.8933 H         1 <0>         0.1213
     39 H10         4.7908    5.4635   -0.8511 H         1 <0>         0.0794
     40 H11         7.9352    4.1821    0.1848 H         1 <0>         0.0900
     41 H12         7.0624    5.4523   -0.7057 H         1 <0>         0.0692
     42 H13         6.4285    7.6688    0.6450 H         1 <0>         0.1658
     43 H14         8.1838    6.7449    4.3499 H         1 <0>         0.2043
     44 H15         8.3802    4.1523    4.0914 H         1 <0>         0.1084
     45 H16         7.7798    3.4252    2.5817 H         1 <0>         0.1081
     46 H17         9.2394    3.0119    0.7482 H         1 <0>         0.1339
     47 H18        11.5459    2.7921   -0.0768 H         1 <0>         0.1372
     48 H19        12.9572    4.9423    3.3564 H         1 <0>         0.1376
     49 H20        10.6421    5.1578    4.1585 H         1 <0>         0.1362
@<TRIPOS>BOND
     1    1    6 ar
     2    1    2 ar
     3    1   30 1
     4    2    3 ar
     5    2   31 1
     6    3    4 ar
     7    3    8 1
     8    4    5 ar
     9    4   32 1
    10    5    6 ar
    11    5    7 1
    12    6   33 1
    13    8   13 am
    14    8    9 1
    15    9   10 1
    16    9   34 1
    17    9   35 1
    18   10   11 1
    19   10   36 1
    20   10   37 1
    21   11   12 1
    22   11   15 1
    23   12   13 1
    24   12   38 1
    25   12   39 1
    26   13   14 2
    27   15   16 1
    28   15   40 1
    29   15   41 1
    30   16   20 1
    31   16   17 2
    32   17   18 1
    33   17   42 1
    34   18   19 2
    35   19   20 1
    36   19   43 1
    37   20   21 1
    38   21   22 1
    39   21   44 1
    40   21   45 1
    41   22   27 ar
    42   22   23 ar
    43   23   24 ar
    44   23   46 1
    45   24   25 ar
    46   24   47 1
    47   25   26 ar
    48   25   28 1
    49   26   27 ar
    50   26   48 1
    51   27   49 1
    52   28   29 3
@<TRIPOS>MOLECULE
ZINC53070632
   50    53     0     0     0
SMALL
USER_CHARGES

@<TRIPOS>ATOM
      1 C1          0.1172    1.6508   -1.0405 C.ar      1 <0>        -0.0928
      2 C2          1.3282    2.3156   -1.0379 C.ar      1 <0>        -0.0984
      3 C3          2.1971    2.1693    0.0353 C.ar      1 <0>         0.1382
      4 C4          1.8460    1.3545    1.1036 C.ar      1 <0>        -0.1082
      5 C5          0.6332    0.6919    1.0955 C.ar      1 <0>        -0.0258
      6 C6         -0.2305    0.8401    0.0240 C.ar      1 <0>        -0.1022
      7 Cl1         0.1928   -0.3275    2.4299 Cl        1 <0>        -0.0567
      8 N1          3.4245    2.8413    0.0400 N.am      1 <0>        -0.5579
      9 C7          4.6501    2.0559   -0.0734 C.3       1 <0>         0.1161
     10 C8          5.8122    2.9560   -0.4973 C.3       1 <0>         0.0350
     11 N2          5.8446    4.1333    0.3856 N.3       1 <0>        -0.5333
     12 C9          4.6821    4.9932    0.1262 C.3       1 <0>         0.0384
     13 C10         3.4224    4.1745    0.1428 C.2       1 <0>         0.5210
     14 O1          2.3593    4.7467    0.2590 O.2       1 <0>        -0.5193
     15 C11         7.0989    4.8802    0.2214 C.3       1 <0>         0.1034
     16 C12         7.2798    5.8203    1.3851 C.2       1 <0>         0.0651
     17 C13         6.9108    7.1145    1.4365 C.2       1 <0>         0.0071
     18 N3          7.2472    7.5943    2.6430 N.pl3     1 <0>        -0.4724
     19 C14         7.8107    6.6467    3.3412 C.cat     1 <0>         0.2935
     20 N4          7.8453    5.5214    2.5953 N.pl3     1 <0>        -0.3930
     21 C15         8.3895    4.2240    3.0038 C.3       1 <0>         0.1359
     22 C16         9.8051    4.0932    2.5039 C.ar      1 <0>        -0.1190
     23 C17        10.0571    3.4323    1.3147 C.ar      1 <0>        -0.0946
     24 C18        11.3505    3.3088    0.8512 C.ar      1 <0>        -0.0677
     25 C19        12.4065    3.8530    1.5849 C.ar      1 <0>         0.0123
     26 C20        12.1450    4.5191    2.7840 C.ar      1 <0>        -0.0678
     27 C21        10.8463    4.6394    3.2333 C.ar      1 <0>        -0.0946
     28 C22        13.7518    3.7283    1.1101 C.1       1 <0>         0.2287
     29 N5         14.8189    3.6293    0.7334 N.1       1 <0>        -0.3775
     30 H1         -0.5606    1.7680   -1.8730 H         1 <0>         0.1413
     31 H2          1.5990    2.9483   -1.8702 H         1 <0>         0.1283
     32 H3          2.5199    1.2386    1.9395 H         1 <0>         0.1346
     33 H4         -1.1779    0.3218    0.0197 H         1 <0>         0.1409
     34 H5          4.8783    1.6006    0.8903 H         1 <0>         0.0822
     35 H6          4.5098    1.2720   -0.8176 H         1 <0>         0.0937
     36 H7          6.7501    2.4076   -0.4097 H         1 <0>         0.1082
     37 H8          5.6687    3.2767   -1.5291 H         1 <0>         0.0637
     38 H9          4.6249    5.7654    0.8933 H         1 <0>         0.1133
     39 H10         4.7908    5.4635   -0.8511 H         1 <0>         0.0867
     40 H11         7.9352    4.1821    0.1848 H         1 <0>         0.1131
     41 H12         7.0624    5.4523   -0.7057 H         1 <0>         0.0940
     42 H13         6.4285    7.6688    0.6450 H         1 <0>         0.2215
     43 H14         8.1838    6.7449    4.3499 H         1 <0>         0.2612
     44 H15         8.3802    4.1523    4.0914 H         1 <0>         0.1344
     45 H16         7.7798    3.4252    2.5817 H         1 <0>         0.1370
     46 H17         9.2394    3.0119    0.7482 H         1 <0>         0.1383
     47 H18        11.5459    2.7921   -0.0768 H         1 <0>         0.1450
     48 H19        12.9572    4.9423    3.3564 H         1 <0>         0.1443
     49 H20        10.6421    5.1578    4.1585 H         1 <0>         0.1384
     50 H21         7.0959    8.5025    2.9483 H         1 <0>         0.4664
@<TRIPOS>BOND
     1    1    6 ar
     2    1    2 ar
     3    1   30 1
     4    2    3 ar
     5    2   31 1
     6    3    4 ar
     7    3    8 1
     8    4    5 ar
     9    4   32 1
    10    5    6 ar
    11    5    7 1
    12    6   33 1
    13    8   13 am
    14    8    9 1
    15    9   10 1
    16    9   34 1
    17    9   35 1
    18   10   11 1
    19   10   36 1
    20   10   37 1
    21   11   12 1
    22   11   15 1
    23   12   13 1
    24   12   38 1
    25   12   39 1
    26   13   14 2
    27   15   16 1
    28   15   40 1
    29   15   41 1
    30   16   20 1
    31   16   17 2
    32   17   18 1
    33   17   42 1
    34   18   19 2
    35   18   50 1
    36   19   20 1
    37   19   43 1
    38   20   21 1
    39   21   22 1
    40   21   44 1
    41   21   45 1
    42   22   27 ar
    43   22   23 ar
    44   23   24 ar
    45   23   46 1
    46   24   25 ar
    47   24   47 1
    48   25   26 ar
    49   25   28 1
    50   26   27 ar
    51   26   48 1
    52   27   49 1
    53   28   29 3
@<TRIPOS>MOLECULE
ZINC24809155
   56    60     0     0     0
SMALL
USER_CHARGES
6-[(R)-amino-(4-chlorophenyl)-(3-methylimidazol-4-yl)methyl]-4-(3-chlorophenyl)-1-methyl-quinolin-2-one
@<TRIPOS>ATOM
      1 C1          4.0958    4.0587    5.4913 C.3       1 <0>         0.0622
      2 N1          3.9399    5.4291    5.9851 N.pl3     1 <0>        -0.4500
      3 C2          4.8140    6.1056    6.7610 C.2       1 <0>         0.1876
      4 N2          4.3316    7.2953    6.9954 N.2       1 <0>        -0.4896
      5 C3          3.1469    7.4215    6.3792 C.2       1 <0>        -0.0049
      6 C4          2.8811    6.2631    5.7461 C.2       1 <0>        -0.0086
      7 C5          1.6564    5.9478    4.9264 C.3       1 <0>         0.2804
      8 C6          0.6824    7.0941    5.0172 C.ar      1 <0>        -0.0692
      9 C7          0.9485    8.2806    4.3595 C.ar      1 <0>        -0.0934
     10 C8          0.0528    9.3303    4.4378 C.ar      1 <0>        -0.1113
     11 C9         -1.1048    9.1974    5.1838 C.ar      1 <0>        -0.0278
     12 C10        -1.3678    8.0117    5.8464 C.ar      1 <0>        -0.1120
     13 C11        -0.4741    6.9607    5.7628 C.ar      1 <0>        -0.0777
     14 Cl1        -2.2271   10.5178    5.2879 Cl        1 <0>        -0.0683
     15 C12         2.0546    5.7396    3.4880 C.ar      1 <0>        -0.1439
     16 C13         3.0894    6.4884    2.9450 C.ar      1 <0>        -0.0472
     17 C14         3.4695    6.3133    1.6319 C.ar      1 <0>        -0.1558
     18 C15         2.8099    5.3778    0.8412 C.ar      1 <0>         0.1945
     19 C16         1.7627    4.6216    1.3961 C.ar      1 <0>        -0.1121
     20 C17         1.3939    4.8146    2.7289 C.ar      1 <0>        -0.0523
     21 C18         1.0731    3.6339    0.5505 C.2       1 <0>         0.0499
     22 C19         1.4866    3.4887   -0.7471 C.2       1 <0>        -0.1941
     23 C20         2.5376    4.2797   -1.2449 C.2       1 <0>         0.5342
     24 O1          2.8876    4.1391   -2.4044 O.2       1 <0>        -0.5306
     25 N3          3.1702    5.1824   -0.4762 N.am      1 <0>        -0.5207
     26 C21         4.2624    5.9739   -1.0478 C.3       1 <0>         0.0529
     27 C22        -0.0345    2.8143    1.0903 C.ar      1 <0>        -0.0525
     28 C23         0.1082    1.4304    1.2027 C.ar      1 <0>        -0.0918
     29 C24        -0.9275    0.6715    1.7070 C.ar      1 <0>        -0.1016
     30 C25        -2.1084    1.2784    2.0963 C.ar      1 <0>        -0.0987
     31 C26        -2.2549    2.6512    1.9925 C.ar      1 <0>        -0.0325
     32 C27        -1.2254    3.4218    1.4892 C.ar      1 <0>        -0.0917
     33 Cl2        -3.7381    3.4044    2.4892 Cl        1 <0>        -0.0577
     34 N4          1.0240    4.7259    5.4412 N.3       1 <0>        -0.8117
     35 H1          5.0501    3.6459    5.8504 H         1 <0>         0.0971
     36 H2          4.0886    4.0623    4.3913 H         1 <0>         0.0794
     37 H3          3.2658    3.4390    5.8614 H         1 <0>         0.0842
     38 H4          5.7563    5.7252    7.1267 H         1 <0>         0.2057
     39 H5          2.5155    8.2977    6.3911 H         1 <0>         0.1665
     40 H6          1.8542    8.3857    3.7808 H         1 <0>         0.1301
     41 H7          0.2586   10.2557    3.9203 H         1 <0>         0.1347
     42 H8         -2.2711    7.9076    6.4292 H         1 <0>         0.1350
     43 H9         -0.6791    6.0352    6.2803 H         1 <0>         0.1462
     44 H10         3.6020    7.2152    3.5577 H         1 <0>         0.1345
     45 H11         4.2759    6.9006    1.2180 H         1 <0>         0.1395
     46 H12         0.5897    4.2356    3.1583 H         1 <0>         0.1337
     47 H13         1.0020    2.7689   -1.3901 H         1 <0>         0.1587
     48 H14         4.4111    5.6878   -2.0995 H         1 <0>         0.1068
     49 H15         5.1868    5.7853   -0.4823 H         1 <0>         0.0780
     50 H16         4.0093    7.0429   -0.9908 H         1 <0>         0.0788
     51 H17         1.0279    0.9547    0.8957 H         1 <0>         0.1342
     52 H18        -0.8180   -0.3994    1.7939 H         1 <0>         0.1394
     53 H19        -2.9177    0.6791    2.4866 H         1 <0>         0.1384
     54 H20        -1.3416    4.4923    1.4050 H         1 <0>         0.1372
     55 H21         0.1301    4.4957    4.8429 H         1 <0>         0.3476
     56 H22         1.7350    3.8892    5.3749 H         1 <0>         0.3401
@<TRIPOS>BOND
     1    1    2 1
     2    1   35 1
     3    1   36 1
     4    1   37 1
     5    2    6 1
     6    2    3 1
     7    3    4 2
     8    3   38 1
     9    4    5 1
    10    5    6 2
    11    5   39 1
    12    6    7 1
    13    7    8 1
    14    7   15 1
    15    7   34 1
    16    8   13 ar
    17    8    9 ar
    18    9   10 ar
    19    9   40 1
    20   10   11 ar
    21   10   41 1
    22   11   12 ar
    23   11   14 1
    24   12   13 ar
    25   12   42 1
    26   13   43 1
    27   15   20 ar
    28   15   16 ar
    29   16   17 ar
    30   16   44 1
    31   17   18 ar
    32   17   45 1
    33   18   25 1
    34   18   19 ar
    35   19   20 ar
    36   19   21 1
    37   20   46 1
    38   21   22 2
    39   21   27 1
    40   22   23 1
    41   22   47 1
    42   23   24 2
    43   23   25 am
    44   25   26 1
    45   26   48 1
    46   26   49 1
    47   26   50 1
    48   27   32 ar
    49   27   28 ar
    50   28   29 ar
    51   28   51 1
    52   29   30 ar
    53   29   52 1
    54   30   31 ar
    55   30   53 1
    56   31   32 ar
    57   31   33 1
    58   32   54 1
    59   34   55 1
    60   34   56 1
@<TRIPOS>MOLECULE
ZINC24809155
   57    61     0     0     0
SMALL
USER_CHARGES
6-[(R)-amino-(4-chlorophenyl)-(3-methylimidazol-4-yl)methyl]-4-(3-chlorophenyl)-1-methyl-quinolin-2-one
@<TRIPOS>ATOM
      1 C1          4.0958    4.0587    5.4913 C.3       1 <0>         0.0431
      2 N1          3.9399    5.4291    5.9851 N.pl3     1 <0>        -0.4008
      3 C2          4.8140    6.1056    6.7610 C.cat     1 <0>         0.2791
      4 N2          4.3316    7.2953    6.9954 N.pl3     1 <0>        -0.4888
      5 C3          3.1469    7.4215    6.3792 C.2       1 <0>         0.0261
      6 C4          2.8811    6.2631    5.7461 C.2       1 <0>         0.0710
      7 C5          1.6564    5.9478    4.9264 C.3       1 <0>         0.2787
      8 C6          0.6824    7.0941    5.0172 C.ar      1 <0>        -0.0982
      9 C7          0.9485    8.2806    4.3595 C.ar      1 <0>        -0.0994
     10 C8          0.0528    9.3303    4.4378 C.ar      1 <0>        -0.1092
     11 C9         -1.1048    9.1974    5.1838 C.ar      1 <0>        -0.0198
     12 C10        -1.3678    8.0117    5.8464 C.ar      1 <0>        -0.1079
     13 C11        -0.4741    6.9607    5.7628 C.ar      1 <0>        -0.0717
     14 Cl1        -2.2271   10.5178    5.2879 Cl        1 <0>        -0.0511
     15 C12         2.0546    5.7396    3.4880 C.ar      1 <0>        -0.1672
     16 C13         3.0894    6.4884    2.9450 C.ar      1 <0>        -0.0635
     17 C14         3.4695    6.3133    1.6319 C.ar      1 <0>        -0.1494
     18 C15         2.8099    5.3778    0.8412 C.ar      1 <0>         0.2044
     19 C16         1.7627    4.6216    1.3961 C.ar      1 <0>        -0.1037
     20 C17         1.3939    4.8146    2.7289 C.ar      1 <0>        -0.0413
     21 C18         1.0731    3.6339    0.5505 C.2       1 <0>         0.0420
     22 C19         1.4866    3.4887   -0.7471 C.2       1 <0>        -0.1803
     23 C20         2.5376    4.2797   -1.2449 C.2       1 <0>         0.5323
     24 O1          2.8876    4.1391   -2.4044 O.2       1 <0>        -0.5147
     25 N3          3.1702    5.1824   -0.4762 N.am      1 <0>        -0.5221
     26 C21         4.2624    5.9739   -1.0478 C.3       1 <0>         0.0504
     27 C22        -0.0345    2.8143    1.0903 C.ar      1 <0>        -0.0580
     28 C23         0.1082    1.4304    1.2027 C.ar      1 <0>        -0.0913
     29 C24        -0.9275    0.6715    1.7070 C.ar      1 <0>        -0.0996
     30 C25        -2.1084    1.2784    2.0963 C.ar      1 <0>        -0.0954
     31 C26        -2.2549    2.6512    1.9925 C.ar      1 <0>        -0.0334
     32 C27        -1.2254    3.4218    1.4892 C.ar      1 <0>        -0.0940
     33 Cl2        -3.7381    3.4044    2.4892 Cl        1 <0>        -0.0542
     34 N4          1.0240    4.7259    5.4412 N.3       1 <0>        -0.8135
     35 H1          5.0501    3.6459    5.8504 H         1 <0>         0.1240
     36 H2          4.0886    4.0623    4.3913 H         1 <0>         0.1124
     37 H3          3.2658    3.4390    5.8614 H         1 <0>         0.1159
     38 H4          5.7563    5.7252    7.1267 H         1 <0>         0.2604
     39 H5          2.5155    8.2977    6.3911 H         1 <0>         0.2175
     40 H6          1.8542    8.3857    3.7808 H         1 <0>         0.1316
     41 H7          0.2586   10.2557    3.9203 H         1 <0>         0.1399
     42 H8         -2.2711    7.9076    6.4292 H         1 <0>         0.1414
     43 H9         -0.6791    6.0352    6.2803 H         1 <0>         0.1498
     44 H10         3.6020    7.2152    3.5577 H         1 <0>         0.1253
     45 H11         4.2759    6.9006    1.2180 H         1 <0>         0.1429
     46 H12         0.5897    4.2356    3.1583 H         1 <0>         0.1371
     47 H13         1.0020    2.7689   -1.3901 H         1 <0>         0.1633
     48 H14         4.4111    5.6878   -2.0995 H         1 <0>         0.1106
     49 H15         5.1868    5.7853   -0.4823 H         1 <0>         0.0792
     50 H16         4.0093    7.0429   -0.9908 H         1 <0>         0.0806
     51 H17         1.0279    0.9547    0.8957 H         1 <0>         0.1349
     52 H18        -0.8180   -0.3994    1.7939 H         1 <0>         0.1415
     53 H19        -2.9177    0.6791    2.4866 H         1 <0>         0.1406
     54 H20        -1.3416    4.4923    1.4050 H         1 <0>         0.1363
     55 H21         0.1301    4.4957    4.8429 H         1 <0>         0.3696
     56 H22         1.7350    3.8892    5.3749 H         1 <0>         0.3422
     57 H23         4.8965    8.0051    7.6175 H         1 <0>         0.5045
@<TRIPOS>BOND
     1    1    2 1
     2    1   35 1
     3    1   36 1
     4    1   37 1
     5    2    6 1
     6    2    3 1
     7    3    4 2
     8    3   38 1
     9    4    5 1
    10    4   57 1
    11    5    6 2
    12    5   39 1
    13    6    7 1
    14    7    8 1
    15    7   15 1
    16    7   34 1
    17    8   13 ar
    18    8    9 ar
    19    9   10 ar
    20    9   40 1
    21   10   11 ar
    22   10   41 1
    23   11   12 ar
    24   11   14 1
    25   12   13 ar
    26   12   42 1
    27   13   43 1
    28   15   20 ar
    29   15   16 ar
    30   16   17 ar
    31   16   44 1
    32   17   18 ar
    33   17   45 1
    34   18   25 1
    35   18   19 ar
    36   19   20 ar
    37   19   21 1
    38   20   46 1
    39   21   22 2
    40   21   27 1
    41   22   23 1
    42   22   47 1
    43   23   24 2
    44   23   25 am
    45   25   26 1
    46   26   48 1
    47   26   49 1
    48   26   50 1
    49   27   32 ar
    50   27   28 ar
    51   28   29 ar
    52   28   51 1
    53   29   30 ar
    54   29   52 1
    55   30   31 ar
    56   30   53 1
    57   31   32 ar
    58   31   33 1
    59   32   54 1
    60   34   55 1
    61   34   56 1
@<TRIPOS>MOLECULE
ZINC03950115
   67    71     0     0     0
SMALL
USER_CHARGES
4-[[4-(dibromo-chloro-BLAHyl)-1-piperidyl]carbonylmethyl]-N,N-bis[4-[[4-(dibromo-chloro-BLAHyl)-1-piperidyl]carbonylmethyl]-6-piperidyl]-piperidine-1-carboxamide
@<TRIPOS>ATOM
      1 C1          2.6466    3.4123    1.3119 C.ar      1 <0>        -0.0983
      2 C2          1.8873    4.5307    1.5449 C.ar      1 <0>        -0.0346
      3 C3          0.5476    4.5160    1.1970 C.ar      1 <0>        -0.0733
      4 C4          0.0142    3.3639    0.6759 C.ar      1 <0>        -0.0939
      5 C5          0.7962    2.2041    0.4804 C.ar      1 <0>        -0.0126
      6 C6          2.1013    2.2410    0.7390 C.ar      1 <0>        -0.0530
      7 C7          3.2036    1.2280    0.5083 C.3       1 <0>        -0.0745
      8 C8          2.8628   -0.1745    0.9057 C.3       1 <0>        -0.0711
      9 C9          1.7017   -0.7812    0.1507 C.ar      1 <0>        -0.1148
     10 C10         2.0114   -2.1203   -0.1993 C.ar      1 <0>        -0.0475
     11 C11         1.0559   -2.9244   -0.7767 C.ar      1 <0>        -0.1526
     12 C12        -0.2001   -2.3888   -1.0038 C.ar      1 <0>         0.1525
     13 N1         -0.4298   -1.1389   -0.6977 N.ar      1 <0>        -0.4676
     14 C13         0.4960   -0.3201   -0.1555 C.ar      1 <0>         0.1732
     15 C14        -0.0116    1.0583    0.0147 C.3       1 <0>        -0.0180
     16 H1         -0.8630    0.9891    0.6917 H         1 <0>         0.1104
     17 C15        -0.5983    1.4696   -1.3372 C.3       1 <0>        -0.0849
     18 C16        -1.9552    0.7892   -1.5324 C.3       1 <0>        -0.1462
     19 C17        -2.5552    1.2302   -2.8712 C.3       1 <0>         0.1072
     20 N2         -1.5834    0.9556   -3.9383 N.am      1 <0>        -0.6075
     21 C18        -0.2201    1.4873   -3.8063 C.3       1 <0>         0.1154
     22 C19         0.3538    1.0434   -2.4571 C.3       1 <0>        -0.1270
     23 C20        -1.9359    0.2302   -5.0181 C.2       1 <0>         0.5158
     24 O1         -1.1246    0.0107   -5.8925 O.2       1 <0>        -0.5379
     25 C21        -3.3382   -0.3084   -5.1390 C.3       1 <0>        -0.1356
     26 C22        -3.4735   -1.0896   -6.4475 C.3       1 <0>        -0.0700
     27 C23        -3.3011   -0.1351   -7.6313 C.3       1 <0>        -0.1339
     28 C24        -3.4027   -0.9264   -8.9391 C.3       1 <0>         0.1304
     29 N3         -4.6691   -1.6713   -8.9440 N.am      1 <0>        -0.6280
     30 C25        -4.9763   -2.5500   -7.8071 C.3       1 <0>         0.1125
     31 C26        -4.8571   -1.7405   -6.5120 C.3       1 <0>        -0.1318
     32 C27        -5.5328   -1.5506   -9.9715 C.2       1 <0>         0.7081
     33 O2         -5.2270   -0.8954  -10.9490 O.2       1 <0>        -0.5930
     34 N4         -6.7356   -2.1562   -9.9155 N.am      1 <0>        -0.8697
     35 Br1         1.4483   -4.7132   -1.2481 Br        1 <0>        -0.0292
     36 Br2        -1.8175    3.3281    0.2073 Br        1 <0>        -0.0170
     37 Cl1         2.5954    5.9425    2.2654 Cl        1 <0>        -0.0522
     38 H2          3.6941    3.4273    1.5745 H         1 <0>         0.1398
     39 H3         -0.0662    5.3941    1.3335 H         1 <0>         0.1482
     40 H4          4.0825    1.5414    1.0718 H         1 <0>         0.0903
     41 H5          3.4595    1.2330   -0.5512 H         1 <0>         0.0832
     42 H6          2.6245   -0.1832    1.9693 H         1 <0>         0.0831
     43 H7          3.7418   -0.7988    0.7457 H         1 <0>         0.0886
     44 H8          3.0009   -2.5103   -0.0116 H         1 <0>         0.1444
     45 H9         -0.9831   -2.9980   -1.4305 H         1 <0>         0.1687
     46 H10        -0.7278    2.5515   -1.3628 H         1 <0>         0.0915
     47 H11        -1.8230   -0.2928   -1.5318 H         1 <0>         0.1209
     48 H12        -2.6254    1.0748   -0.7216 H         1 <0>         0.0707
     49 H13        -2.7720    2.2980   -2.8403 H         1 <0>         0.0626
     50 H14        -3.4742    0.6761   -3.0624 H         1 <0>         0.0836
     51 H15        -0.2465    2.5761   -3.8517 H         1 <0>         0.0639
     52 H16         0.4040    1.1030   -4.6131 H         1 <0>         0.0903
     53 H17         1.3270    1.5099   -2.3044 H         1 <0>         0.0665
     54 H18         0.4642   -0.0410   -2.4477 H         1 <0>         0.0665
     55 H19        -3.5473   -0.9694   -4.2979 H         1 <0>         0.0946
     56 H20        -4.0470    0.5197   -5.1353 H         1 <0>         0.0917
     57 H21        -2.7062   -1.8626   -6.4899 H         1 <0>         0.0818
     58 H22        -4.0831    0.6238   -7.6036 H         1 <0>         0.0596
     59 H23        -2.3247    0.3457   -7.5719 H         1 <0>         0.0952
     60 H24        -2.5682   -1.6240   -9.0099 H         1 <0>         0.0670
     61 H25        -3.3787   -0.2409   -9.7862 H         1 <0>         0.0927
     62 H26        -4.2700   -3.3799   -7.7856 H         1 <0>         0.0719
     63 H27        -5.9909   -2.9360   -7.9047 H         1 <0>         0.0775
     64 H28        -4.9880   -2.4023   -5.6560 H         1 <0>         0.0776
     65 H29        -5.6244   -0.9665   -6.4949 H         1 <0>         0.0688
     66 H30        -7.0097   -2.6164   -9.1068 H         1 <0>         0.3952
     67 H31        -7.3271   -2.1318  -10.6839 H         1 <0>         0.4137
@<TRIPOS>BOND
     1    1    6 ar
     2    1    2 ar
     3    1   38 1
     4    2    3 ar
     5    2   37 1
     6    3    4 ar
     7    3   39 1
     8    4    5 ar
     9    4   36 1
    10    5   15 1
    11    5    6 ar
    12    6    7 1
    13    7    8 1
    14    7   40 1
    15    7   41 1
    16    8    9 1
    17    8   42 1
    18    8   43 1
    19    9   14 ar
    20    9   10 ar
    21   10   11 ar
    22   10   44 1
    23   11   12 ar
    24   11   35 1
    25   12   13 ar
    26   12   45 1
    27   13   14 ar
    28   14   15 1
    29   15   16 1
    30   15   17 1
    31   17   22 1
    32   17   18 1
    33   17   46 1
    34   18   19 1
    35   18   47 1
    36   18   48 1
    37   19   20 1
    38   19   49 1
    39   19   50 1
    40   20   21 1
    41   20   23 am
    42   21   22 1
    43   21   51 1
    44   21   52 1
    45   22   53 1
    46   22   54 1
    47   23   24 2
    48   23   25 1
    49   25   26 1
    50   25   55 1
    51   25   56 1
    52   26   31 1
    53   26   27 1
    54   26   57 1
    55   27   28 1
    56   27   58 1
    57   27   59 1
    58   28   29 1
    59   28   60 1
    60   28   61 1
    61   29   30 1
    62   29   32 am
    63   30   31 1
    64   30   62 1
    65   30   63 1
    66   31   64 1
    67   31   65 1
    68   32   33 2
    69   32   34 am
    70   34   66 1
    71   34   67 1
@<TRIPOS>MOLECULE
ZINC03973581
   84    86     0     0     0
SMALL
USER_CHARGES

@<TRIPOS>ATOM
      1 C1        -11.0609    0.0259   -2.5275 C.3       1 <0>        -0.1587
      2 C2        -10.1011   -1.1515   -2.3448 C.3       1 <0>        -0.1190
      3 C3         -8.6771   -0.6243   -2.1569 C.3       1 <0>        -0.1521
      4 C4         -7.7016   -1.8013   -2.0947 C.3       1 <0>        -0.0117
      5 C5         -5.3314   -2.2793   -2.2231 C.3       1 <0>        -0.0134
      6 C6         -5.3544   -2.4329   -3.7452 C.3       1 <0>        -0.1447
      7 C7         -4.2947   -3.4510   -4.1711 C.3       1 <0>        -0.0802
      8 C8         -2.9032   -2.9076   -3.8400 C.3       1 <0>        -0.1217
      9 C9         -1.8436   -3.9257   -4.2660 C.3       1 <0>        -0.1215
     10 C10        -1.9496   -4.1725   -5.7722 C.3       1 <0>        -0.1247
     11 C11        -3.3411   -4.7158   -6.1033 C.3       1 <0>        -0.1205
     12 C12        -4.4007   -3.6977   -5.6773 C.3       1 <0>        -0.1142
     13 C13        -6.2011   -0.9503   -0.3955 C.3       1 <0>         0.0479
     14 C14        -5.0160   -0.0351   -0.2255 C.ar      1 <0>        -0.1491
     15 C15        -3.7892   -0.5598    0.1465 C.ar      1 <0>        -0.1005
     16 C16        -2.6945    0.2653    0.2997 C.ar      1 <0>        -0.0843
     17 C17        -2.8225    1.6388    0.0909 C.ar      1 <0>        -0.0693
     18 C18        -4.0684    2.1704   -0.2868 C.ar      1 <0>         0.0266
     19 C19        -5.1600    1.3205   -0.4419 C.ar      1 <0>        -0.0953
     20 C20        -4.2183    3.6263   -0.5186 C.ar      1 <0>        -0.0568
     21 C21        -4.9392    4.4082    0.3836 C.ar      1 <0>        -0.0993
     22 C22        -5.0750    5.7634    0.1627 C.ar      1 <0>        -0.1311
     23 C23        -4.4977    6.3468   -0.9512 C.ar      1 <0>        -0.1038
     24 C24        -3.7816    5.5764   -1.8495 C.ar      1 <0>        -0.1182
     25 C25        -3.6344    4.2208   -1.6363 C.ar      1 <0>        -0.0196
     26 C26        -2.8490    3.3838   -2.6129 C.3       1 <0>        -0.1138
     27 C27        -1.6559    2.5277    0.2594 C.2       1 <0>         0.5405
     28 O1         -1.7705    3.7234    0.0715 O.2       1 <0>        -0.5026
     29 N1         -0.4638    2.0137    0.6214 N.am      1 <0>        -0.6902
     30 C28         0.6954    2.8949    0.7827 C.3       1 <0>         0.1087
     31 H1          0.3696    3.8533    1.1873 H         1 <0>         0.0936
     32 C29         1.6968    2.2499    1.7429 C.3       1 <0>        -0.0940
     33 C30         1.0722    2.1436    3.1356 C.3       1 <0>        -0.0774
     34 S1          2.2594    1.3788    4.2740 S.3       1 <0>        -0.2658
     35 C31         1.3772    1.3264    5.8582 C.3       1 <0>        -0.1218
     36 C32         1.3516    3.1119   -0.5564 C.2       1 <0>         0.4618
     37 O2          0.8977    2.5846   -1.5442 O.co2     1 <0>        -0.6287
     38 H2        -12.0851   -0.3441   -2.5741 H         1 <0>         0.0646
     39 H3        -10.9599    0.7110   -1.6857 H         1 <0>         0.0592
     40 H4        -10.8213    0.5497   -3.4529 H         1 <0>         0.0594
     41 H5        -10.1384   -1.7909   -3.2267 H         1 <0>         0.0719
     42 H6        -10.3944   -1.7265   -1.4665 H         1 <0>         0.0720
     43 H7         -8.6198   -0.0553   -1.2290 H         1 <0>         0.0857
     44 H8         -8.4150    0.0209   -2.9954 H         1 <0>         0.0877
     45 H9         -7.7042   -2.3263   -3.0499 H         1 <0>         0.1309
     46 H10        -8.0076   -2.4854   -1.3032 H         1 <0>         0.1307
     47 H11        -4.3472   -1.9329   -1.9077 H         1 <0>         0.1334
     48 H12        -5.5443   -3.2416   -1.7576 H         1 <0>         0.1307
     49 H13        -6.3385   -2.7793   -4.0606 H         1 <0>         0.0851
     50 H14        -5.1415   -1.4705   -4.2107 H         1 <0>         0.0873
     51 H15        -4.4554   -4.3876   -3.6373 H         1 <0>         0.0792
     52 H16        -2.7425   -1.9710   -4.3738 H         1 <0>         0.0698
     53 H17        -2.8277   -2.7319   -2.7670 H         1 <0>         0.0612
     54 H18        -2.0043   -4.8624   -3.7322 H         1 <0>         0.0621
     55 H19        -0.8523   -3.5387   -4.0301 H         1 <0>         0.0692
     56 H20        -1.1947   -4.8978   -6.0756 H         1 <0>         0.0653
     57 H21        -1.7889   -3.2358   -6.3060 H         1 <0>         0.0645
     58 H22        -3.5018   -5.6524   -5.5695 H         1 <0>         0.0623
     59 H23        -3.4166   -4.8916   -7.1763 H         1 <0>         0.0656
     60 H24        -5.3920   -4.0848   -5.9132 H         1 <0>         0.0630
     61 H25        -4.2400   -2.7610   -6.2111 H         1 <0>         0.0667
     62 H26        -6.0467   -1.8571    0.1893 H         1 <0>         0.1374
     63 H27        -7.1031   -0.4448   -0.0506 H         1 <0>         0.1357
     64 H28        -3.6881   -1.6220    0.3136 H         1 <0>         0.1349
     65 H29        -1.7398   -0.1511    0.5852 H         1 <0>         0.1398
     66 H30        -6.1197    1.7219   -0.7321 H         1 <0>         0.1351
     67 H31        -5.3899    3.9540    1.2535 H         1 <0>         0.1143
     68 H32        -5.6327    6.3700    0.8608 H         1 <0>         0.1197
     69 H33        -4.6063    7.4080   -1.1198 H         1 <0>         0.1205
     70 H34        -3.3335    6.0373   -2.7173 H         1 <0>         0.1222
     71 H35        -3.5032    3.0604   -3.4225 H         1 <0>         0.0586
     72 H36        -2.0300    3.9754   -3.0219 H         1 <0>         0.0759
     73 H37        -2.4458    2.5102   -2.1006 H         1 <0>         0.0643
     74 H38        -0.3723    1.0597    0.7713 H         1 <0>         0.3885
     75 H39         1.9548    1.2537    1.3835 H         1 <0>         0.0716
     76 H40         2.5971    2.8622    1.7943 H         1 <0>         0.1010
     77 H41         0.8141    3.1397    3.4950 H         1 <0>         0.0808
     78 H42         0.1718    1.5313    3.0842 H         1 <0>         0.0735
     79 H43         0.4705    0.7313    5.7496 H         1 <0>         0.0714
     80 H44         2.0184    0.8768    6.6164 H         1 <0>         0.1002
     81 H45         1.1127    2.3397    6.1604 H         1 <0>         0.0747
     82 N2         -6.3449   -1.2779   -1.8296 N.4       1 <0>        -0.3960
     83 H46        -6.2027   -0.4245   -2.3826 H         1 <0>         0.4270
     84 O3          2.4405    3.8911   -0.6518 O.co2     1 <0>        -0.7541
@<TRIPOS>BOND
     1    1    2 1
     2    1   38 1
     3    1   39 1
     4    1   40 1
     5    2    3 1
     6    2   41 1
     7    2   42 1
     8    3    4 1
     9    3   43 1
    10    3   44 1
    11    4   45 1
    12    4   46 1
    13    4   82 1
    14    5    6 1
    15    5   47 1
    16    5   48 1
    17    5   82 1
    18    6    7 1
    19    6   49 1
    20    6   50 1
    21    7   12 1
    22    7    8 1
    23    7   51 1
    24    8    9 1
    25    8   52 1
    26    8   53 1
    27    9   10 1
    28    9   54 1
    29    9   55 1
    30   10   11 1
    31   10   56 1
    32   10   57 1
    33   11   12 1
    34   11   58 1
    35   11   59 1
    36   12   60 1
    37   12   61 1
    38   13   14 1
    39   13   62 1
    40   13   63 1
    41   13   82 1
    42   14   19 ar
    43   14   15 ar
    44   15   16 ar
    45   15   64 1
    46   16   17 ar
    47   16   65 1
    48   17   18 ar
    49   17   27 1
    50   18   19 ar
    51   18   20 1
    52   19   66 1
    53   20   25 ar
    54   20   21 ar
    55   21   22 ar
    56   21   67 1
    57   22   23 ar
    58   22   68 1
    59   23   24 ar
    60   23   69 1
    61   24   25 ar
    62   24   70 1
    63   25   26 1
    64   26   71 1
    65   26   72 1
    66   26   73 1
    67   27   28 2
    68   27   29 am
    69   29   30 1
    70   29   74 1
    71   30   31 1
    72   30   32 1
    73   30   36 1
    74   32   33 1
    75   32   75 1
    76   32   76 1
    77   33   34 1
    78   33   77 1
    79   33   78 1
    80   34   35 1
    81   35   79 1
    82   35   80 1
    83   35   81 1
    84   36   37 2
    85   36   84 1
    86   82   83 1
@<TRIPOS>MOLECULE
ZINC03875454
   35    38     0     0     0
SMALL
USER_CHARGES

@<TRIPOS>ATOM
      1 C1         -0.0178    1.4608    0.0101 C.3       1 <0>         0.0736
      2 N1          0.0021   -0.0041    0.0020 N.am      1 <0>        -0.6054
      3 C2          0.0060   -0.6923   -1.1787 C.2       1 <0>         0.5282
      4 O1          0.0013   -0.1310   -2.2538 O.2       1 <0>        -0.4655
      5 C3          0.0171   -2.1979   -1.0569 C.3       1 <0>         0.1690
      6 C4         -0.3246   -2.9479   -2.3277 C.3       1 <0>        -0.0493
      7 C5         -1.2416   -4.0554   -1.8572 C.2       1 <0>        -0.1408
      8 C6         -1.4528   -5.2582   -2.3614 C.2       1 <0>        -0.0686
      9 C7         -2.4068   -6.1283   -1.6388 C.2       1 <0>        -0.1215
     10 C8         -2.7209   -5.8554   -0.3790 C.2       1 <0>        -0.1688
     11 C9         -2.1318   -4.6824    0.3569 C.3       1 <0>         0.1296
     12 H1         -1.1756   -4.9719    0.7928 H         1 <0>         0.0748
     13 C10        -1.9175   -3.5149   -0.6065 C.3       1 <0>         0.1871
     14 H2         -2.8767   -3.0671   -0.8664 H         1 <0>         0.1032
     15 N2         -1.0263   -2.5147   -0.0478 N.am      1 <0>        -0.5996
     16 C11        -1.0464   -1.8553    1.1368 C.2       1 <0>         0.5321
     17 O2         -1.8416   -2.1095    2.0165 O.2       1 <0>        -0.4183
     18 C12         0.0244   -0.7630    1.2721 C.3       1 <0>         0.1905
     19 S1          1.6414   -1.6127    1.3777 S.3       1 <0>        -0.1069
     20 S2          1.6245   -2.7047   -0.3669 S.3       1 <0>        -0.1250
     21 C13        -0.2341    0.1417    2.4785 C.3       1 <0>         0.1130
     22 O3         -0.2017   -0.6390    3.6750 O.3       1 <0>        -0.5422
     23 O4         -3.0243   -4.2784    1.3973 O.3       1 <0>        -0.5380
     24 H3          1.0048    1.8381    0.0023 H         1 <0>         0.0759
     25 H4         -0.5450    1.8219   -0.8730 H         1 <0>         0.0923
     26 H5         -0.5280    1.8123    0.9069 H         1 <0>         0.0832
     27 H6         -0.8421   -2.2948   -3.0303 H         1 <0>         0.1287
     28 H7          0.5756   -3.3629   -2.7811 H         1 <0>         0.1176
     29 H8         -0.9528   -5.5907   -3.2591 H         1 <0>         0.1457
     30 H9         -2.8458   -6.9815   -2.1347 H         1 <0>         0.1329
     31 H10        -3.4224   -6.4958    0.1350 H         1 <0>         0.1286
     32 H11         0.5355    0.9121    2.5265 H         1 <0>         0.0817
     33 H12        -1.2125    0.6113    2.3775 H         1 <0>         0.0861
     34 H13        -0.3582   -0.1291    4.4816 H         1 <0>         0.3958
     35 H14        -3.2022   -4.9671    2.0523 H         1 <0>         0.3802
@<TRIPOS>BOND
     1    1    2 1
     2    1   24 1
     3    1   25 1
     4    1   26 1
     5    2   18 1
     6    2    3 am
     7    3    4 2
     8    3    5 1
     9    5   15 1
    10    5   20 1
    11    5    6 1
    12    6    7 1
    13    6   27 1
    14    6   28 1
    15    7   13 1
    16    7    8 2
    17    8    9 1
    18    8   29 1
    19    9   10 2
    20    9   30 1
    21   10   11 1
    22   10   31 1
    23   11   12 1
    24   11   13 1
    25   11   23 1
    26   13   14 1
    27   13   15 1
    28   15   16 am
    29   16   17 2
    30   16   18 1
    31   18   19 1
    32   18   21 1
    33   19   20 1
    34   21   22 1
    35   21   32 1
    36   21   33 1
    37   22   34 1
    38   23   35 1
@<TRIPOS>MOLECULE
ZINC03925649
   58    62     0     0     0
SMALL
USER_CHARGES

@<TRIPOS>ATOM
      1 C1          5.7027    2.8089   -1.4773 C.ar      1 <0>        -0.1167
      2 C2          6.2056    1.5415   -1.7042 C.ar      1 <0>        -0.1111
      3 C3          5.5333    0.4344   -1.2213 C.ar      1 <0>        -0.1157
      4 C4          4.3583    0.5948   -0.5110 C.ar      1 <0>        -0.0791
      5 C5          3.8559    1.8623   -0.2832 C.ar      1 <0>        -0.1224
      6 C6          4.5275    2.9693   -0.7674 C.ar      1 <0>        -0.1161
      7 C7          3.6248   -0.6121    0.0147 C.3       1 <0>        -0.1515
      8 C8          4.1986   -1.0039    1.3779 C.3       1 <0>         0.1442
      9 H1          4.2046   -0.1287    2.0276 H         1 <0>         0.0762
     10 C9          5.6222   -1.4976    1.1951 C.3       1 <0>         0.1185
     11 N1          6.1954   -1.8618    2.5003 N.pl3     1 <0>        -0.6522
     12 C10         5.9831   -3.1482    2.9753 C.ar      1 <0>         0.1941
     13 C11         7.0401   -4.0463    3.0909 C.ar      1 <0>        -0.1309
     14 C12         6.8054   -5.3357    3.5115 C.ar      1 <0>        -0.0471
     15 C13         5.5058   -5.7487    3.8206 C.ar      1 <0>        -0.0218
     16 C14         4.4466   -4.8387    3.7242 C.ar      1 <0>        -0.0377
     17 C15         4.6952   -3.5492    3.3290 C.ar      1 <0>        -0.1409
     18 C16         3.5901   -2.5097    3.3409 C.3       1 <0>         0.1779
     19 N2          3.3515   -2.0403    1.9757 N.pl3     1 <0>        -0.9849
     20 S1          2.1072   -2.6871    1.0950 S.o2      1 <0>         2.7168
     21 O1          2.5223   -2.6749   -0.2640 O.2       1 <0>        -0.9339
     22 O2          1.7149   -3.8794    1.7611 O.2       1 <0>        -0.9385
     23 C17         0.7484   -1.5720    1.2164 C.2       1 <0>        -0.7763
     24 C18         0.4283   -0.5260    0.4160 C.2       1 <0>        -0.0060
     25 C19        -0.6991    0.2194    0.7057 C.2       1 <0>        -0.1936
     26 C20        -1.4514   -0.1176    1.7817 C.2       1 <0>        -0.1219
     27 S2         -0.5686   -1.5315    2.4212 S.3       1 <0>         0.1664
     28 C21         5.2593   -7.0975    4.2336 C.1       1 <0>         0.2378
     29 N3          5.0637   -8.1675    4.5613 N.1       1 <0>        -0.3915
     30 C22         6.9705   -0.8918    3.2778 C.3       1 <0>         0.1973
     31 C23         6.0466   -0.1246    4.1882 C.2       1 <0>         0.0404
     32 C24         5.4748    1.0675    3.9322 C.2       1 <0>         0.0084
     33 N4          4.7267    1.4052    4.9930 N.pl3     1 <0>        -0.4727
     34 C25         4.8132    0.4678    5.8967 C.cat     1 <0>         0.3026
     35 N5          5.6225   -0.5083    5.4318 N.pl3     1 <0>        -0.5055
     36 H2          5.8605   -1.3273    5.8938 H         1 <0>         0.4652
     37 H3          6.2304    3.6741   -1.8507 H         1 <0>         0.1243
     38 H4          7.1236    1.4162   -2.2592 H         1 <0>         0.1264
     39 H5          5.9259   -0.5559   -1.3992 H         1 <0>         0.1268
     40 H6          2.9377    1.9876    0.2714 H         1 <0>         0.1172
     41 H7          4.1347    3.9596   -0.5898 H         1 <0>         0.1225
     42 H8          2.5659   -0.3763    0.1203 H         1 <0>         0.0813
     43 H9          3.7445   -1.4419   -0.6819 H         1 <0>         0.1451
     44 H10         5.6218   -2.3711    0.5431 H         1 <0>         0.0898
     45 H11         6.2237   -0.7093    0.7426 H         1 <0>         0.1025
     46 H12         8.0447   -3.7314    2.8501 H         1 <0>         0.1408
     47 H13         7.6273   -6.0303    3.6026 H         1 <0>         0.1412
     48 H14         3.4397   -5.1502    3.9596 H         1 <0>         0.1452
     49 H15         2.6773   -2.9540    3.7377 H         1 <0>         0.1007
     50 H16         3.8881   -1.6694    3.9680 H         1 <0>         0.0728
     51 H17         1.0452   -0.2784   -0.4352 H         1 <0>         0.1521
     52 H18        -0.9763    1.0581    0.0842 H         1 <0>         0.1494
     53 H19        -2.3531    0.3462    2.1534 H         1 <0>         0.2000
     54 H20         7.7155   -1.4173    3.8753 H         1 <0>         0.1066
     55 H21         7.4704   -0.1996    2.6004 H         1 <0>         0.1238
     56 H22         5.5971    1.6495    3.0307 H         1 <0>         0.2220
     57 H23         4.3166    0.4702    6.8557 H         1 <0>         0.2653
     58 H24         4.2042    2.2183    5.0756 H         1 <0>         0.4665
@<TRIPOS>BOND
     1    1    6 ar
     2    1    2 ar
     3    1   37 1
     4    2    3 ar
     5    2   38 1
     6    3    4 ar
     7    3   39 1
     8    4    5 ar
     9    4    7 1
    10    5    6 ar
    11    5   40 1
    12    6   41 1
    13    7    8 1
    14    7   42 1
    15    7   43 1
    16    8    9 1
    17    8   19 1
    18    8   10 1
    19   10   11 1
    20   10   44 1
    21   10   45 1
    22   11   12 1
    23   11   30 1
    24   12   17 ar
    25   12   13 ar
    26   13   14 ar
    27   13   46 1
    28   14   15 ar
    29   14   47 1
    30   15   16 ar
    31   15   28 1
    32   16   17 ar
    33   16   48 1
    34   17   18 1
    35   18   19 1
    36   18   49 1
    37   18   50 1
    38   19   20 1
    39   20   21 2
    40   20   22 2
    41   20   23 1
    42   23   27 1
    43   23   24 2
    44   24   25 1
    45   24   51 1
    46   25   26 2
    47   25   52 1
    48   26   27 1
    49   26   53 1
    50   28   29 3
    51   30   31 1
    52   30   54 1
    53   30   55 1
    54   31   35 1
    55   31   32 2
    56   32   33 1
    57   32   56 1
    58   33   34 2
    59   33   58 1
    60   34   35 1
    61   34   57 1
    62   35   36 1
@<TRIPOS>MOLECULE
ZINC03925649
   58    62     0     0     0
SMALL
USER_CHARGES

@<TRIPOS>ATOM
      1 C1          5.7027    2.8089   -1.4773 C.ar      1 <0>        -0.1167
      2 C2          6.2056    1.5415   -1.7042 C.ar      1 <0>        -0.1112
      3 C3          5.5333    0.4344   -1.2213 C.ar      1 <0>        -0.1156
      4 C4          4.3583    0.5948   -0.5110 C.ar      1 <0>        -0.0792
      5 C5          3.8559    1.8623   -0.2832 C.ar      1 <0>        -0.1224
      6 C6          4.5275    2.9693   -0.7674 C.ar      1 <0>        -0.1160
      7 C7          3.6248   -0.6121    0.0147 C.3       1 <0>        -0.1516
      8 C8          4.1986   -1.0039    1.3779 C.3       1 <0>         0.1443
      9 H1          4.2046   -0.1287    2.0276 H         1 <0>         0.0760
     10 C9          5.6222   -1.4976    1.1951 C.3       1 <0>         0.1186
     11 N1          6.1954   -1.8618    2.5003 N.pl3     1 <0>        -0.6528
     12 C10         5.9831   -3.1482    2.9753 C.ar      1 <0>         0.1938
     13 C11         7.0401   -4.0463    3.0909 C.ar      1 <0>        -0.1310
     14 C12         6.8054   -5.3357    3.5115 C.ar      1 <0>        -0.0470
     15 C13         5.5058   -5.7487    3.8206 C.ar      1 <0>        -0.0218
     16 C14         4.4466   -4.8387    3.7242 C.ar      1 <0>        -0.0375
     17 C15         4.6952   -3.5492    3.3290 C.ar      1 <0>        -0.1417
     18 C16         3.5901   -2.5097    3.3409 C.3       1 <0>         0.1782
     19 N2          3.3515   -2.0403    1.9757 N.pl3     1 <0>        -0.9848
     20 S1          2.1072   -2.6871    1.0950 S.o2      1 <0>         2.7169
     21 O1          2.5223   -2.6749   -0.2640 O.2       1 <0>        -0.9338
     22 O2          1.7149   -3.8794    1.7611 O.2       1 <0>        -0.9385
     23 C17         0.7484   -1.5720    1.2164 C.2       1 <0>        -0.7764
     24 C18         0.4283   -0.5260    0.4160 C.2       1 <0>        -0.0059
     25 C19        -0.6991    0.2194    0.7057 C.2       1 <0>        -0.1936
     26 C20        -1.4514   -0.1176    1.7817 C.2       1 <0>        -0.1218
     27 S2         -0.5686   -1.5315    2.4212 S.3       1 <0>         0.1664
     28 C21         5.2593   -7.0975    4.2336 C.1       1 <0>         0.2376
     29 N3          5.0637   -8.1675    4.5613 N.1       1 <0>        -0.3914
     30 C22         6.9705   -0.8918    3.2778 C.3       1 <0>         0.1973
     31 C23         6.0466   -0.1246    4.1882 C.2       1 <0>         0.0100
     32 C24         5.4812    1.0677    3.9196 C.2       1 <0>         0.0401
     33 N4          4.7209    1.3998    5.0083 N.pl3     1 <0>        -0.5087
     34 H2          4.1899    2.2044    5.1158 H         1 <0>         0.4670
     35 C25         4.8483    0.3981    5.9050 C.cat     1 <0>         0.3035
     36 N5          5.6386   -0.5124    5.4057 N.pl3     1 <0>        -0.4701
     37 H3          6.2304    3.6741   -1.8507 H         1 <0>         0.1243
     38 H4          7.1236    1.4162   -2.2592 H         1 <0>         0.1264
     39 H5          5.9259   -0.5559   -1.3992 H         1 <0>         0.1268
     40 H6          2.9377    1.9876    0.2714 H         1 <0>         0.1173
     41 H7          4.1347    3.9596   -0.5898 H         1 <0>         0.1225
     42 H8          2.5659   -0.3763    0.1203 H         1 <0>         0.0812
     43 H9          3.7445   -1.4419   -0.6819 H         1 <0>         0.1451
     44 H10         5.6218   -2.3711    0.5431 H         1 <0>         0.0896
     45 H11         6.2237   -0.7093    0.7426 H         1 <0>         0.1024
     46 H12         8.0447   -3.7314    2.8501 H         1 <0>         0.1408
     47 H13         7.6273   -6.0303    3.6026 H         1 <0>         0.1412
     48 H14         3.4397   -5.1502    3.9596 H         1 <0>         0.1453
     49 H15         2.6773   -2.9540    3.7377 H         1 <0>         0.1009
     50 H16         3.8881   -1.6694    3.9680 H         1 <0>         0.0719
     51 H17         1.0452   -0.2784   -0.4352 H         1 <0>         0.1521
     52 H18        -0.9763    1.0581    0.0842 H         1 <0>         0.1494
     53 H19        -2.3531    0.3462    2.1534 H         1 <0>         0.2000
     54 H20         7.7155   -1.4173    3.8753 H         1 <0>         0.1057
     55 H21         7.4704   -0.1996    2.6004 H         1 <0>         0.1226
     56 H22         5.6042    1.6502    3.0185 H         1 <0>         0.2241
     57 H23         4.3718    0.3557    6.8733 H         1 <0>         0.2654
     58 H24         5.8924   -1.3385    5.8462 H         1 <0>         0.4647
@<TRIPOS>BOND
     1    1    6 ar
     2    1    2 ar
     3    1   37 1
     4    2    3 ar
     5    2   38 1
     6    3    4 ar
     7    3   39 1
     8    4    5 ar
     9    4    7 1
    10    5    6 ar
    11    5   40 1
    12    6   41 1
    13    7    8 1
    14    7   42 1
    15    7   43 1
    16    8    9 1
    17    8   19 1
    18    8   10 1
    19   10   11 1
    20   10   44 1
    21   10   45 1
    22   11   12 1
    23   11   30 1
    24   12   17 ar
    25   12   13 ar
    26   13   14 ar
    27   13   46 1
    28   14   15 ar
    29   14   47 1
    30   15   16 ar
    31   15   28 1
    32   16   17 ar
    33   16   48 1
    34   17   18 1
    35   18   19 1
    36   18   49 1
    37   18   50 1
    38   19   20 1
    39   20   21 2
    40   20   22 2
    41   20   23 1
    42   23   27 1
    43   23   24 2
    44   24   25 1
    45   24   51 1
    46   25   26 2
    47   25   52 1
    48   26   27 1
    49   26   53 1
    50   28   29 3
    51   30   31 1
    52   30   54 1
    53   30   55 1
    54   31   36 1
    55   31   32 2
    56   32   33 1
    57   32   56 1
    58   33   34 1
    59   33   35 1
    60   35   36 2
    61   35   57 1
    62   36   58 1
@<TRIPOS>MOLECULE
ZINC03925649
   57    61     0     0     0
SMALL
USER_CHARGES

@<TRIPOS>ATOM
      1 C1          5.7027    2.8089   -1.4773 C.ar      1 <0>        -0.1216
      2 C2          6.2056    1.5415   -1.7043 C.ar      1 <0>        -0.1161
      3 C3          5.5333    0.4344   -1.2213 C.ar      1 <0>        -0.1151
      4 C4          4.3583    0.5948   -0.5110 C.ar      1 <0>        -0.0688
      5 C5          3.8559    1.8623   -0.2832 C.ar      1 <0>        -0.1102
      6 C6          4.5275    2.9693   -0.7674 C.ar      1 <0>        -0.1148
      7 C7          3.6248   -0.6122    0.0147 C.3       1 <0>        -0.1469
      8 C8          4.1986   -1.0039    1.3779 C.3       1 <0>         0.1354
      9 H1          4.2046   -0.1287    2.0276 H         1 <0>         0.1055
     10 C9          5.6222   -1.4976    1.1951 C.3       1 <0>         0.1324
     11 N1          6.1954   -1.8618    2.5003 N.pl3     1 <0>        -0.6541
     12 C10         5.9831   -3.1482    2.9753 C.ar      1 <0>         0.2283
     13 C11         7.0401   -4.0463    3.0909 C.ar      1 <0>        -0.1417
     14 C12         6.8054   -5.3357    3.5115 C.ar      1 <0>        -0.0490
     15 C13         5.5057   -5.7487    3.8206 C.ar      1 <0>        -0.0471
     16 C14         4.4466   -4.8387    3.7242 C.ar      1 <0>        -0.0377
     17 C15         4.6952   -3.5492    3.3290 C.ar      1 <0>        -0.1376
     18 C16         3.5901   -2.5096    3.3409 C.3       1 <0>         0.1756
     19 N2          3.3515   -2.0403    1.9757 N.pl3     1 <0>        -0.9778
     20 S1          2.1072   -2.6871    1.0950 S.o2      1 <0>         2.7151
     21 O1          2.5223   -2.6749   -0.2640 O.2       1 <0>        -0.9412
     22 O2          1.7149   -3.8794    1.7611 O.2       1 <0>        -0.9469
     23 C17         0.7484   -1.5720    1.2164 C.2       1 <0>        -0.7642
     24 C18         0.4283   -0.5260    0.4160 C.2       1 <0>        -0.0110
     25 C19        -0.6991    0.2194    0.7057 C.2       1 <0>        -0.1900
     26 C20        -1.4514   -0.1176    1.7817 C.2       1 <0>        -0.1317
     27 S2         -0.5686   -1.5315    2.4212 S.3       1 <0>         0.1633
     28 C21         5.2593   -7.0975    4.2336 C.1       1 <0>         0.2543
     29 N3          5.0637   -8.1675    4.5613 N.1       1 <0>        -0.4179
     30 C22         6.9705   -0.8918    3.2778 C.3       1 <0>         0.2237
     31 C23         6.0466   -0.1246    4.1882 C.2       1 <0>        -0.0182
     32 C24         5.7888   -0.4116    5.4785 C.2       1 <0>        -0.0415
     33 N4          4.9030    0.5317    5.9247 N.pl3     1 <0>        -0.5698
     34 C25         4.6500    1.3628    4.8909 C.2       1 <0>         0.1819
     35 N5          5.3413    0.9671    3.8571 N.2       1 <0>        -0.4752
     36 H2          6.2304    3.6741   -1.8508 H         1 <0>         0.1191
     37 H3          7.1236    1.4161   -2.2592 H         1 <0>         0.1212
     38 H4          5.9258   -0.5559   -1.3993 H         1 <0>         0.1234
     39 H5          2.9377    1.9876    0.2714 H         1 <0>         0.1163
     40 H6          4.1347    3.9596   -0.5898 H         1 <0>         0.1190
     41 H7          2.5659   -0.3763    0.1203 H         1 <0>         0.0747
     42 H8          3.7445   -1.4419   -0.6819 H         1 <0>         0.1376
     43 H9          5.6218   -2.3711    0.5431 H         1 <0>         0.0721
     44 H10         6.2237   -0.7093    0.7426 H         1 <0>         0.0949
     45 H11         8.0447   -3.7314    2.8501 H         1 <0>         0.1364
     46 H12         7.6273   -6.0304    3.6027 H         1 <0>         0.1338
     47 H13         3.4396   -5.1502    3.9596 H         1 <0>         0.1386
     48 H14         2.6772   -2.9540    3.7377 H         1 <0>         0.0903
     49 H15         3.8881   -1.6694    3.9680 H         1 <0>         0.0951
     50 H16         1.0452   -0.2784   -0.4352 H         1 <0>         0.1521
     51 H17        -0.9763    1.0581    0.0842 H         1 <0>         0.1465
     52 H18        -2.3531    0.3462    2.1534 H         1 <0>         0.1968
     53 H19         7.7155   -1.4173    3.8753 H         1 <0>         0.0824
     54 H20         7.4704   -0.1996    2.6004 H         1 <0>         0.0850
     55 H21         6.2015   -1.2292    6.0510 H         1 <0>         0.1724
     56 H22         3.9885    2.2161    4.9165 H         1 <0>         0.2026
     57 H23         4.5271    0.5918    6.8169 H         1 <0>         0.4201
@<TRIPOS>BOND
     1    1    6 ar
     2    1    2 ar
     3    1   36 1
     4    2    3 ar
     5    2   37 1
     6    3    4 ar
     7    3   38 1
     8    4    5 ar
     9    4    7 1
    10    5    6 ar
    11    5   39 1
    12    6   40 1
    13    7    8 1
    14    7   41 1
    15    7   42 1
    16    8    9 1
    17    8   19 1
    18    8   10 1
    19   10   11 1
    20   10   43 1
    21   10   44 1
    22   11   12 1
    23   11   30 1
    24   12   17 ar
    25   12   13 ar
    26   13   14 ar
    27   13   45 1
    28   14   15 ar
    29   14   46 1
    30   15   16 ar
    31   15   28 1
    32   16   17 ar
    33   16   47 1
    34   17   18 1
    35   18   19 1
    36   18   48 1
    37   18   49 1
    38   19   20 1
    39   20   21 2
    40   20   22 2
    41   20   23 1
    42   23   27 1
    43   23   24 2
    44   24   25 1
    45   24   50 1
    46   25   26 2
    47   25   51 1
    48   26   27 1
    49   26   52 1
    50   28   29 3
    51   30   31 1
    52   30   53 1
    53   30   54 1
    54   31   35 1
    55   31   32 2
    56   32   33 1
    57   32   55 1
    58   33   34 1
    59   33   57 1
    60   34   35 2
    61   34   56 1
@<TRIPOS>MOLECULE
ZINC03925649
   57    61     0     0     0
SMALL
USER_CHARGES

@<TRIPOS>ATOM
      1 C1          5.7027    2.8089   -1.4773 C.ar      1 <0>        -0.1206
      2 C2          6.2056    1.5415   -1.7042 C.ar      1 <0>        -0.1157
      3 C3          5.5333    0.4344   -1.2213 C.ar      1 <0>        -0.1160
      4 C4          4.3583    0.5948   -0.5110 C.ar      1 <0>        -0.0734
      5 C5          3.8559    1.8623   -0.2832 C.ar      1 <0>        -0.1146
      6 C6          4.5275    2.9693   -0.7674 C.ar      1 <0>        -0.1146
      7 C7          3.6248   -0.6121    0.0147 C.3       1 <0>        -0.1482
      8 C8          4.1986   -1.0039    1.3779 C.3       1 <0>         0.1385
      9 H1          4.2046   -0.1287    2.0276 H         1 <0>         0.0923
     10 C9          5.6222   -1.4976    1.1951 C.3       1 <0>         0.1279
     11 N1          6.1954   -1.8618    2.5003 N.pl3     1 <0>        -0.6562
     12 C10         5.9831   -3.1482    2.9753 C.ar      1 <0>         0.2192
     13 C11         7.0401   -4.0463    3.0909 C.ar      1 <0>        -0.1403
     14 C12         6.8054   -5.3357    3.5115 C.ar      1 <0>        -0.0492
     15 C13         5.5058   -5.7487    3.8206 C.ar      1 <0>        -0.0422
     16 C14         4.4466   -4.8387    3.7242 C.ar      1 <0>        -0.0375
     17 C15         4.6952   -3.5492    3.3290 C.ar      1 <0>        -0.1382
     18 C16         3.5901   -2.5097    3.3409 C.3       1 <0>         0.1729
     19 N2          3.3515   -2.0403    1.9757 N.pl3     1 <0>        -0.9779
     20 S1          2.1072   -2.6871    1.0950 S.o2      1 <0>         2.7171
     21 O1          2.5223   -2.6749   -0.2640 O.2       1 <0>        -0.9410
     22 O2          1.7149   -3.8794    1.7611 O.2       1 <0>        -0.9458
     23 C17         0.7484   -1.5720    1.2164 C.2       1 <0>        -0.7683
     24 C18         0.4283   -0.5260    0.4160 C.2       1 <0>        -0.0097
     25 C19        -0.6991    0.2194    0.7057 C.2       1 <0>        -0.1912
     26 C20        -1.4514   -0.1176    1.7817 C.2       1 <0>        -0.1286
     27 S2         -0.5686   -1.5315    2.4212 S.3       1 <0>         0.1671
     28 C21         5.2593   -7.0975    4.2336 C.1       1 <0>         0.2517
     29 N3          5.0637   -8.1675    4.5613 N.1       1 <0>        -0.4128
     30 C22         6.9705   -0.8918    3.2778 C.3       1 <0>         0.2141
     31 C23         6.0466   -0.1246    4.1882 C.2       1 <0>        -0.0457
     32 C24         5.4748    1.0675    3.9322 C.2       1 <0>        -0.0096
     33 N4          4.7267    1.4052    4.9930 N.2       1 <0>        -0.4912
     34 C25         4.8132    0.4678    5.8967 C.2       1 <0>         0.1868
     35 N5          5.6225   -0.5083    5.4318 N.pl3     1 <0>        -0.5622
     36 H2          5.8605   -1.3273    5.8938 H         1 <0>         0.4183
     37 H3          6.2304    3.6741   -1.8507 H         1 <0>         0.1208
     38 H4          7.1236    1.4162   -2.2592 H         1 <0>         0.1225
     39 H5          5.9259   -0.5559   -1.3992 H         1 <0>         0.1246
     40 H6          2.9377    1.9876    0.2714 H         1 <0>         0.1188
     41 H7          4.1347    3.9596   -0.5898 H         1 <0>         0.1213
     42 H8          2.5659   -0.3763    0.1203 H         1 <0>         0.0775
     43 H9          3.7445   -1.4419   -0.6819 H         1 <0>         0.1402
     44 H10         5.6218   -2.3711    0.5431 H         1 <0>         0.0777
     45 H11         6.2237   -0.7093    0.7426 H         1 <0>         0.0967
     46 H12         8.0447   -3.7314    2.8501 H         1 <0>         0.1366
     47 H13         7.6273   -6.0303    3.6026 H         1 <0>         0.1352
     48 H14         3.4397   -5.1502    3.9596 H         1 <0>         0.1407
     49 H15         2.6773   -2.9540    3.7377 H         1 <0>         0.0934
     50 H16         3.8881   -1.6694    3.9680 H         1 <0>         0.0950
     51 H17         1.0452   -0.2784   -0.4352 H         1 <0>         0.1515
     52 H18        -0.9763    1.0581    0.0842 H         1 <0>         0.1469
     53 H19        -2.3531    0.3462    2.1534 H         1 <0>         0.1976
     54 H20         7.7155   -1.4173    3.8753 H         1 <0>         0.0793
     55 H21         7.4704   -0.1996    2.6004 H         1 <0>         0.0995
     56 H22         5.5971    1.6495    3.0307 H         1 <0>         0.1641
     57 H23         4.3166    0.4702    6.8557 H         1 <0>         0.2049
@<TRIPOS>BOND
     1    1    6 ar
     2    1    2 ar
     3    1   37 1
     4    2    3 ar
     5    2   38 1
     6    3    4 ar
     7    3   39 1
     8    4    5 ar
     9    4    7 1
    10    5    6 ar
    11    5   40 1
    12    6   41 1
    13    7    8 1
    14    7   42 1
    15    7   43 1
    16    8    9 1
    17    8   19 1
    18    8   10 1
    19   10   11 1
    20   10   44 1
    21   10   45 1
    22   11   12 1
    23   11   30 1
    24   12   17 ar
    25   12   13 ar
    26   13   14 ar
    27   13   46 1
    28   14   15 ar
    29   14   47 1
    30   15   16 ar
    31   15   28 1
    32   16   17 ar
    33   16   48 1
    34   17   18 1
    35   18   19 1
    36   18   49 1
    37   18   50 1
    38   19   20 1
    39   20   21 2
    40   20   22 2
    41   20   23 1
    42   23   27 1
    43   23   24 2
    44   24   25 1
    45   24   51 1
    46   25   26 2
    47   25   52 1
    48   26   27 1
    49   26   53 1
    50   28   29 3
    51   30   31 1
    52   30   54 1
    53   30   55 1
    54   31   35 1
    55   31   32 2
    56   32   33 1
    57   32   56 1
    58   33   34 2
    59   34   35 1
    60   34   57 1
    61   35   36 1
@<TRIPOS>MOLECULE
ZINC03821364
   52    53     0     0     0
SMALL
USER_CHARGES
2-[[6-(2-amino-3-sulfanyl-propyl)amino-1-naphthyl]carbonylamino]-4-methylsulfanyl-butanoic acid
@<TRIPOS>ATOM
      1 C1         13.7449    7.9927   -5.0942 C.3       1 <0>        -0.1219
      2 S1         14.3079    8.0010   -3.3698 S.3       1 <0>        -0.2666
      3 C2         12.9622    7.1882   -2.4648 C.3       1 <0>        -0.0775
      4 C3         13.3121    7.1277   -0.9766 C.3       1 <0>        -0.0946
      5 C4         12.1771    6.4421   -0.2133 C.3       1 <0>         0.1067
      6 H1         11.9815    5.4645   -0.6539 H         1 <0>         0.0944
      7 C5         12.5737    6.2721    1.2306 C.2       1 <0>         0.4596
      8 O1         11.9138    6.7855    2.1029 O.co2     1 <0>        -0.6257
      9 N1         10.9677    7.2650   -0.2939 N.am      1 <0>        -0.6875
     10 C6          9.7540    6.6938   -0.1621 C.2       1 <0>         0.5597
     11 O2          9.6629    5.4956    0.0236 O.2       1 <0>        -0.5390
     12 C7          8.5366    7.5221   -0.2432 C.ar      1 <0>        -0.0892
     13 C8          8.6327    8.9032   -0.3298 C.ar      1 <0>        -0.0904
     14 C9          7.4902    9.6895   -0.4065 C.ar      1 <0>        -0.1017
     15 C10         6.2476    9.1301   -0.3995 C.ar      1 <0>        -0.1078
     16 C11         6.1024    7.7342   -0.3136 C.ar      1 <0>        -0.0139
     17 C12         7.2554    6.9155   -0.2341 C.ar      1 <0>        -0.0480
     18 C13         7.1136    5.5234   -0.1474 C.ar      1 <0>        -0.0534
     19 C14         5.8720    4.9667   -0.1355 C.ar      1 <0>        -0.1824
     20 C15         4.7260    5.7659   -0.2190 C.ar      1 <0>         0.1960
     21 C16         4.8309    7.1369   -0.3047 C.ar      1 <0>        -0.1899
     22 N2          3.4639    5.1682   -0.2094 N.pl3     1 <0>        -0.7679
     23 C17         3.3442    3.7109   -0.1185 C.3       1 <0>         0.1087
     24 C18         1.8653    3.3192   -0.1271 C.3       1 <0>         0.0502
     25 H2          1.3820    3.7048    0.7706 H         1 <0>         0.1592
     26 C19         1.7418    1.7945   -0.1579 C.3       1 <0>        -0.1119
     27 S2         -0.0117    1.3299   -0.1681 S.3       1 <0>        -0.2511
     28 H3          1.2266    4.8957   -1.2868 H         1 <0>         0.4375
     29 H4          1.6455    3.5448   -2.1616 H         1 <0>         0.4393
     30 H5         14.4973    8.4668   -5.7244 H         1 <0>         0.0994
     31 H6         13.5922    6.9643   -5.4216 H         1 <0>         0.0736
     32 H7         12.8067    8.5421   -5.1727 H         1 <0>         0.0722
     33 H8         12.8260    6.1767   -2.8475 H         1 <0>         0.0804
     34 H9         12.0405    7.7545   -2.5986 H         1 <0>         0.0759
     35 H10        13.4483    8.1391   -0.5939 H         1 <0>         0.0732
     36 H11        14.2338    6.5614   -0.8428 H         1 <0>         0.1009
     37 H12        11.0404    8.2208   -0.4420 H         1 <0>         0.3936
     38 H13         9.6057    9.3719   -0.3373 H         1 <0>         0.1310
     39 H14         7.5885   10.7629   -0.4733 H         1 <0>         0.1310
     40 H15         5.3726    9.7602   -0.4608 H         1 <0>         0.1276
     41 H16         7.9889    4.8937   -0.0865 H         1 <0>         0.1784
     42 H17         5.7696    3.8939   -0.0644 H         1 <0>         0.1203
     43 H18         3.9423    7.7479   -0.3644 H         1 <0>         0.1230
     44 H19         2.6665    5.7179   -0.2630 H         1 <0>         0.3905
     45 H20         3.8062    3.3655    0.8064 H         1 <0>         0.1098
     46 H21         3.8469    3.2513   -0.9695 H         1 <0>         0.0906
     47 H22         2.2241    1.3730    0.7240 H         1 <0>         0.1374
     48 H23         2.2250    1.4088   -1.0556 H         1 <0>         0.1164
     49 H24         0.0080   -0.0146   -0.1952 H         1 <0>         0.1411
     50 O3         13.6600    5.5502    1.5477 O.co2     1 <0>        -0.7570
     51 N3          1.1918    3.8780   -1.3126 N.4       1 <0>        -0.6446
     52 H25         0.2104    3.5763   -1.3167 H         1 <0>         0.4445
@<TRIPOS>BOND
     1    1    2 1
     2    1   30 1
     3    1   31 1
     4    1   32 1
     5    2    3 1
     6    3    4 1
     7    3   33 1
     8    3   34 1
     9    4    5 1
    10    4   35 1
    11    4   36 1
    12    5    6 1
    13    5    7 1
    14    5    9 1
    15    7    8 2
    16    7   50 1
    17    9   10 am
    18    9   37 1
    19   10   11 2
    20   10   12 1
    21   12   17 ar
    22   12   13 ar
    23   13   14 ar
    24   13   38 1
    25   14   15 ar
    26   14   39 1
    27   15   16 ar
    28   15   40 1
    29   16   21 ar
    30   16   17 ar
    31   17   18 ar
    32   18   19 ar
    33   18   41 1
    34   19   20 ar
    35   19   42 1
    36   20   21 ar
    37   20   22 1
    38   21   43 1
    39   22   23 1
    40   22   44 1
    41   23   24 1
    42   23   45 1
    43   23   46 1
    44   24   25 1
    45   24   26 1
    46   24   51 1
    47   26   27 1
    48   26   47 1
    49   26   48 1
    50   27   49 1
    51   28   51 1
    52   29   51 1
    53   51   52 1
@<TRIPOS>MOLECULE
ZINC13586733
   45    45     0     0     0
SMALL
USER_CHARGES
(2S)-2-[[4-[[(2R)-2-amino-3-sulfanyl-propanoyl]amino]benzoyl]amino]-4-methylsulfanyl-butanoic acid
@<TRIPOS>ATOM
      1 C1         -8.1193   -6.9962   -2.3738 C.3       1 <0>        -0.1218
      2 S1         -8.9983   -6.2496   -0.9736 S.3       1 <0>        -0.2673
      3 C2         -9.1180   -4.4945   -1.4160 C.3       1 <0>        -0.0774
      4 C3         -9.8483   -3.7372   -0.3051 C.3       1 <0>        -0.0937
      5 C4         -9.9493   -2.2568   -0.6783 C.3       1 <0>         0.1064
      6 H1        -10.4236   -2.1599   -1.6549 H         1 <0>         0.0951
      7 C5        -10.7741   -1.5335    0.3549 C.2       1 <0>         0.4597
      8 O1        -10.2900   -0.6235    0.9854 O.co2     1 <0>        -0.6279
      9 N1         -8.6065   -1.6729   -0.7275 N.am      1 <0>        -0.6908
     10 C6         -8.3719   -0.5859   -1.4890 C.2       1 <0>         0.5508
     11 O2         -9.2746   -0.0899   -2.1351 O.2       1 <0>        -0.5317
     12 C7         -7.0192    0.0024   -1.5386 C.ar      1 <0>        -0.1048
     13 C8         -6.7741    1.1295   -2.3276 C.ar      1 <0>        -0.0429
     14 C9         -5.5111    1.6754   -2.3720 C.ar      1 <0>        -0.1342
     15 C10        -4.4793    1.1066   -1.6320 C.ar      1 <0>         0.1242
     16 C11        -4.7186   -0.0187   -0.8495 C.ar      1 <0>        -0.1191
     17 C12        -5.9804   -0.5668   -0.7969 C.ar      1 <0>        -0.0689
     18 N2         -3.2012    1.6621   -1.6792 N.am      1 <0>        -0.6357
     19 C13        -2.4108    1.6279   -0.5880 C.2       1 <0>         0.4989
     20 O3         -2.8439    1.2010    0.4613 O.2       1 <0>        -0.4928
     21 C14        -0.9889    2.1200   -0.6718 C.3       1 <0>         0.0407
     22 H2         -0.9509    3.0177   -1.2889 H         1 <0>         0.1765
     23 C15        -0.1095    1.0346   -1.2958 C.3       1 <0>        -0.1099
     24 S2          1.6021    1.6270   -1.3967 S.3       1 <0>        -0.2361
     25 H3         -7.1390   -6.5310   -2.4772 H         1 <0>         0.0711
     26 H4         -7.9975   -8.0651   -2.1982 H         1 <0>         0.0993
     27 H5         -8.6932   -6.8412   -3.2874 H         1 <0>         0.0748
     28 H6         -9.6710   -4.3921   -2.3498 H         1 <0>         0.0818
     29 H7         -8.1167   -4.0818   -1.5396 H         1 <0>         0.0748
     30 H8         -9.2953   -3.8396    0.6286 H         1 <0>         0.0720
     31 H9        -10.8495   -4.1499   -0.1816 H         1 <0>         0.1013
     32 H10        -7.8864   -2.0686   -0.2121 H         1 <0>         0.3905
     33 H11        -7.5748    1.5719   -2.9017 H         1 <0>         0.1484
     34 H12        -5.3211    2.5464   -2.9815 H         1 <0>         0.1357
     35 H13        -3.9144   -0.4605   -0.2798 H         1 <0>         0.1356
     36 H14        -6.1665   -1.4376   -0.1858 H         1 <0>         0.1360
     37 H15        -2.8809    2.0731   -2.4973 H         1 <0>         0.4200
     38 H16        -0.1475    0.1369   -0.6787 H         1 <0>         0.1210
     39 H17        -0.4734    0.8031   -2.2968 H         1 <0>         0.1381
     40 H18         2.2694    0.6006   -1.9537 H         1 <0>         0.1412
     41 H19        -0.5237    1.6153    1.2691 H         1 <0>         0.4467
     42 H20         0.4303    2.8248    0.6425 H         1 <0>         0.4485
     43 O4        -12.0465   -1.9000    0.5746 O.co2     1 <0>        -0.7555
     44 N3         -0.5157    2.4493    0.6843 N.4       1 <0>        -0.6284
     45 H21        -1.1380    3.1540    1.0971 H         1 <0>         0.4498
@<TRIPOS>BOND
     1    1    2 1
     2    1   25 1
     3    1   26 1
     4    1   27 1
     5    2    3 1
     6    3    4 1
     7    3   28 1
     8    3   29 1
     9    4    5 1
    10    4   30 1
    11    4   31 1
    12    5    6 1
    13    5    7 1
    14    5    9 1
    15    7    8 2
    16    7   43 1
    17    9   10 am
    18    9   32 1
    19   10   11 2
    20   10   12 1
    21   12   17 ar
    22   12   13 ar
    23   13   14 ar
    24   13   33 1
    25   14   15 ar
    26   14   34 1
    27   15   16 ar
    28   15   18 1
    29   16   17 ar
    30   16   35 1
    31   17   36 1
    32   18   19 am
    33   18   37 1
    34   19   20 2
    35   19   21 1
    36   21   22 1
    37   21   23 1
    38   21   44 1
    39   23   24 1
    40   23   38 1
    41   23   39 1
    42   24   40 1
    43   41   44 1
    44   42   44 1
    45   44   45 1
