@<TRIPOS>MOLECULE
ZINC22309053
   37    36     0     0     0
SMALL
USER_CHARGES

@<TRIPOS>ATOM
      1 C1          0.9790    3.2167    0.1206 C.3       1 <0>        -0.0573
      2 C2          0.2774    3.4500    1.4601 C.3       1 <0>        -0.1816
      3 C3         -0.2607    4.8569    1.5070 C.2       1 <0>         0.4972
      4 O1         -0.0981    5.6037    0.5571 O.co2     1 <0>        -0.7102
      5 O2         -0.8586    5.2483    2.4948 O.co2     1 <0>        -0.7352
      6 C4          1.4256    1.7564    0.0263 C.3       1 <0>        -0.1255
      7 H1          0.5671    1.1031    0.1823 H         1 <0>         0.0590
      8 C5          2.4813    1.4758    1.0976 C.3       1 <0>        -0.7126
      9 P1          2.6889   -0.3252    1.2891 P.3       1 <0>         2.3216
     10 O3          3.0209   -0.9541   -0.0825 O.2       1 <0>        -1.0733
     11 C6          4.0491   -0.6594    2.4560 C.3       1 <0>        -0.7104
     12 C7          4.3059   -2.1663    2.5218 C.3       1 <0>        -0.1312
     13 H2          4.3148   -2.5778    1.5125 H         1 <0>         0.0634
     14 C8          5.6580   -2.4245    3.1898 C.3       1 <0>        -0.0600
     15 C9          5.9719   -3.9213    3.1439 C.3       1 <0>        -0.1739
     16 C10         7.3036   -4.1756    3.8018 C.2       1 <0>         0.4989
     17 O4          7.9425   -3.2459    4.2644 O.co2     1 <0>        -0.7108
     18 O5          7.7422   -5.3111    3.8714 O.co2     1 <0>        -0.7384
     19 C11         3.2149   -2.8272    3.3242 C.2       1 <0>         0.5287
     20 O6          2.5123   -3.6811    2.8106 O.co2     1 <0>        -0.6989
     21 O7          3.0347   -2.5081    4.4871 O.co2     1 <0>        -0.7317
     22 O8          1.3802   -0.9395    1.8341 O.3       1 <0>        -1.0794
     23 C12         2.0126    1.4976   -1.3373 C.2       1 <0>         0.5270
     24 O9          3.0266    2.0787   -1.6848 O.co2     1 <0>        -0.7329
     25 O10         1.4736    0.7072   -2.0931 O.co2     1 <0>        -0.7002
     26 H3          0.2899    3.4392   -0.6941 H         1 <0>         0.0365
     27 H4          1.8497    3.8684    0.0482 H         1 <0>         0.0397
     28 H5         -0.5450    2.7427    1.5676 H         1 <0>         0.0557
     29 H6          0.9891    3.3059    2.2730 H         1 <0>         0.0537
     30 H7          3.4301    1.9211    0.7983 H         1 <0>         0.0561
     31 H8          2.1605    1.9074    2.0457 H         1 <0>         0.0471
     32 H9          4.9519   -0.1515    2.1168 H         1 <0>         0.0380
     33 H10         3.7766   -0.2937    3.4460 H         1 <0>         0.0586
     34 H11         6.4357   -1.8738    2.6606 H         1 <0>         0.0274
     35 H12         5.6199   -2.0929    4.2274 H         1 <0>         0.0446
     36 H13         5.1942   -4.4720    3.6730 H         1 <0>         0.0603
     37 H14         6.0100   -4.2529    2.1063 H         1 <0>         0.0498
@<TRIPOS>BOND
     1    1    2 1
     2    1    6 1
     3    1   26 1
     4    1   27 1
     5    2    3 1
     6    2   28 1
     7    2   29 1
     8    3    4 2
     9    3    5 1
    10    6    7 1
    11    6    8 1
    12    6   23 1
    13    8    9 1
    14    8   30 1
    15    8   31 1
    16    9   10 2
    17    9   11 1
    18    9   22 1
    19   11   12 1
    20   11   32 1
    21   11   33 1
    22   12   13 1
    23   12   14 1
    24   12   19 1
    25   14   15 1
    26   14   34 1
    27   14   35 1
    28   15   16 1
    29   15   36 1
    30   15   37 1
    31   16   17 2
    32   16   18 1
    33   19   20 2
    34   19   21 1
    35   23   24 2
    36   23   25 1
@<TRIPOS>MOLECULE
ZINC13470280
   37    36     0     0     0
SMALL
USER_CHARGES

@<TRIPOS>ATOM
      1 C1         -0.0187    1.5258    0.0104 C.3       1 <0>        -0.0595
      2 C2          0.0021   -0.0041    0.0020 C.3       1 <0>        -0.1739
      3 C3         -1.4117   -0.5257    0.0127 C.2       1 <0>         0.4986
      4 O1         -2.3491    0.2539    0.0259 O.co2     1 <0>        -0.7113
      5 O2         -1.6182   -1.7273    0.0082 O.co2     1 <0>        -0.7376
      6 C4          1.4167    2.0553   -0.0004 C.3       1 <0>        -0.1313
      7 C5          1.3967    3.5807   -0.1178 C.3       1 <0>        -0.7102
      8 P1          3.0576    4.1769   -0.5753 P.3       1 <0>         2.3180
      9 O3          3.5226    3.4658   -1.8657 O.2       1 <0>        -1.0992
     10 C6          3.0001    5.9765   -0.8602 C.3       1 <0>        -0.7102
     11 C7          4.3625    6.4569   -1.3643 C.3       1 <0>        -0.1313
     12 C8          4.2220    7.8621   -1.9530 C.3       1 <0>        -0.0595
     13 C9          5.5547    8.2926   -2.5688 C.3       1 <0>        -0.1739
     14 C10         5.4163    9.6767   -3.1487 C.2       1 <0>         0.4986
     15 O4          4.3505   10.2643   -3.0760 O.co2     1 <0>        -0.7112
     16 O5          6.3702   10.2089   -3.6904 O.co2     1 <0>        -0.7377
     17 C11         5.3399    6.4880   -0.2177 C.2       1 <0>         0.5282
     18 O6          6.3511    5.8081   -0.2601 O.co2     1 <0>        -0.6969
     19 O7          5.1196    7.1930    0.7523 O.co2     1 <0>        -0.7299
     20 O8          4.0489    3.8679    0.5688 O.3       1 <0>        -1.0485
     21 C12         2.1081    1.6590    1.2786 C.2       1 <0>         0.5282
     22 O9          3.1106    0.9661    1.2403 O.co2     1 <0>        -0.6969
     23 O10         1.6649    2.0311    2.3517 O.co2     1 <0>        -0.7299
     24 H1         -0.5459    1.8868   -0.8726 H         1 <0>         0.0258
     25 H2         -0.5289    1.8773    0.9072 H         1 <0>         0.0453
     26 H3          0.5123   -0.3556   -0.8948 H         1 <0>         0.0491
     27 H4          0.5293   -0.3651    0.8851 H         1 <0>         0.0614
     28 H5          1.9535    1.6326   -0.8497 H         1 <0>         0.0613
     29 H6          0.6805    3.8768   -0.8843 H         1 <0>         0.0339
     30 H7          1.1055    4.0149    0.8387 H         1 <0>         0.0620
     31 H8          2.2369    6.2024   -1.6049 H         1 <0>         0.0339
     32 H9          2.7584    6.4846    0.0734 H         1 <0>         0.0620
     33 H10         4.7261    5.7754   -2.1334 H         1 <0>         0.0613
     34 H11         3.4504    7.8580   -2.7229 H         1 <0>         0.0258
     35 H12         3.9440    8.5605   -1.1637 H         1 <0>         0.0453
     36 H13         6.3263    8.2967   -1.7989 H         1 <0>         0.0614
     37 H14         5.8327    7.5942   -3.3581 H         1 <0>         0.0491
@<TRIPOS>BOND
     1    1    2 1
     2    1    6 1
     3    1   24 1
     4    1   25 1
     5    2    3 1
     6    2   26 1
     7    2   27 1
     8    3    4 2
     9    3    5 1
    10    6    7 1
    11    6   21 1
    12    6   28 1
    13    7    8 1
    14    7   29 1
    15    7   30 1
    16    8    9 2
    17    8   10 1
    18    8   20 1
    19   10   11 1
    20   10   31 1
    21   10   32 1
    22   11   12 1
    23   11   17 1
    24   11   33 1
    25   12   13 1
    26   12   34 1
    27   12   35 1
    28   13   14 1
    29   13   36 1
    30   13   37 1
    31   14   15 2
    32   14   16 1
    33   17   18 2
    34   17   19 1
    35   21   22 2
    36   21   23 1
@<TRIPOS>MOLECULE
ZINC22309057
   37    36     0     0     0
SMALL
USER_CHARGES

@<TRIPOS>ATOM
      1 C1          9.3628    2.7075    1.1375 C.3       1 <0>        -0.0600
      2 C2         10.8823    2.5971    0.9964 C.3       1 <0>        -0.1739
      3 C3         11.3383    1.2555    1.5093 C.2       1 <0>         0.4989
      4 O1         10.5235    0.4612    1.9471 O.co2     1 <0>        -0.7108
      5 O2         12.5221    0.9644    1.4865 O.co2     1 <0>        -0.7384
      6 C4          8.8998    4.0696    0.6168 C.3       1 <0>        -0.1312
      7 H1          9.2525    4.2068   -0.4054 H         1 <0>         0.0634
      8 C5          7.3713    4.1324    0.6417 C.3       1 <0>        -0.7104
      9 P1          6.8043    5.5382   -0.3711 P.3       1 <0>         2.3215
     10 O3          7.3928    5.4179   -1.7945 O.2       1 <0>        -1.0732
     11 C6          4.9837    5.5256   -0.4632 C.3       1 <0>        -0.7122
     12 C7          4.5134    6.6290   -1.4130 C.3       1 <0>        -0.1256
     13 H2          5.0611    7.5476   -1.2023 H         1 <0>         0.0592
     14 C8          3.0160    6.8707   -1.2123 C.3       1 <0>        -0.0572
     15 C9          2.7746    7.4426    0.1861 C.3       1 <0>        -0.1814
     16 C10         1.3184    7.7995    0.3383 C.2       1 <0>         0.4972
     17 O4          0.5453    7.6137   -0.5860 O.co2     1 <0>        -0.7101
     18 O5          0.9133    8.2741    1.3858 O.co2     1 <0>        -0.7352
     19 C11         4.7679    6.2079   -2.8374 C.2       1 <0>         0.5270
     20 O6          5.4421    6.9116   -3.5700 O.co2     1 <0>        -0.7000
     21 O7          4.2996    5.1634   -3.2572 O.co2     1 <0>        -0.7330
     22 O8          7.2783    6.8606    0.2721 O.3       1 <0>        -1.0793
     23 C12         9.4617    5.1596    1.4926 C.2       1 <0>         0.5287
     24 O9         10.1906    6.0116    1.0136 O.co2     1 <0>        -0.6989
     25 O10         9.1875    5.1896    2.6802 O.co2     1 <0>        -0.7316
     26 H3          8.8858    1.9161    0.5592 H         1 <0>         0.0274
     27 H4          9.0871    2.6070    2.1873 H         1 <0>         0.0446
     28 H5         11.1580    2.6976   -0.0534 H         1 <0>         0.0498
     29 H6         11.3593    3.3885    1.5747 H         1 <0>         0.0603
     30 H7          6.9630    3.2058    0.2382 H         1 <0>         0.0380
     31 H8          7.0297    4.2632    1.6685 H         1 <0>         0.0585
     32 H9          4.6454    4.5581   -0.8342 H         1 <0>         0.0560
     33 H10         4.5685    5.6993    0.5296 H         1 <0>         0.0466
     34 H11         2.6586    7.5779   -1.9608 H         1 <0>         0.0370
     35 H12         2.4786    5.9282   -1.3172 H         1 <0>         0.0391
     36 H13         3.0465    6.6986    0.9348 H         1 <0>         0.0532
     37 H14         3.3839    8.3359    0.3235 H         1 <0>         0.0560
@<TRIPOS>BOND
     1    1    2 1
     2    1    6 1
     3    1   26 1
     4    1   27 1
     5    2    3 1
     6    2   28 1
     7    2   29 1
     8    3    4 2
     9    3    5 1
    10    6    7 1
    11    6    8 1
    12    6   23 1
    13    8    9 1
    14    8   30 1
    15    8   31 1
    16    9   10 2
    17    9   11 1
    18    9   22 1
    19   11   12 1
    20   11   32 1
    21   11   33 1
    22   12   13 1
    23   12   14 1
    24   12   19 1
    25   14   15 1
    26   14   34 1
    27   14   35 1
    28   15   16 1
    29   15   36 1
    30   15   37 1
    31   16   17 2
    32   16   18 1
    33   19   20 2
    34   19   21 1
    35   23   24 2
    36   23   25 1
@<TRIPOS>MOLECULE
ZINC13470225
   22    21     0     0     0
SMALL
USER_CHARGES

@<TRIPOS>ATOM
      1 C1          1.0700    2.4799    0.2958 C.3       1 <0>        -0.0609
      2 C2          0.4048    2.7521    1.6465 C.3       1 <0>        -0.1787
      3 C3         -0.1719    4.1444    1.6510 C.2       1 <0>         0.4941
      4 O1         -0.0612    4.8532    0.6652 O.co2     1 <0>        -0.7030
      5 O2         -0.7492    4.5619    2.6404 O.co2     1 <0>        -0.7303
      6 C4          1.6517    1.0648    0.2897 C.3       1 <0>        -0.1298
      7 H1          0.8723    0.3505    0.5550 H         1 <0>         0.0609
      8 C5          2.7912    0.9775    1.3070 C.3       1 <0>        -0.6932
      9 P1          3.1859   -0.7730    1.6285 P.3       1 <0>         2.2432
     10 O3          1.9061   -1.5164    2.0718 O.2       1 <0>        -1.1063
     11 O4          3.7380   -1.4216    0.3396 O.3       1 <0>        -1.0847
     12 O5          4.2927   -0.8682    2.7938 O.3       1 <0>        -0.9068
     13 C6          2.1798    0.7447   -1.0849 C.2       1 <0>         0.5210
     14 O6          3.1479    1.3441   -1.5208 O.co2     1 <0>        -0.7189
     15 O7          1.6390   -0.1136   -1.7611 O.co2     1 <0>        -0.7063
     16 H2          0.3296    2.5718   -0.4988 H         1 <0>         0.0414
     17 H3          1.8698    3.2023    0.1325 H         1 <0>         0.0450
     18 H4         -0.3929    2.0279    1.8112 H         1 <0>         0.0521
     19 H5          1.1459    2.6633    2.4409 H         1 <0>         0.0499
     20 H6          3.6722    1.4816    0.9098 H         1 <0>         0.0666
     21 H7          2.4860    1.4578    2.2366 H         1 <0>         0.0493
     22 H8          4.5512   -1.7727    3.0177 H         1 <0>         0.3956
@<TRIPOS>BOND
     1    1    2 1
     2    1    6 1
     3    1   16 1
     4    1   17 1
     5    2    3 1
     6    2   18 1
     7    2   19 1
     8    3    4 2
     9    3    5 1
    10    6    7 1
    11    6    8 1
    12    6   13 1
    13    8    9 1
    14    8   20 1
    15    8   21 1
    16    9   10 2
    17    9   11 1
    18    9   12 1
    19   12   22 1
    20   13   14 2
    21   13   15 1
@<TRIPOS>MOLECULE
ZINC13519041
   25    24     0     0     0
SMALL
USER_CHARGES
(2R)-2-(3-sulfanylpropyl)pentanedioic acid
@<TRIPOS>ATOM
      1 C1         -0.7387    2.3032    1.2708 C.3       1 <0>        -0.1090
      2 C2         -0.7594    3.8330    1.2792 C.3       1 <0>        -0.0824
      3 C3         -1.4755    4.3264    2.5380 C.3       1 <0>        -0.1351
      4 H1         -1.0017    3.8933    3.4189 H         1 <0>         0.0626
      5 C4         -1.3877    5.8522    2.6098 C.3       1 <0>        -0.0651
      6 C5         -1.9936    6.3364    3.9286 C.3       1 <0>        -0.1662
      7 C6         -1.9070    7.8393    3.9994 C.2       1 <0>         0.4621
      8 O1         -1.4115    8.4594    3.0884 O.co2     1 <0>        -0.6595
      9 C7         -2.9226    3.9083    2.4892 C.2       1 <0>         0.4703
     10 O2         -3.3384    3.2802    1.5446 O.co2     1 <0>        -0.6502
     11 C8         -0.0225    1.8097    0.0120 C.3       1 <0>        -0.0496
     12 S1          0.0021   -0.0041    0.0020 S.3       1 <0>        -0.2636
     13 H2         -1.7613    1.9259    1.2785 H         1 <0>         0.1044
     14 H3         -0.2115    1.9421    2.1539 H         1 <0>         0.0578
     15 H4          0.2632    4.2103    1.2715 H         1 <0>         0.0432
     16 H5         -1.2866    4.1941    0.3961 H         1 <0>         0.0607
     17 H6         -0.3431    6.1589    2.5556 H         1 <0>         0.0406
     18 H7         -1.9379    6.2875    1.7757 H         1 <0>         0.0477
     19 H8         -3.0381    6.0297    3.9829 H         1 <0>         0.1125
     20 H9         -1.4433    5.9012    4.7628 H         1 <0>         0.0477
     21 H10         1.0001    2.1870    0.0043 H         1 <0>         0.0737
     22 H11        -0.5497    2.1708   -0.8711 H         1 <0>         0.0807
     23 H12         0.6481   -0.3145   -1.1361 H         1 <0>         0.0693
     24 O3         -2.3803    8.4890    5.0744 O.co2     1 <0>        -0.7951
     25 O4         -3.7495    4.2338    3.4952 O.co2     1 <0>        -0.7576
@<TRIPOS>BOND
     1    1    2 1
     2    1   11 1
     3    1   13 1
     4    1   14 1
     5    2    3 1
     6    2   15 1
     7    2   16 1
     8    3    4 1
     9    3    5 1
    10    3    9 1
    11    5    6 1
    12    5   17 1
    13    5   18 1
    14    6    7 1
    15    6   19 1
    16    6   20 1
    17    7    8 2
    18    7   24 1
    19    9   10 2
    20    9   25 1
    21   11   12 1
    22   11   21 1
    23   11   22 1
    24   12   23 1
@<TRIPOS>MOLECULE
ZINC28469972
   22    21     0     0     0
SMALL
USER_CHARGES

@<TRIPOS>ATOM
      1 C1         -0.0187    1.5258    0.0104 C.3       1 <0>        -0.0601
      2 C2          0.0021   -0.0041    0.0020 C.3       1 <0>        -0.1748
      3 C3         -1.4117   -0.5257    0.0127 C.2       1 <0>         0.4971
      4 O1         -2.3491    0.2539    0.0259 O.co2     1 <0>        -0.7103
      5 O2         -1.6182   -1.7273    0.0082 O.co2     1 <0>        -0.7289
      6 C4          1.4167    2.0553   -0.0004 C.3       1 <0>        -0.1318
      7 H1          1.9535    1.6326   -0.8497 H         1 <0>         0.0561
      8 C5          1.3967    3.5807   -0.1178 C.3       1 <0>        -0.6913
      9 P1          3.0576    4.1769   -0.5753 P.3       1 <0>         2.2389
     10 O3          4.0924    3.6510    0.4443 O.2       1 <0>        -1.0743
     11 O4          3.4184    3.6630   -1.9870 O.3       1 <0>        -1.1088
     12 O5          3.0700    5.7868   -0.5708 O.3       1 <0>        -0.9072
     13 C6          2.1081    1.6590    1.2786 C.2       1 <0>         0.5258
     14 O6          3.1106    0.9661    1.2403 O.co2     1 <0>        -0.6914
     15 O7          1.6649    2.0311    2.3517 O.co2     1 <0>        -0.7287
     16 H2         -0.5459    1.8868   -0.8726 H         1 <0>         0.0283
     17 H3         -0.5289    1.8773    0.9072 H         1 <0>         0.0483
     18 H4          0.5123   -0.3556   -0.8948 H         1 <0>         0.0485
     19 H5          0.5293   -0.3651    0.8851 H         1 <0>         0.0614
     20 H6          0.6805    3.8768   -0.8843 H         1 <0>         0.0430
     21 H7          1.1055    4.0149    0.8387 H         1 <0>         0.0642
     22 H8          3.9243    6.1742   -0.8057 H         1 <0>         0.3960
@<TRIPOS>BOND
     1    1    2 1
     2    1    6 1
     3    1   16 1
     4    1   17 1
     5    2    3 1
     6    2   18 1
     7    2   19 1
     8    3    4 2
     9    3    5 1
    10    6    7 1
    11    6    8 1
    12    6   13 1
    13    8    9 1
    14    8   20 1
    15    8   21 1
    16    9   10 2
    17    9   11 1
    18    9   12 1
    19   12   22 1
    20   13   14 2
    21   13   15 1
@<TRIPOS>MOLECULE
ZINC13519034
   25    24     0     0     0
SMALL
USER_CHARGES
(2S)-2-(3-sulfanylpropyl)pentanedioic acid
@<TRIPOS>ATOM
      1 C1         -0.3439    3.9007    1.2129 C.3       1 <0>        -0.1199
      2 C2         -1.4165    2.8114    1.2733 C.3       1 <0>        -0.0795
      3 C3         -1.3295    1.9397    0.0189 C.3       1 <0>        -0.1351
      4 H1         -1.4000    2.5704   -0.8673 H         1 <0>         0.0628
      5 C4         -2.4788    0.9298    0.0189 C.3       1 <0>        -0.0677
      6 C5         -2.4657    0.1423   -1.2929 C.3       1 <0>        -0.1577
      7 C6         -3.5978   -0.8524   -1.2929 C.2       1 <0>         0.4660
      8 O1         -4.3390   -0.9242   -0.3414 O.co2     1 <0>        -0.6536
      9 C7         -0.0143    1.2041    0.0087 C.2       1 <0>         0.4680
     10 O2          0.0021   -0.0041    0.0020 O.co2     1 <0>        -0.6260
     11 C8         -0.4309    4.7723    2.4673 C.3       1 <0>        -0.0528
     12 S1          0.8408    6.0639    2.3956 S.3       1 <0>        -0.2565
     13 H2          0.6415    3.4378    1.1598 H         1 <0>         0.1254
     14 H3         -0.5031    4.5187    0.3292 H         1 <0>         0.0606
     15 H4         -2.4019    3.2743    1.3264 H         1 <0>         0.0451
     16 H5         -1.2574    2.1933    2.1570 H         1 <0>         0.0518
     17 H6         -2.3587    0.2426    0.8564 H         1 <0>         0.0563
     18 H7         -3.4271    1.4585    0.1158 H         1 <0>         0.0382
     19 H8         -2.5859    0.8295   -2.1304 H         1 <0>         0.0451
     20 H9         -1.5175   -0.3864   -1.3898 H         1 <0>         0.0912
     21 H10        -1.4163    5.2353    2.5204 H         1 <0>         0.0710
     22 H11        -0.2718    4.1543    3.3509 H         1 <0>         0.0765
     23 H12         0.6667    6.7556    3.5359 H         1 <0>         0.0640
     24 O3         -3.7826   -1.6587   -2.3500 O.co2     1 <0>        -0.7956
     25 O4          1.1389    1.8910    0.0013 O.co2     1 <0>        -0.7776
@<TRIPOS>BOND
     1    1    2 1
     2    1   11 1
     3    1   13 1
     4    1   14 1
     5    2    3 1
     6    2   15 1
     7    2   16 1
     8    3    4 1
     9    3    5 1
    10    3    9 1
    11    5    6 1
    12    5   17 1
    13    5   18 1
    14    6    7 1
    15    6   19 1
    16    6   20 1
    17    7    8 2
    18    7   24 1
    19    9   10 2
    20    9   25 1
    21   11   12 1
    22   11   21 1
    23   11   22 1
    24   12   23 1
@<TRIPOS>MOLECULE
ZINC01529201
   33    32     0     0     0
SMALL
USER_CHARGES
2-(2-amino-4-carboxy-butanoyl)aminopentanedioic acid
@<TRIPOS>ATOM
      1 C1          5.6546    2.8947    0.7531 C.3       1 <0>        -0.1194
      2 C2          7.1005    3.3769    0.6199 C.3       1 <0>        -0.1684
      3 C3          7.9836    2.2172    0.2375 C.2       1 <0>         0.4571
      4 O1          7.5056    1.1178    0.0869 O.co2     1 <0>        -0.6193
      5 C4          4.7580    4.0721    1.1413 C.3       1 <0>         0.0119
      6 H1          4.8826    4.8777    0.4177 H         1 <0>         0.1543
      7 C5          3.3188    3.6252    1.1527 C.2       1 <0>         0.5041
      8 O2          2.7769    3.3523    2.2028 O.2       1 <0>        -0.5502
      9 N1          2.6340    3.5287   -0.0041 N.am      1 <0>        -0.6585
     10 C6          1.2350    3.0943    0.0069 C.3       1 <0>         0.0976
     11 H2          0.7441    3.4725    0.9036 H         1 <0>         0.0908
     12 C7          0.5222    3.6385   -1.2327 C.3       1 <0>        -0.0907
     13 C8          0.4722    5.1661   -1.1627 C.3       1 <0>        -0.1521
     14 C9         -0.2299    5.7022   -2.3837 C.2       1 <0>         0.4592
     15 O3         -0.6475    4.9406   -3.2236 O.co2     1 <0>        -0.6338
     16 C10         1.1765    1.5884   -0.0006 C.2       1 <0>         0.4608
     17 O4          2.1986    0.9442   -0.0139 O.co2     1 <0>        -0.6297
     18 H3          5.5977    2.1253    1.5230 H         1 <0>         0.0953
     19 H4          5.3202    2.4818   -0.1987 H         1 <0>         0.1208
     20 H5          7.1575    4.1464   -0.1500 H         1 <0>         0.0798
     21 H6          7.4349    3.7899    1.5717 H         1 <0>         0.0561
     22 H7          3.0675    3.7470   -0.8440 H         1 <0>         0.4024
     23 H8          1.0650    3.3334   -2.1273 H         1 <0>         0.0631
     24 H9         -0.4929    3.2432   -1.2710 H         1 <0>         0.0907
     25 H10        -0.0706    5.4713   -0.2681 H         1 <0>         0.0604
     26 H11         1.4872    5.5615   -1.1244 H         1 <0>         0.0545
     27 H12         4.5980    5.3703    2.7311 H         1 <0>         0.4316
     28 H13         5.0252    3.8233    3.1674 H         1 <0>         0.4395
     29 O5          9.3013    2.4057    0.0642 O.co2     1 <0>        -0.7708
     30 O6         -0.3914    7.0258   -2.5381 O.co2     1 <0>        -0.7891
     31 O7         -0.0110    0.9628    0.0073 O.co2     1 <0>        -0.7600
     32 N2          5.1565    4.5581    2.4741 N.4       1 <0>        -0.6250
     33 H14         6.1475    4.8259    2.4534 H         1 <0>         0.4368
@<TRIPOS>BOND
     1    1    2 1
     2    1    5 1
     3    1   18 1
     4    1   19 1
     5    2    3 1
     6    2   20 1
     7    2   21 1
     8    3    4 2
     9    3   29 1
    10    5    6 1
    11    5    7 1
    12    5   32 1
    13    7    8 2
    14    7    9 am
    15    9   10 1
    16    9   22 1
    17   10   11 1
    18   10   12 1
    19   10   16 1
    20   12   13 1
    21   12   23 1
    22   12   24 1
    23   13   14 1
    24   13   25 1
    25   13   26 1
    26   14   15 2
    27   14   30 1
    28   16   17 2
    29   16   31 1
    30   27   32 1
    31   28   32 1
    32   32   33 1
@<TRIPOS>MOLECULE
ZINC02522589
   30    29     0     0     0
SMALL
USER_CHARGES
2-(2-amino-3-carboxy-propanoyl)aminopentanedioic acid
@<TRIPOS>ATOM
      1 C1         -0.4075    4.8216    3.5238 C.3       1 <0>        -0.0899
      2 C2          0.9413    4.2867    4.0089 C.3       1 <0>        -0.1531
      3 C3          1.7328    5.4088    4.6299 C.2       1 <0>         0.4599
      4 O1          1.2659    6.5221    4.6794 O.co2     1 <0>        -0.6355
      5 C4         -1.2110    3.6823    2.8934 C.3       1 <0>         0.0974
      6 H1         -1.2995    2.8624    3.6061 H         1 <0>         0.0907
      7 C5         -2.5855    4.1799    2.5270 C.2       1 <0>         0.4629
      8 O2         -2.9545    4.1436    1.3770 O.co2     1 <0>        -0.6348
      9 N1         -0.5253    3.2099    1.6881 N.am      1 <0>        -0.6618
     10 C6         -0.7232    1.9508    1.2500 C.2       1 <0>         0.5001
     11 O3         -1.4690    1.2089    1.8536 O.2       1 <0>        -0.5541
     12 C7         -0.0178    1.4648    0.0101 C.3       1 <0>         0.0372
     13 H2          1.0047    1.8421    0.0024 H         1 <0>         0.1544
     14 C8         -0.7578    1.9716   -1.2294 C.3       1 <0>        -0.1761
     15 C9          0.0140    1.5902   -2.4663 C.2       1 <0>         0.4626
     16 O4          1.0497    0.9760   -2.3666 O.co2     1 <0>        -0.6531
     17 H3         -0.2430    5.6036    2.7827 H         1 <0>         0.0622
     18 H4         -0.9606    5.2321    4.3686 H         1 <0>         0.0897
     19 H5          0.7768    3.5046    4.7501 H         1 <0>         0.0606
     20 H6          1.4944    3.8761    3.1642 H         1 <0>         0.0562
     21 H7          0.0711    3.8033    1.2053 H         1 <0>         0.4023
     22 H8         -1.7508    1.5237   -1.2683 H         1 <0>         0.0970
     23 H9         -0.8504    3.0565   -1.1791 H         1 <0>         0.1223
     24 H10        -0.9349   -0.3784    0.0090 H         1 <0>         0.4298
     25 H11         0.5256   -0.3543   -0.7863 H         1 <0>         0.4435
     26 O5          2.9564    5.1714    5.1280 O.co2     1 <0>        -0.7886
     27 O6         -3.3999    4.6634    3.4781 O.co2     1 <0>        -0.7607
     28 O7         -0.4490    1.9328   -3.6787 O.co2     1 <0>        -0.7316
     29 N2          0.0141   -0.0084    0.0239 N.4       1 <0>        -0.6173
     30 H12         0.4848   -0.3278    0.8787 H         1 <0>         0.4280
@<TRIPOS>BOND
     1    1    2 1
     2    1    5 1
     3    1   17 1
     4    1   18 1
     5    2    3 1
     6    2   19 1
     7    2   20 1
     8    3    4 2
     9    3   26 1
    10    5    6 1
    11    5    7 1
    12    5    9 1
    13    7    8 2
    14    7   27 1
    15    9   10 am
    16    9   21 1
    17   10   11 2
    18   10   12 1
    19   12   13 1
    20   12   14 1
    21   12   29 1
    22   14   15 1
    23   14   22 1
    24   14   23 1
    25   15   16 2
    26   15   28 1
    27   24   29 1
    28   25   29 1
    29   29   30 1
@<TRIPOS>MOLECULE
ZINC01532511
   34    33     0     0     0
SMALL
USER_CHARGES

@<TRIPOS>ATOM
      1 C1         -1.1671    1.4680   -0.5877 C.3       1 <0>        -0.1606
      2 C2         -1.1351   -0.0343   -0.7028 C.2       1 <0>         0.5149
      3 O1         -2.1319   -0.6822   -0.4632 O.2       1 <0>        -0.5553
      4 N1          0.0013   -0.6578   -1.0721 N.am      1 <0>        -0.6749
      5 C3          0.0649   -2.1214   -1.0786 C.3       1 <0>         0.1569
      6 H1         -0.5581   -2.5157   -0.2758 H         1 <0>         0.1075
      7 C4          1.5125   -2.5699   -0.8681 C.3       1 <0>        -0.1910
      8 C5          1.9666   -2.1700    0.5121 C.2       1 <0>         0.4983
      9 O2          1.2330   -1.5095    1.2277 O.co2     1 <0>        -0.6891
     10 O3          3.0676   -2.5069    0.9131 O.co2     1 <0>        -0.7098
     11 C6         -0.4341   -2.6400   -2.4027 C.2       1 <0>         0.5017
     12 O4         -0.8063   -1.8634   -3.2567 O.2       1 <0>        -0.5625
     13 N2         -0.4669   -3.9667   -2.6377 N.am      1 <0>        -0.6870
     14 C7         -0.9520   -4.4708   -3.9249 C.3       1 <0>         0.0774
     15 H2         -0.6618   -3.7814   -4.7177 H         1 <0>         0.0712
     16 C8         -0.3411   -5.8469   -4.1966 C.3       1 <0>        -0.0796
     17 C9          1.1738   -5.7090   -4.3609 C.3       1 <0>        -0.1779
     18 C10         1.7755   -7.0644   -4.6286 C.2       1 <0>         0.4937
     19 O5          1.0592   -8.0495   -4.6829 O.co2     1 <0>        -0.7024
     20 O6          2.9788   -7.1760   -4.7908 O.co2     1 <0>        -0.7218
     21 C11        -2.4540   -4.5869   -3.8850 C.2       1 <0>         0.4984
     22 O7         -3.1036   -4.4475   -4.9073 O.co2     1 <0>        -0.7134
     23 O8         -3.0196   -4.8204   -2.8304 O.co2     1 <0>        -0.6949
     24 H3         -0.8927    1.7607    0.4257 H         1 <0>         0.0853
     25 H4         -0.4603    1.9017   -1.2952 H         1 <0>         0.0700
     26 H5         -2.1714    1.8281   -0.8106 H         1 <0>         0.0798
     27 H6          0.7771   -0.1375   -1.3334 H         1 <0>         0.3928
     28 H7          1.5759   -3.6531   -0.9718 H         1 <0>         0.0809
     29 H8          2.1518   -2.0956   -1.6126 H         1 <0>         0.0663
     30 H9         -0.1693   -4.5877   -1.9546 H         1 <0>         0.3922
     31 H10        -0.5568   -6.5118   -3.3602 H         1 <0>         0.0590
     32 H11        -0.7694   -6.2607   -5.1095 H         1 <0>         0.0663
     33 H12         1.3895   -5.0441   -5.1973 H         1 <0>         0.0504
     34 H13         1.6021   -5.2952   -3.4480 H         1 <0>         0.0574
@<TRIPOS>BOND
     1    1    2 1
     2    1   24 1
     3    1   25 1
     4    1   26 1
     5    2    3 2
     6    2    4 am
     7    4    5 1
     8    4   27 1
     9    5    6 1
    10    5    7 1
    11    5   11 1
    12    7    8 1
    13    7   28 1
    14    7   29 1
    15    8    9 2
    16    8   10 1
    17   11   12 2
    18   11   13 am
    19   13   14 1
    20   13   30 1
    21   14   15 1
    22   14   16 1
    23   14   21 1
    24   16   17 1
    25   16   31 1
    26   16   32 1
    27   17   18 1
    28   17   33 1
    29   17   34 1
    30   18   19 2
    31   18   20 1
    32   21   22 2
    33   21   23 1
