@<TRIPOS>MOLECULE
ZINC28526330
   27    26     0     0     0
SMALL
USER_CHARGES
(1-amino-1-phosphono-pentyl)phosphonic acid
@<TRIPOS>ATOM
      1 C1          0.7155   -2.3071   -3.9459 C.3       1 <0>        -0.1463
      2 C2          0.6353   -0.7823   -3.8486 C.3       1 <0>        -0.1188
      3 C3         -0.0400   -0.3901   -2.5329 C.3       1 <0>        -0.1594
      4 C4         -0.1202    1.1347   -2.4355 C.3       1 <0>        -0.0864
      5 C5         -0.7955    1.5269   -1.1198 C.3       1 <0>        -1.1021
      6 N1         -0.0116    1.0048    0.0076 N.4       1 <0>        -0.6062
      7 P1         -2.4772    0.8253   -1.0672 P.3       1 <0>         2.1497
      8 O1         -3.1733    1.3032    0.1484 O.2       1 <0>        -1.1070
      9 O2         -3.2950    1.2930   -2.3728 O.3       1 <0>        -1.1452
     10 O3         -2.3875   -0.7819   -1.0373 O.3       1 <0>        -1.1577
     11 P2         -0.8911    3.3437   -1.0038 P.3       1 <0>         2.3022
     12 O4         -1.5443    3.7231    0.2689 O.2       1 <0>        -1.0679
     13 O5          0.5942    3.9633   -1.0503 O.3       1 <0>        -1.1310
     14 O6         -1.7502    3.9159   -2.2394 O.3       1 <0>        -0.9093
     15 H1          1.2010   -2.5891   -4.8918 H         1 <0>         0.0423
     16 H2         -0.2993   -2.7304   -3.9141 H         1 <0>         0.0625
     17 H3          1.3024   -2.6980   -3.1017 H         1 <0>         0.0456
     18 H4          1.6501   -0.3590   -3.8804 H         1 <0>         0.0438
     19 H5          0.0484   -0.3914   -4.6928 H         1 <0>         0.0620
     20 H6         -1.0548   -0.8134   -2.5012 H         1 <0>         0.1405
     21 H7          0.5469   -0.7811   -1.6887 H         1 <0>         0.0328
     22 H8          0.8946    1.5580   -2.4672 H         1 <0>         0.0485
     23 H9         -0.7071    1.5257   -3.2797 H         1 <0>         0.0926
     24 H10        -0.4971    1.2868    0.9535 H         1 <0>         0.4477
     25 H11         1.0032    1.4282   -0.0242 H         1 <0>         0.4093
     26 H12        -1.9169    4.9986   -2.3387 H         1 <0>         0.4321
     27 H13         0.0461   -0.0915   -0.0624 H         1 <0>         0.4257
@<TRIPOS>BOND
     1    1    2 1
     2    1   15 1
     3    1   16 1
     4    1   17 1
     5    2    3 1
     6    2   18 1
     7    2   19 1
     8    3    4 1
     9    3   20 1
    10    3   21 1
    11    4    5 1
    12    4   22 1
    13    4   23 1
    14    5    6 1
    15    5    7 1
    16    5   11 1
    17    6   24 1
    18    6   25 1
    19    6   27 1
    20    7    8 2
    21    7    9 1
    22    7   10 1
    23   11   12 2
    24   11   13 1
    25   11   14 1
    26   14   26 1
@<TRIPOS>MOLECULE
ZINC28526330
   28    27     0     0     0
SMALL
USER_CHARGES
(1-amino-1-phosphono-pentyl)phosphonic acid
@<TRIPOS>ATOM
      1 C1          0.7155   -2.3071   -3.9459 C.3       1 <0>        -0.1509
      2 C2          0.6353   -0.7823   -3.8486 C.3       1 <0>        -0.1205
      3 C3         -0.0400   -0.3901   -2.5329 C.3       1 <0>        -0.1620
      4 C4         -0.1202    1.1347   -2.4355 C.3       1 <0>        -0.1045
      5 C5         -0.7955    1.5269   -1.1198 C.3       1 <0>        -1.1130
      6 N1         -0.0116    1.0048    0.0076 N.4       1 <0>        -0.6117
      7 P1         -2.4772    0.8253   -1.0672 P.3       1 <0>         2.2573
      8 O1         -3.1733    1.3032    0.1484 O.2       1 <0>        -1.0417
      9 O2         -3.2950    1.2930   -2.3728 O.3       1 <0>        -0.9243
     10 O3         -2.3875   -0.7819   -1.0373 O.3       1 <0>        -1.0852
     11 P2         -0.8911    3.3437   -1.0038 P.3       1 <0>         2.2563
     12 O4         -1.5443    3.7231    0.2689 O.2       1 <0>        -1.0412
     13 O5          0.5942    3.9633   -1.0503 O.3       1 <0>        -1.0964
     14 O6         -1.7502    3.9159   -2.2394 O.3       1 <0>        -0.9251
     15 H1          1.2010   -2.5891   -4.8918 H         1 <0>         0.0505
     16 H2         -0.2993   -2.7304   -3.9141 H         1 <0>         0.0614
     17 H3          1.3024   -2.6980   -3.1017 H         1 <0>         0.0509
     18 H4          1.6501   -0.3590   -3.8804 H         1 <0>         0.0541
     19 H5          0.0484   -0.3914   -4.6928 H         1 <0>         0.0630
     20 H6         -1.0548   -0.8134   -2.5012 H         1 <0>         0.1263
     21 H7          0.5469   -0.7811   -1.6887 H         1 <0>         0.0483
     22 H8          0.8946    1.5580   -2.4672 H         1 <0>         0.0766
     23 H9         -0.7071    1.5257   -3.2797 H         1 <0>         0.0939
     24 H10        -0.4971    1.2868    0.9535 H         1 <0>         0.4574
     25 H11         1.0032    1.4282   -0.0242 H         1 <0>         0.4370
     26 H12        -1.9169    4.9986   -2.3387 H         1 <0>         0.4538
     27 H13         0.0461   -0.0915   -0.0624 H         1 <0>         0.4364
     28 H14        -4.3354    0.9660   -2.5165 H         1 <0>         0.4533
@<TRIPOS>BOND
     1    1    2 1
     2    1   15 1
     3    1   16 1
     4    1   17 1
     5    2    3 1
     6    2   18 1
     7    2   19 1
     8    3    4 1
     9    3   20 1
    10    3   21 1
    11    4    5 1
    12    4   22 1
    13    4   23 1
    14    5    6 1
    15    5    7 1
    16    5   11 1
    17    6   24 1
    18    6   25 1
    19    6   27 1
    20    7    8 2
    21    7    9 1
    22    7   10 1
    23    9   28 1
    24   11   12 2
    25   11   13 1
    26   11   14 1
    27   14   26 1
@<TRIPOS>MOLECULE
ZINC22011868
   29    30     0     0     0
SMALL
USER_CHARGES

@<TRIPOS>ATOM
      1 C1         -0.0164    1.3560    0.0095 C.2       1 <0>        -0.0929
      2 C2          1.1943    2.0684    0.0018 C.2       1 <0>        -0.2134
      3 C3          2.3719    1.4095   -0.0130 C.2       1 <0>         0.1595
      4 N1          2.4048    0.0451   -0.0207 N.pl3     1 <0>        -0.3173
      5 C4          1.2400   -0.6776   -0.0134 C.2       1 <0>         0.2218
      6 C5          0.0021   -0.0041    0.0020 C.2       1 <0>        -0.1197
      7 N2          1.5556   -1.9650   -0.0233 N.2       1 <0>        -0.5240
      8 C6          2.8848   -2.0901   -0.0367 C.2       1 <0>         0.0062
      9 C7          3.4345   -0.8560   -0.0353 C.2       1 <0>         0.0147
     10 C8          4.9063   -0.5323   -0.0476 C.3       1 <0>        -0.0280
     11 C9          5.4176   -0.5378   -1.4897 C.3       1 <0>        -1.0245
     12 O1          5.2092   -1.8296   -2.0640 O.3       1 <0>        -0.5097
     13 P1          4.5124    0.7120   -2.4602 P.3       1 <0>         2.2109
     14 O2          3.0021    0.3066   -2.5545 O.2       1 <0>        -1.1678
     15 O3          4.6357    2.1076   -1.7590 O.3       1 <0>        -1.1595
     16 O4          5.1215    0.7960   -3.9011 O.3       1 <0>        -1.1763
     17 P2          7.1980   -0.1462   -1.5045 P.3       1 <0>         2.2733
     18 O5          7.4233    1.2505   -0.8836 O.2       1 <0>        -1.0959
     19 O6          7.9652   -1.2053   -0.6820 O.3       1 <0>        -1.1326
     20 O7          7.7361   -0.1520   -3.0220 O.3       1 <0>        -0.8692
     21 H1         -0.9574    1.8857    0.0258 H         1 <0>         0.1166
     22 H2          1.1826    3.1483    0.0073 H         1 <0>         0.1315
     23 H3          3.2969    1.9670   -0.0192 H         1 <0>         0.1855
     24 H4         -0.9225   -0.5622    0.0082 H         1 <0>         0.1235
     25 H5          3.4298   -3.0225   -0.0466 H         1 <0>         0.1549
     26 H6          5.0652    0.4531    0.3905 H         1 <0>         0.0775
     27 H7          5.4475   -1.2795    0.5327 H         1 <0>         0.0599
     28 H8          5.6627   -2.5451   -1.5977 H         1 <0>         0.3135
     29 H9          8.6783    0.0490   -3.1059 H         1 <0>         0.3814
@<TRIPOS>BOND
     1    1    6 2
     2    1    2 1
     3    1   21 1
     4    2    3 2
     5    2   22 1
     6    3    4 1
     7    3   23 1
     8    4    9 1
     9    4    5 1
    10    5    6 1
    11    5    7 2
    12    6   24 1
    13    7    8 1
    14    8    9 2
    15    8   25 1
    16    9   10 1
    17   10   11 1
    18   10   26 1
    19   10   27 1
    20   11   12 1
    21   11   13 1
    22   11   17 1
    23   12   28 1
    24   13   14 2
    25   13   15 1
    26   13   16 1
    27   17   18 2
    28   17   19 1
    29   17   20 1
    30   20   29 1
@<TRIPOS>MOLECULE
ZINC22011868
   31    32     0     0     0
SMALL
USER_CHARGES

@<TRIPOS>ATOM
      1 C1         -0.0164    1.3560    0.0095 C.2       1 <0>        -0.0190
      2 C2          1.1943    2.0684    0.0018 C.2       1 <0>        -0.1423
      3 C3          2.3719    1.4095   -0.0130 C.2       1 <0>         0.1198
      4 N1          2.4048    0.0451   -0.0207 N.pl3     1 <0>        -0.3045
      5 C4          1.2400   -0.6776   -0.0134 C.cat     1 <0>         0.3034
      6 C5          0.0021   -0.0041    0.0020 C.2       1 <0>        -0.1444
      7 N2          1.5556   -1.9650   -0.0233 N.pl3     1 <0>        -0.5079
      8 C6          2.8848   -2.0901   -0.0367 C.2       1 <0>         0.0522
      9 C7          3.4345   -0.8560   -0.0353 C.2       1 <0>         0.0432
     10 C8          4.9063   -0.5323   -0.0476 C.3       1 <0>        -0.0592
     11 C9          5.4176   -0.5378   -1.4897 C.3       1 <0>        -1.0186
     12 O1          5.2092   -1.8296   -2.0640 O.3       1 <0>        -0.5203
     13 P1          4.5124    0.7120   -2.4602 P.3       1 <0>         2.2356
     14 O2          5.0288    0.7064   -3.9163 O.2       1 <0>        -1.0677
     15 O3          2.9400    0.3662   -2.4470 O.3       1 <0>        -0.9096
     16 O4          4.7377    2.1087   -1.8392 O.3       1 <0>        -1.0539
     17 P2          7.1980   -0.1462   -1.5045 P.3       1 <0>         2.2517
     18 O5          7.4233    1.2505   -0.8836 O.2       1 <0>        -1.0662
     19 O6          7.9652   -1.2053   -0.6820 O.3       1 <0>        -1.0996
     20 O7          7.7361   -0.1520   -3.0220 O.3       1 <0>        -0.8767
     21 H1         -0.9574    1.8857    0.0258 H         1 <0>         0.1646
     22 H2          1.1826    3.1483    0.0073 H         1 <0>         0.1786
     23 H3          3.2969    1.9670   -0.0192 H         1 <0>         0.2171
     24 H4         -0.9225   -0.5622    0.0082 H         1 <0>         0.1668
     25 H5          3.4298   -3.0225   -0.0466 H         1 <0>         0.2181
     26 H6          5.0652    0.4531    0.3905 H         1 <0>         0.1142
     27 H7          5.4475   -1.2795    0.5327 H         1 <0>         0.1102
     28 H8          5.6627   -2.5451   -1.5977 H         1 <0>         0.3538
     29 H9          8.6783    0.0490   -3.1059 H         1 <0>         0.4039
     30 H10         2.3957    0.9911   -2.9452 H         1 <0>         0.4041
     31 H11         0.9218   -2.6993   -0.0207 H         1 <0>         0.4526
@<TRIPOS>BOND
     1    1    6 2
     2    1    2 1
     3    1   21 1
     4    2    3 2
     5    2   22 1
     6    3    4 1
     7    3   23 1
     8    4    9 1
     9    4    5 1
    10    5    6 1
    11    5    7 2
    12    6   24 1
    13    7    8 1
    14    7   31 1
    15    8    9 2
    16    8   25 1
    17    9   10 1
    18   10   11 1
    19   10   26 1
    20   10   27 1
    21   11   12 1
    22   11   13 1
    23   11   17 1
    24   12   28 1
    25   13   14 2
    26   13   15 1
    27   13   16 1
    28   15   30 1
    29   17   18 2
    30   17   19 1
    31   17   20 1
    32   20   29 1
@<TRIPOS>MOLECULE
ZINC22011868
   30    31     0     0     0
SMALL
USER_CHARGES

@<TRIPOS>ATOM
      1 C1         -0.0164    1.3560    0.0095 C.2       1 <0>        -0.0152
      2 C2          1.1943    2.0684    0.0018 C.2       1 <0>        -0.1722
      3 C3          2.3719    1.4095   -0.0130 C.2       1 <0>         0.1800
      4 N1          2.4048    0.0451   -0.0207 N.pl3     1 <0>        -0.2876
      5 C4          1.2400   -0.6776   -0.0134 C.cat     1 <0>         0.3092
      6 C5          0.0021   -0.0041    0.0020 C.2       1 <0>        -0.1667
      7 N2          1.5556   -1.9650   -0.0233 N.pl3     1 <0>        -0.5144
      8 C6          2.8848   -2.0901   -0.0367 C.2       1 <0>         0.0152
      9 C7          3.4345   -0.8560   -0.0353 C.2       1 <0>         0.0914
     10 C8          4.9063   -0.5323   -0.0476 C.3       1 <0>        -0.0477
     11 C9          5.4176   -0.5378   -1.4897 C.3       1 <0>        -1.0261
     12 O1          5.2092   -1.8296   -2.0640 O.3       1 <0>        -0.5117
     13 P1          4.5124    0.7120   -2.4602 P.3       1 <0>         2.1995
     14 O2          3.0020    0.3066   -2.5545 O.2       1 <0>        -1.1747
     15 O3          4.6357    2.1076   -1.7590 O.3       1 <0>        -1.1469
     16 O4          5.1215    0.7960   -3.9011 O.3       1 <0>        -1.1588
     17 P2          7.1980   -0.1462   -1.5045 P.3       1 <0>         2.2723
     18 O5          7.4233    1.2505   -0.8836 O.2       1 <0>        -1.0879
     19 O6          7.9652   -1.2053   -0.6820 O.3       1 <0>        -1.1243
     20 O7          7.7361   -0.1520   -3.0220 O.3       1 <0>        -0.8704
     21 H1         -0.9574    1.8857    0.0258 H         1 <0>         0.1514
     22 H2          1.1826    3.1483    0.0073 H         1 <0>         0.1660
     23 H3          3.2969    1.9670   -0.0192 H         1 <0>         0.2182
     24 H4         -0.9225   -0.5622    0.0082 H         1 <0>         0.1542
     25 H5          3.4298   -3.0225   -0.0466 H         1 <0>         0.2064
     26 H6          5.0652    0.4531    0.3905 H         1 <0>         0.1020
     27 H7          5.4475   -1.2795    0.5327 H         1 <0>         0.0859
     28 H8          5.6627   -2.5451   -1.5977 H         1 <0>         0.3214
     29 H9          8.6783    0.0490   -3.1059 H         1 <0>         0.3893
     30 H10         0.9218   -2.6993   -0.0207 H         1 <0>         0.4422
@<TRIPOS>BOND
     1    1    6 2
     2    1    2 1
     3    1   21 1
     4    2    3 2
     5    2   22 1
     6    3    4 1
     7    3   23 1
     8    4    9 1
     9    4    5 1
    10    5    6 1
    11    5    7 2
    12    6   24 1
    13    7    8 1
    14    7   30 1
    15    8    9 2
    16    8   25 1
    17    9   10 1
    18   10   11 1
    19   10   26 1
    20   10   27 1
    21   11   12 1
    22   11   13 1
    23   11   17 1
    24   12   28 1
    25   13   14 2
    26   13   15 1
    27   13   16 1
    28   17   18 2
    29   17   19 1
    30   17   20 1
    31   20   29 1
@<TRIPOS>MOLECULE
ZINC22011868
   30    31     0     0     0
SMALL
USER_CHARGES

@<TRIPOS>ATOM
      1 C1         -0.0164    1.3560    0.0095 C.2       1 <0>        -0.1292
      2 C2          1.1943    2.0684    0.0018 C.2       1 <0>        -0.1781
      3 C3          2.3719    1.4095   -0.0130 C.2       1 <0>         0.0771
      4 N1          2.4048    0.0451   -0.0207 N.pl3     1 <0>        -0.3483
      5 C4          1.2400   -0.6776   -0.0134 C.2       1 <0>         0.1904
      6 C5          0.0021   -0.0041    0.0020 C.2       1 <0>        -0.0763
      7 N2          1.5556   -1.9650   -0.0233 N.2       1 <0>        -0.4932
      8 C6          2.8848   -2.0901   -0.0367 C.2       1 <0>         0.1480
      9 C7          3.4345   -0.8560   -0.0353 C.2       1 <0>        -0.0640
     10 C8          4.9063   -0.5323   -0.0476 C.3       1 <0>        -0.0162
     11 C9          5.4176   -0.5378   -1.4897 C.3       1 <0>        -1.0250
     12 O1          4.7080    0.4419   -2.2504 O.3       1 <0>        -0.5199
     13 P1          7.1980   -0.1462   -1.5045 P.3       1 <0>         2.2277
     14 O2          7.9788   -1.2715   -0.7897 O.2       1 <0>        -1.0624
     15 O3          7.7076   -0.0227   -3.0268 O.3       1 <0>        -0.8881
     16 O4          7.4370    1.1926   -0.7713 O.3       1 <0>        -1.1013
     17 P2          5.1518   -2.1857   -2.2224 P.3       1 <0>         2.2616
     18 O5          5.9190   -3.2449   -1.3999 O.2       1 <0>        -1.0680
     19 O6          3.6429   -2.5176   -2.2097 O.3       1 <0>        -1.0768
     20 O7          5.6898   -2.1915   -3.7398 O.3       1 <0>        -0.8954
     21 H1         -0.9574    1.8857    0.0258 H         1 <0>         0.1263
     22 H2          1.1826    3.1483    0.0073 H         1 <0>         0.1349
     23 H3          3.2969    1.9670   -0.0192 H         1 <0>         0.1476
     24 H4         -0.9225   -0.5622    0.0082 H         1 <0>         0.1371
     25 H5          3.4298   -3.0225   -0.0466 H         1 <0>         0.1844
     26 H6          5.0652    0.4531    0.3905 H         1 <0>         0.0615
     27 H7          5.4475   -1.2795    0.5327 H         1 <0>         0.1035
     28 H8          4.8045    1.3444   -1.9169 H         1 <0>         0.3393
     29 H9          5.5803   -3.0388   -4.1927 H         1 <0>         0.4010
     30 H10         8.6484    0.1848   -3.1110 H         1 <0>         0.4016
@<TRIPOS>BOND
     1    1    6 2
     2    1    2 1
     3    1   21 1
     4    2    3 2
     5    2   22 1
     6    3    4 1
     7    3   23 1
     8    4    9 1
     9    4    5 1
    10    5    6 1
    11    5    7 2
    12    6   24 1
    13    7    8 1
    14    8    9 2
    15    8   25 1
    16    9   10 1
    17   10   11 1
    18   10   26 1
    19   10   27 1
    20   11   12 1
    21   11   13 1
    22   11   17 1
    23   12   28 1
    24   13   14 2
    25   13   15 1
    26   13   16 1
    27   15   30 1
    28   17   18 2
    29   17   19 1
    30   17   20 1
    31   20   29 1
@<TRIPOS>MOLECULE
ZINC28474872
   25    25     0     0     0
SMALL
USER_CHARGES

@<TRIPOS>ATOM
      1 C1         -0.0375    1.4122   -0.0773 C.ar      1 <0>        -0.0751
      2 C2          1.1847    2.0658   -0.0317 C.ar      1 <0>        -0.2062
      3 C3          2.3470    1.3190   -0.0031 C.ar      1 <0>         0.1010
      4 N1          2.3026    0.0010   -0.0192 N.ar      1 <0>        -0.4710
      5 C4          1.1589   -0.6538   -0.0624 C.ar      1 <0>         0.1869
      6 C5         -0.0442    0.0260   -0.0925 C.ar      1 <0>        -0.1477
      7 C6          1.1637   -2.1607   -0.0796 C.3       1 <0>        -0.0591
      8 C7          1.9701   -2.6545   -1.2824 C.3       1 <0>        -1.0127
      9 O1          3.3337   -2.2515   -1.1395 O.3       1 <0>        -0.5239
     10 P1          1.8799   -4.4732   -1.3693 P.3       1 <0>         2.2173
     11 O2          2.5663   -5.0911   -0.1038 O.2       1 <0>        -1.1919
     12 O3          0.3791   -4.9197   -1.4198 O.3       1 <0>        -1.1641
     13 O4          2.6168   -4.9716   -2.6589 O.3       1 <0>        -1.1741
     14 P2          1.2818   -1.9382   -2.8110 P.3       1 <0>         2.2634
     15 O5         -0.1924   -2.3739   -2.9655 O.2       1 <0>        -1.0973
     16 O6          1.3583   -0.3968   -2.7373 O.3       1 <0>        -1.1180
     17 O7          2.1305   -2.4578   -4.0766 O.3       1 <0>        -0.8708
     18 H1         -0.9622    1.9697   -0.0960 H         1 <0>         0.1137
     19 H2          1.2276    3.1448   -0.0190 H         1 <0>         0.1092
     20 H3          3.3028    1.8204    0.0325 H         1 <0>         0.1318
     21 H4         -0.9777   -0.5160   -0.1275 H         1 <0>         0.1258
     22 H5          1.6166   -2.5331    0.8392 H         1 <0>         0.0671
     23 H6          0.1395   -2.5264   -0.1540 H         1 <0>         0.0880
     24 H7          3.4573   -1.2939   -1.0867 H         1 <0>         0.3294
     25 H8          1.8194   -2.1158   -4.9259 H         1 <0>         0.3782
@<TRIPOS>BOND
     1    1    6 ar
     2    1    2 ar
     3    1   18 1
     4    2    3 ar
     5    2   19 1
     6    3    4 ar
     7    3   20 1
     8    4    5 ar
     9    5    6 ar
    10    5    7 1
    11    6   21 1
    12    7    8 1
    13    7   22 1
    14    7   23 1
    15    8    9 1
    16    8   10 1
    17    8   14 1
    18    9   24 1
    19   10   11 2
    20   10   12 1
    21   10   13 1
    22   14   15 2
    23   14   16 1
    24   14   17 1
    25   17   25 1
@<TRIPOS>MOLECULE
ZINC28474872
   26    26     0     0     0
SMALL
USER_CHARGES
[1-hydroxy-1-phosphono-2-(2-pyridyl)ethyl]phosphonic acid
@<TRIPOS>ATOM
      1 C1          3.0410    7.0628    0.7473 C.ar      1 <0>        -0.0767
      2 C2          3.6954    6.8247   -0.4519 C.ar      1 <0>        -0.1934
      3 C3          3.0484    6.1095   -1.4416 C.ar      1 <0>         0.0977
      4 N1          1.8284    5.6463   -1.2511 N.ar      1 <0>        -0.4378
      5 C4          1.1761    5.8535   -0.1241 C.ar      1 <0>         0.1733
      6 C5          1.7572    6.5653    0.9085 C.ar      1 <0>        -0.1475
      7 C6         -0.2193    5.3084    0.0399 C.3       1 <0>        -0.0271
      8 C7         -1.1172    5.8639   -1.0674 C.3       1 <0>        -1.0227
      9 O1         -0.6405    5.4149   -2.3375 O.3       1 <0>        -0.5404
     10 P1         -2.8248    5.2766   -0.8170 P.3       1 <0>         2.2364
     11 O2         -3.6710    5.7245   -1.9456 O.2       1 <0>        -1.0804
     12 O3         -2.8339    3.6682   -0.7447 O.3       1 <0>        -0.9284
     13 O4         -3.4031    5.8790    0.5595 O.3       1 <0>        -1.0862
     14 P2         -1.0878    7.6860   -1.0168 P.3       1 <0>         2.2673
     15 O5         -1.5816    8.1510    0.2986 O.2       1 <0>        -1.0694
     16 O6          0.4202    8.2047   -1.2379 O.3       1 <0>        -1.1076
     17 O7         -2.0327    8.2706   -2.1819 O.3       1 <0>        -0.9221
     18 H1          3.5203    7.6223    1.5370 H         1 <0>         0.1165
     19 H2          4.6963    7.1974   -0.6121 H         1 <0>         0.1122
     20 H3          3.5493    5.9240   -2.3802 H         1 <0>         0.1319
     21 H4          1.2179    6.7315    1.8294 H         1 <0>         0.1231
     22 H5         -0.1940    4.2106   -0.0247 H         1 <0>         0.0627
     23 H6         -0.6175    5.6089    1.0203 H         1 <0>         0.0958
     24 H7         -1.1624    5.7148   -3.2582 H         1 <0>         0.3712
     25 H8         -2.1415    9.3579   -2.3081 H         1 <0>         0.4261
     26 H9         -3.7815    3.1297   -0.5963 H         1 <0>         0.4254
@<TRIPOS>BOND
     1    1    6 ar
     2    1    2 ar
     3    1   18 1
     4    2    3 ar
     5    2   19 1
     6    3    4 ar
     7    3   20 1
     8    4    5 ar
     9    5    6 ar
    10    5    7 1
    11    6   21 1
    12    7    8 1
    13    7   22 1
    14    7   23 1
    15    8    9 1
    16    8   10 1
    17    8   14 1
    18    9   24 1
    19   10   11 2
    20   10   12 1
    21   10   13 1
    22   12   26 1
    23   14   15 2
    24   14   16 1
    25   14   17 1
    26   17   25 1
@<TRIPOS>MOLECULE
ZINC20581813
   22    21     0     0     0
SMALL
USER_CHARGES

@<TRIPOS>ATOM
      1 C1         -0.0187    1.5258    0.0104 C.3       1 <0>        -0.1376
      2 C2          0.0021   -0.0041    0.0020 C.3       1 <0>        -0.1485
      3 C3         -1.4333   -0.5336    0.0129 C.3       1 <0>        -0.0834
      4 C4         -1.4126   -2.0635    0.0045 C.3       1 <0>        -1.0358
      5 O1         -0.7437   -2.5243   -1.1712 O.3       1 <0>        -0.5177
      6 P1         -0.5309   -2.6674    1.4814 P.3       1 <0>         2.2249
      7 O2          0.9723   -2.2321    1.4066 O.2       1 <0>        -1.1800
      8 O3         -1.1875   -2.0586    2.7669 O.3       1 <0>        -1.1651
      9 O4         -0.6196   -4.2304    1.5398 O.3       1 <0>        -1.1773
     10 P2         -3.1228   -2.6945    0.0174 P.3       1 <0>         2.2734
     11 O5         -3.8460   -2.1962    1.2886 O.2       1 <0>        -1.0980
     12 O6         -3.8701   -2.1827   -1.2343 O.3       1 <0>        -1.1372
     13 O7         -3.1010   -4.3043    0.0085 O.3       1 <0>        -0.8690
     14 H1          1.0039    1.9031    0.0027 H         1 <0>         0.0346
     15 H2         -0.5459    1.8868   -0.8726 H         1 <0>         0.0282
     16 H3         -0.5289    1.8773    0.9072 H         1 <0>         0.0453
     17 H4          0.5123   -0.3556   -0.8948 H         1 <0>         0.0411
     18 H5          0.5293   -0.3651    0.8851 H         1 <0>         0.1232
     19 H6         -1.9435   -0.1821    0.9097 H         1 <0>         0.0672
     20 H7         -1.9605   -0.1726   -0.8702 H         1 <0>         0.0216
     21 H8         -1.1590   -2.2401   -1.9970 H         1 <0>         0.3108
     22 H9         -3.9789   -4.7096    0.0147 H         1 <0>         0.3794
@<TRIPOS>BOND
     1    1    2 1
     2    1   14 1
     3    1   15 1
     4    1   16 1
     5    2    3 1
     6    2   17 1
     7    2   18 1
     8    3    4 1
     9    3   19 1
    10    3   20 1
    11    4    5 1
    12    4    6 1
    13    4   10 1
    14    5   21 1
    15    6    7 2
    16    6    8 1
    17    6    9 1
    18   10   11 2
    19   10   12 1
    20   10   13 1
    21   13   22 1
@<TRIPOS>MOLECULE
ZINC49590008
   34    34     0     0     0
SMALL
USER_CHARGES

@<TRIPOS>ATOM
      1 C1         -0.2566    0.3149    0.3232 C.3       1 <0>        -0.1142
      2 C2          1.0334    1.0886    0.3598 C.3       1 <0>        -0.1280
      3 C3          1.3882    1.7082   -1.0054 C.3       1 <0>        -0.1038
      4 C4          1.1193    0.7523   -2.1834 C.3       1 <0>        -0.1227
      5 C5          1.5437   -0.6605   -1.8868 C.3       1 <0>        -0.0205
      6 C6          0.3231   -1.4366   -1.3515 C.3       1 <0>        -0.1268
      7 C7          0.0693   -1.1689    0.0564 C.3       1 <0>        -0.1181
      8 N1          2.0327   -1.2974   -3.1170 N.4       1 <0>        -0.4273
      9 C8          3.2679   -0.6335   -3.5545 C.3       1 <0>        -1.1479
     10 P1          4.5918   -0.9538   -2.3428 P.3       1 <0>         2.1349
     11 O1          4.2445   -0.2441   -0.9900 O.2       1 <0>        -1.1347
     12 O2          4.7200   -2.4970   -2.1051 O.3       1 <0>        -1.1252
     13 O3          5.9487   -0.3955   -2.8921 O.3       1 <0>        -1.1287
     14 P2          3.7641   -1.2852   -5.1831 P.3       1 <0>         2.2713
     15 O4          4.0074   -2.8071   -5.0764 O.2       1 <0>        -1.0716
     16 O5          2.6421   -1.0137   -6.2100 O.3       1 <0>        -1.1113
     17 O6          5.1179   -0.5575   -5.6626 O.3       1 <0>        -0.8697
     18 H1         -0.7685    0.4109    1.2808 H         1 <0>         0.0598
     19 H2         -0.8917    0.6995   -0.4748 H         1 <0>         0.0589
     20 H3          0.9453    1.8866    1.0971 H         1 <0>         0.0548
     21 H4          1.8380    0.4185    0.6628 H         1 <0>         0.0866
     22 H5          0.7969    2.6132   -1.1450 H         1 <0>         0.0513
     23 H6          2.4444    1.9776   -1.0054 H         1 <0>         0.0838
     24 H7          0.0526    0.7604   -2.4076 H         1 <0>         0.0620
     25 H8          1.6642    1.1081   -3.0577 H         1 <0>         0.0704
     26 H9          2.3330   -0.6556   -1.1351 H         1 <0>         0.1971
     27 H10        -0.5567   -1.1527   -1.9290 H         1 <0>         0.0661
     28 H11         0.4989   -2.5045   -1.4816 H         1 <0>         0.0756
     29 H12         0.9519   -1.4457    0.6330 H         1 <0>         0.0790
     30 H13        -0.7712   -1.7797    0.3859 H         1 <0>         0.0642
     31 H14         2.2199   -2.2728   -2.9393 H         1 <0>         0.4259
     32 H15         3.0963    0.4403   -3.6297 H         1 <0>         0.1237
     33 H16         5.4410   -0.8559   -6.5238 H         1 <0>         0.4005
     34 H17         1.3329   -1.2154   -3.8392 H         1 <0>         0.3848
@<TRIPOS>BOND
     1    1    7 1
     2    1    2 1
     3    1   18 1
     4    1   19 1
     5    2    3 1
     6    2   20 1
     7    2   21 1
     8    3    4 1
     9    3   22 1
    10    3   23 1
    11    4    5 1
    12    4   24 1
    13    4   25 1
    14    5    6 1
    15    5    8 1
    16    5   26 1
    17    6    7 1
    18    6   27 1
    19    6   28 1
    20    7   29 1
    21    7   30 1
    22    8    9 1
    23    8   31 1
    24    8   34 1
    25    9   10 1
    26    9   14 1
    27    9   32 1
    28   10   11 2
    29   10   12 1
    30   10   13 1
    31   14   15 2
    32   14   16 1
    33   14   17 1
    34   17   33 1
@<TRIPOS>MOLECULE
ZINC22064471
   31    30     0     0     0
SMALL
USER_CHARGES

@<TRIPOS>ATOM
      1 C1         -0.0187    1.5258    0.0104 C.3       1 <0>        -0.1131
      2 C2          0.0021   -0.0041    0.0020 C.3       1 <0>        -0.1421
      3 C3         -1.4333   -0.5336    0.0129 C.3       1 <0>        -0.0847
      4 C4         -1.4126   -2.0635    0.0045 C.3       1 <0>        -1.0348
      5 O1         -0.7437   -2.5243   -1.1712 O.3       1 <0>        -0.5176
      6 P1         -0.5309   -2.6674    1.4814 P.3       1 <0>         2.2233
      7 O2          0.9723   -2.2321    1.4066 O.2       1 <0>        -1.1812
      8 O3         -1.1875   -2.0586    2.7669 O.3       1 <0>        -1.1633
      9 O4         -0.6196   -4.2304    1.5398 O.3       1 <0>        -1.1734
     10 P2         -3.1228   -2.6945    0.0174 P.3       1 <0>         2.2726
     11 O5         -3.8460   -2.1962    1.2886 O.2       1 <0>        -1.0962
     12 O6         -3.8701   -2.1827   -1.2343 O.3       1 <0>        -1.1351
     13 O7         -3.1010   -4.3043    0.0085 O.3       1 <0>        -0.8701
     14 C5          1.4167    2.0553   -0.0004 C.3       1 <0>        -0.1482
     15 C6          1.3960    3.5852    0.0080 C.3       1 <0>        -0.0097
     16 N1          2.7741    4.0937   -0.0024 N.4       1 <0>        -0.6362
     17 H1         -0.5459    1.8868   -0.8726 H         1 <0>         0.0512
     18 H2         -0.5289    1.8773    0.9072 H         1 <0>         0.0671
     19 H3          0.5123   -0.3556   -0.8948 H         1 <0>         0.0467
     20 H4          0.5293   -0.3651    0.8851 H         1 <0>         0.1289
     21 H5         -1.9435   -0.1821    0.9097 H         1 <0>         0.0698
     22 H6         -1.9605   -0.1726   -0.8702 H         1 <0>         0.0243
     23 H7         -1.1590   -2.2401   -1.9970 H         1 <0>         0.3122
     24 H8         -3.9789   -4.7096    0.0147 H         1 <0>         0.3832
     25 H9          1.9439    1.6943    0.8826 H         1 <0>         0.0942
     26 H10         1.9269    1.7038   -0.8972 H         1 <0>         0.0806
     27 H11         0.8688    3.9463   -0.8751 H         1 <0>         0.1271
     28 H12         0.8858    3.9367    0.9048 H         1 <0>         0.1324
     29 H13         3.2464    3.7683   -0.8326 H         1 <0>         0.4311
     30 H14         2.7604    5.1025    0.0031 H         1 <0>         0.4259
     31 H15         3.2621    3.7594    0.8150 H         1 <0>         0.4350
@<TRIPOS>BOND
     1    1    2 1
     2    1   14 1
     3    1   17 1
     4    1   18 1
     5    2    3 1
     6    2   19 1
     7    2   20 1
     8    3    4 1
     9    3   21 1
    10    3   22 1
    11    4    5 1
    12    4    6 1
    13    4   10 1
    14    5   23 1
    15    6    7 2
    16    6    8 1
    17    6    9 1
    18   10   11 2
    19   10   12 1
    20   10   13 1
    21   13   24 1
    22   14   15 1
    23   14   25 1
    24   14   26 1
    25   15   16 1
    26   15   27 1
    27   15   28 1
    28   16   29 1
    29   16   30 1
    30   16   31 1
@<TRIPOS>MOLECULE
ZINC22064471
   32    31     0     0     0
SMALL
USER_CHARGES
(6-amino-1-hydroxy-1-phosphono-hexyl)phosphonic acid
@<TRIPOS>ATOM
      1 C1         -3.2168    1.7667   -1.9782 C.3       1 <0>        -0.1161
      2 C2         -4.5648    1.0463   -2.0464 C.3       1 <0>        -0.1437
      3 C3         -5.2533    1.3769   -3.3721 C.3       1 <0>        -0.0615
      4 C4         -6.6503    0.7531   -3.3908 C.3       1 <0>        -1.0373
      5 O1         -7.3750    1.1731   -2.2330 O.3       1 <0>        -0.5690
      6 P1         -7.5361    1.2912   -4.8905 P.3       1 <0>         2.2352
      7 O2         -8.9040    0.7264   -4.8848 O.2       1 <0>        -1.0767
      8 O3         -7.6193    2.8988   -4.9168 O.3       1 <0>        -0.9317
      9 O4         -6.7470    0.7732   -6.1948 O.3       1 <0>        -1.0844
     10 P2         -6.5044   -1.0641   -3.3903 P.3       1 <0>         2.2848
     11 O5         -5.7538   -1.4991   -4.5894 O.2       1 <0>        -1.0700
     12 O6         -5.7221   -1.5393   -2.0658 O.3       1 <0>        -1.1229
     13 O7         -7.9744   -1.7205   -3.4099 O.3       1 <0>        -0.9215
     14 C5         -2.5283    1.4362   -0.6525 C.3       1 <0>        -0.1476
     15 C6         -1.1803    2.1566   -0.5843 C.3       1 <0>        -0.0033
     16 N1         -0.5192    1.8392    0.6886 N.4       1 <0>        -0.6846
     17 H1         -2.5818    1.4363   -2.8135 H         1 <0>         0.0685
     18 H2         -3.3775    2.8527   -2.0471 H         1 <0>         0.0549
     19 H3         -4.4040   -0.0397   -1.9776 H         1 <0>         0.1254
     20 H4         -5.1998    1.3766   -1.2111 H         1 <0>         0.0568
     21 H5         -5.3377    2.4684   -3.4792 H         1 <0>         0.0369
     22 H6         -4.6596    0.9716   -4.2047 H         1 <0>         0.0817
     23 H7         -8.4057    0.8238   -2.0726 H         1 <0>         0.3846
     24 H8         -8.0882   -2.8146   -3.4122 H         1 <0>         0.4320
     25 H9         -3.1633    1.7666    0.1828 H         1 <0>         0.0802
     26 H10        -2.3675    0.3502   -0.5836 H         1 <0>         0.0920
     27 H11        -0.5454    1.8262   -1.4196 H         1 <0>         0.1276
     28 H12        -1.3410    3.2426   -0.6532 H         1 <0>         0.1227
     29 H13         0.4500    2.3572    0.7375 H         1 <0>         0.4491
     30 H14        -0.3584    0.7532    0.7574 H         1 <0>         0.4559
     31 H15        -1.1541    2.1696    1.5239 H         1 <0>         0.4524
     32 H16        -8.1213    3.4100   -5.7515 H         1 <0>         0.4296
@<TRIPOS>BOND
     1    1    2 1
     2    1   14 1
     3    1   17 1
     4    1   18 1
     5    2    3 1
     6    2   19 1
     7    2   20 1
     8    3    4 1
     9    3   21 1
    10    3   22 1
    11    4    5 1
    12    4    6 1
    13    4   10 1
    14    5   23 1
    15    6    7 2
    16    6    8 1
    17    6    9 1
    18    8   32 1
    19   10   11 2
    20   10   12 1
    21   10   13 1
    22   13   24 1
    23   14   15 1
    24   14   25 1
    25   14   26 1
    26   15   16 1
    27   15   27 1
    28   15   28 1
    29   16   29 1
    30   16   30 1
    31   16   31 1
@<TRIPOS>MOLECULE
ZINC28475732
   25    25     0     0     0
SMALL
USER_CHARGES

@<TRIPOS>ATOM
      1 C1         -0.0167    1.3823    0.0096 C.ar      1 <0>        -0.1630
      2 C2          1.1808    2.0721    0.0019 C.ar      1 <0>         0.0435
      3 N1          2.3308    1.4269   -0.0130 N.ar      1 <0>        -0.5074
      4 C3          2.3867    0.1094   -0.0206 C.ar      1 <0>         0.0719
      5 C4          1.2303   -0.6473   -0.0132 C.ar      1 <0>        -0.0526
      6 C5          0.0021   -0.0041    0.0020 C.ar      1 <0>        -0.0149
      7 C6         -1.2819   -0.7930    0.0105 C.3       1 <0>        -0.0639
      8 C7         -1.7307   -1.0523   -1.4290 C.3       1 <0>        -1.0220
      9 O1         -1.9423    0.1948   -2.0939 O.3       1 <0>        -0.5122
     10 P1         -0.4423   -1.9977   -2.3063 P.3       1 <0>         2.2115
     11 O2          0.8540   -1.1262   -2.4269 O.2       1 <0>        -1.1579
     12 O3         -0.1195   -3.3061   -1.5074 O.3       1 <0>        -1.1611
     13 O4         -0.9543   -2.3733   -3.7385 O.3       1 <0>        -1.1748
     14 P2         -3.2839   -2.0067   -1.4187 P.3       1 <0>         2.2736
     15 O5         -3.0551   -3.3550   -0.6998 O.2       1 <0>        -1.0953
     16 O6         -4.3758   -1.2054   -0.6752 O.3       1 <0>        -1.1337
     17 O7         -3.7562   -2.2795   -2.9335 O.3       1 <0>        -0.8691
     18 H1         -0.9553    1.9163    0.0259 H         1 <0>         0.1048
     19 H2          1.1748    3.1521    0.0078 H         1 <0>         0.1262
     20 H3          3.3473   -0.3840   -0.0331 H         1 <0>         0.1355
     21 H4          1.2825   -1.7260   -0.0195 H         1 <0>         0.1390
     22 H5         -1.1205   -1.7443    0.5177 H         1 <0>         0.0838
     23 H6         -2.0522   -0.2277    0.5351 H         1 <0>         0.0448
     24 H7         -2.6165    0.7514   -1.6807 H         1 <0>         0.3122
     25 H8         -4.5783   -2.7837   -3.0044 H         1 <0>         0.3812
@<TRIPOS>BOND
     1    1    6 ar
     2    1    2 ar
     3    1   18 1
     4    2    3 ar
     5    2   19 1
     6    3    4 ar
     7    4    5 ar
     8    4   20 1
     9    5    6 ar
    10    5   21 1
    11    6    7 1
    12    7    8 1
    13    7   22 1
    14    7   23 1
    15    8    9 1
    16    8   10 1
    17    8   14 1
    18    9   24 1
    19   10   11 2
    20   10   12 1
    21   10   13 1
    22   14   15 2
    23   14   16 1
    24   14   17 1
    25   17   25 1
@<TRIPOS>MOLECULE
ZINC28475732
   26    26     0     0     0
SMALL
USER_CHARGES
[1-hydroxy-1-phosphono-2-(4-pyridyl)ethyl]phosphonic acid
@<TRIPOS>ATOM
      1 C1         -0.8379    5.4552    0.5691 C.ar      1 <0>        -0.0517
      2 C2         -0.4961    6.5072    1.3978 C.ar      1 <0>         0.0762
      3 N1         -1.2887    6.8720    2.3866 N.ar      1 <0>        -0.4871
      4 C3         -2.4270    6.2515    2.6279 C.ar      1 <0>         0.0713
      5 C4         -2.8320    5.1875    1.8444 C.ar      1 <0>        -0.0855
      6 C5         -2.0248    4.7752    0.7952 C.ar      1 <0>        -0.0791
      7 C6         -2.4310    3.6195   -0.0826 C.3       1 <0>        -0.0368
      8 C7         -3.1015    4.1530   -1.3502 C.3       1 <0>        -1.0245
      9 O1         -3.6162    3.0597   -2.1130 O.3       1 <0>        -0.5798
     10 P1         -4.4671    5.2700   -0.8912 P.3       1 <0>         2.2389
     11 O2         -5.1156    5.7861   -2.1174 O.2       1 <0>        -1.0749
     12 O3         -5.5476    4.4634   -0.0115 O.3       1 <0>        -0.9359
     13 O4         -3.8872    6.5017   -0.0318 O.3       1 <0>        -1.0523
     14 P2         -1.8780    5.0664   -2.3464 P.3       1 <0>         2.2421
     15 O5         -2.4739    5.4240   -3.6531 O.2       1 <0>        -1.0736
     16 O6         -1.4463    6.4080   -1.5681 O.3       1 <0>        -1.0516
     17 O7         -0.5811    4.1422   -2.5829 O.3       1 <0>        -0.9362
     18 H1         -0.1869    5.1643   -0.2420 H         1 <0>         0.1168
     19 H2          0.4287    7.0395    1.2308 H         1 <0>         0.1348
     20 H3         -3.0501    6.5788    3.4470 H         1 <0>         0.1305
     21 H4         -3.7658    4.6838    2.0465 H         1 <0>         0.1058
     22 H5         -1.5395    3.0364   -0.3569 H         1 <0>         0.0543
     23 H6         -3.1369    2.9755    0.4624 H         1 <0>         0.0529
     24 H7         -4.1358    3.2489   -3.0639 H         1 <0>         0.3947
     25 H8          0.2688    4.5260   -3.1663 H         1 <0>         0.4265
     26 H9         -6.4476    4.9757    0.3594 H         1 <0>         0.4243
@<TRIPOS>BOND
     1    1    6 ar
     2    1    2 ar
     3    1   18 1
     4    2    3 ar
     5    2   19 1
     6    3    4 ar
     7    4    5 ar
     8    4   20 1
     9    5    6 ar
    10    5   21 1
    11    6    7 1
    12    7    8 1
    13    7   22 1
    14    7   23 1
    15    8    9 1
    16    8   10 1
    17    8   14 1
    18    9   24 1
    19   10   11 2
    20   10   12 1
    21   10   13 1
    22   12   26 1
    23   14   15 2
    24   14   16 1
    25   14   17 1
    26   17   25 1
@<TRIPOS>MOLECULE
ZINC49590055
   30    29     0     0     0
SMALL
USER_CHARGES

@<TRIPOS>ATOM
      1 C1          0.4234    0.6696    1.2681 C.3       1 <0>        -0.1515
      2 C2          0.3432   -0.8199    0.9279 C.3       1 <0>        -0.1230
      3 C3          1.0151   -1.0713   -0.4235 C.3       1 <0>        -0.1160
      4 C4          0.9349   -2.5609   -0.7636 C.3       1 <0>        -0.1431
      5 C5          1.6068   -2.8123   -2.1150 C.3       1 <0>        -0.0324
      6 N1          1.5298   -4.2424   -2.4416 N.4       1 <0>        -0.4306
      7 C6          2.0549   -4.4645   -3.7955 C.3       1 <0>        -1.1467
      8 P1          3.8385   -4.0884   -3.8247 P.3       1 <0>         2.1290
      9 O1          4.0534   -2.5567   -3.5755 O.2       1 <0>        -1.1453
     10 O2          4.5632   -4.9069   -2.7025 O.3       1 <0>        -1.1218
     11 O3          4.4316   -4.4785   -5.2213 O.3       1 <0>        -1.1260
     12 P2          1.7929   -6.2048   -4.2710 P.3       1 <0>         2.2711
     13 O4          2.5302   -7.1274   -3.2749 O.2       1 <0>        -1.0700
     14 O5          0.2814   -6.5235   -4.2462 O.3       1 <0>        -1.1108
     15 O6          2.3684   -6.4481   -5.7548 O.3       1 <0>        -0.8694
     16 H1          1.4685    0.9748    1.3196 H         1 <0>         0.0569
     17 H2         -0.0860    1.2465    0.4962 H         1 <0>         0.0523
     18 H3         -0.0553    0.8488    2.2308 H         1 <0>         0.0502
     19 H4          0.8525   -1.3968    1.6998 H         1 <0>         0.0641
     20 H5         -0.7020   -1.1251    0.8764 H         1 <0>         0.0587
     21 H6          0.5058   -0.4944   -1.1954 H         1 <0>         0.0660
     22 H7          2.0602   -0.7661   -0.3719 H         1 <0>         0.0790
     23 H8          1.4442   -3.1378    0.0083 H         1 <0>         0.0818
     24 H9         -0.1102   -2.8660   -0.8151 H         1 <0>         0.0685
     25 H10         1.0975   -2.2354   -2.8869 H         1 <0>         0.1026
     26 H11         2.6519   -2.5071   -2.0635 H         1 <0>         0.1714
     27 H12         2.0777   -4.7690   -1.7778 H         1 <0>         0.4268
     28 H13         1.5348   -3.8136   -4.4982 H         1 <0>         0.1187
     29 H14         2.2627   -7.3548   -6.0738 H         1 <0>         0.4011
     30 H15         0.5684   -4.5457   -2.3998 H         1 <0>         0.3884
@<TRIPOS>BOND
     1    1    2 1
     2    1   16 1
     3    1   17 1
     4    1   18 1
     5    2    3 1
     6    2   19 1
     7    2   20 1
     8    3    4 1
     9    3   21 1
    10    3   22 1
    11    4    5 1
    12    4   23 1
    13    4   24 1
    14    5    6 1
    15    5   25 1
    16    5   26 1
    17    6    7 1
    18    6   27 1
    19    6   30 1
    20    7    8 1
    21    7   12 1
    22    7   28 1
    23    8    9 2
    24    8   10 1
    25    8   11 1
    26   12   13 2
    27   12   14 1
    28   12   15 1
    29   15   29 1
@<TRIPOS>MOLECULE
ZINC21992002
   26    26     0     0     0
SMALL
USER_CHARGES

@<TRIPOS>ATOM
      1 C1         -0.0167    1.3781    0.0096 C.ar      1 <0>        -0.1424
      2 C2          1.1709    2.0855    0.0021 C.ar      1 <0>        -0.1648
      3 C3          2.3773    1.4107   -0.0130 C.ar      1 <0>        -0.1127
      4 C4          2.3960    0.0285   -0.0201 C.ar      1 <0>        -0.0503
      5 C5          1.2084   -0.6789   -0.0117 C.ar      1 <0>        -0.0064
      6 C6          0.0021   -0.0041    0.0020 C.ar      1 <0>        -0.1302
      7 C7          3.7112   -0.7071   -0.0376 C.3       1 <0>        -0.0627
      8 C8          4.1714   -0.9633    1.3989 C.3       1 <0>        -1.0227
      9 O1          4.3323    0.2842    2.0771 O.3       1 <0>        -0.5120
     10 P1          2.9234   -1.9700    2.2664 P.3       1 <0>         2.2135
     11 O2          1.5927   -1.1536    2.3969 O.2       1 <0>        -1.1572
     12 O3          2.6538   -3.2818    1.4535 O.3       1 <0>        -1.1635
     13 O4          3.4514   -2.3397    3.6943 O.3       1 <0>        -1.1773
     14 P2          5.7623   -1.8532    1.3778 P.3       1 <0>         2.2726
     15 O5          5.5882   -3.2019    0.6445 O.2       1 <0>        -1.0964
     16 O6          6.8199   -1.0000    0.6426 O.3       1 <0>        -1.1348
     17 O7          6.2465   -2.1227    2.8894 O.3       1 <0>        -0.8691
     18 H1         -0.9591    1.9053    0.0259 H         1 <0>         0.0920
     19 H2          1.1563    3.1654    0.0076 H         1 <0>         0.0912
     20 H3          3.3051    1.9634   -0.0196 H         1 <0>         0.0937
     21 H4          1.2231   -1.7588   -0.0176 H         1 <0>         0.1291
     22 H5         -0.9258   -0.5567    0.0082 H         1 <0>         0.0998
     23 H6          3.5884   -1.6586   -0.5549 H         1 <0>         0.0794
     24 H7          4.4573   -0.1052   -0.5563 H         1 <0>         0.0401
     25 H8          4.9829    0.8723    1.6697 H         1 <0>         0.3107
     26 H9          7.0886   -2.5937    2.9546 H         1 <0>         0.3803
@<TRIPOS>BOND
     1    1    6 ar
     2    1    2 ar
     3    1   18 1
     4    2    3 ar
     5    2   19 1
     6    3    4 ar
     7    3   20 1
     8    4    5 ar
     9    4    7 1
    10    5    6 ar
    11    5   21 1
    12    6   22 1
    13    7    8 1
    14    7   23 1
    15    7   24 1
    16    8    9 1
    17    8   10 1
    18    8   14 1
    19    9   25 1
    20   10   11 2
    21   10   12 1
    22   10   13 1
    23   14   15 2
    24   14   16 1
    25   14   17 1
    26   17   26 1
@<TRIPOS>MOLECULE
ZINC21992002
   27    27     0     0     0
SMALL
USER_CHARGES
(1-hydroxy-2-phenyl-1-phosphono-ethyl)phosphonic acid
@<TRIPOS>ATOM
      1 C1         -0.0126    1.0758    0.0080 C.ar      1 <0>        -0.1363
      2 C2         -1.2190    1.7506    0.0173 C.ar      1 <0>        -0.1263
      3 C3         -1.2377    3.1328    0.0299 C.ar      1 <0>        -0.0630
      4 C4         -0.0501    3.8402    0.0228 C.ar      1 <0>        -0.0703
      5 C5          1.1563    3.1654    0.0076 C.ar      1 <0>        -0.0954
      6 C6          1.1750    1.7832    0.0004 C.ar      1 <0>        -0.1453
      7 C7         -0.0705    5.3471    0.0311 C.3       1 <0>        -0.0412
      8 C8         -0.0912    5.8648   -1.4085 C.3       1 <0>        -1.0247
      9 O1          1.0754    5.4080   -2.0958 O.3       1 <0>        -0.5606
     10 P1         -1.5795    5.2416   -2.2570 P.3       1 <0>         2.2418
     11 O2         -1.5995    5.7424   -3.6496 O.2       1 <0>        -1.0844
     12 O3         -1.5576    3.6317   -2.2659 O.3       1 <0>        -0.9102
     13 O4         -2.8939    5.7562   -1.4827 O.3       1 <0>        -1.0899
     14 P2         -0.1159    7.6876   -1.3984 P.3       1 <0>         2.2761
     15 O5         -1.3242    8.1607   -0.6865 O.2       1 <0>        -1.0691
     16 O6          1.1984    8.2380   -0.6489 O.3       1 <0>        -1.1275
     17 O7         -0.1377    8.2324   -2.9132 O.3       1 <0>        -0.9186
     18 H1          0.0021   -0.0041    0.0020 H         1 <0>         0.1050
     19 H2         -2.1469    1.1980    0.0187 H         1 <0>         0.1110
     20 H3         -2.1802    3.6600    0.0414 H         1 <0>         0.1269
     21 H4          2.0842    3.7181    0.0017 H         1 <0>         0.1095
     22 H5          2.1175    1.2560   -0.0115 H         1 <0>         0.1048
     23 H6         -0.9685    5.6987    0.5602 H         1 <0>         0.0943
     24 H7          0.8275    5.7232    0.5431 H         1 <0>         0.0680
     25 H8          1.2358    5.6817   -3.1491 H         1 <0>         0.3785
     26 H9         -0.1543    9.3149   -3.1082 H         1 <0>         0.4285
     27 H10        -2.3796    3.0731   -2.7374 H         1 <0>         0.4184
@<TRIPOS>BOND
     1    1    6 ar
     2    1    2 ar
     3    1   18 1
     4    2    3 ar
     5    2   19 1
     6    3    4 ar
     7    3   20 1
     8    4    5 ar
     9    4    7 1
    10    5    6 ar
    11    5   21 1
    12    6   22 1
    13    7    8 1
    14    7   23 1
    15    7   24 1
    16    8    9 1
    17    8   10 1
    18    8   14 1
    19    9   25 1
    20   10   11 2
    21   10   12 1
    22   10   13 1
    23   12   27 1
    24   14   15 2
    25   14   16 1
    26   14   17 1
    27   17   26 1
@<TRIPOS>MOLECULE
ZINC19300304
   22    21     0     0     0
SMALL
USER_CHARGES

@<TRIPOS>ATOM
      1 C1         -0.0187    1.5258    0.0104 C.3       1 <0>        -0.1185
      2 C2          0.0021   -0.0041    0.0020 C.3       1 <0>        -0.0408
      3 N1         -1.3761   -0.5125    0.0124 N.4       1 <0>        -0.6310
      4 C3          1.4167    2.0553   -0.0004 C.3       1 <0>        -1.0269
      5 O1          2.1079    1.5820    1.1573 O.3       1 <0>        -0.5144
      6 P1          2.2700    1.4674   -1.5003 P.3       1 <0>         2.1967
      7 O2          2.4042   -0.0926   -1.4472 O.2       1 <0>        -1.1670
      8 O3          1.4432    1.8777   -2.7662 O.3       1 <0>        -1.1485
      9 O4          3.6959    2.1119   -1.5764 O.3       1 <0>        -1.1553
     10 P2          1.3920    3.8782    0.0096 P.3       1 <0>         2.2769
     11 O5          0.6448    4.3900   -1.2421 O.2       1 <0>        -1.0901
     12 O6          0.6688    4.3764    1.2807 O.3       1 <0>        -1.1288
     13 O7          2.9024    4.4354   -0.0018 O.3       1 <0>        -0.8701
     14 H1         -0.5459    1.8868   -0.8726 H         1 <0>         0.0955
     15 H2         -0.5289    1.8773    0.9072 H         1 <0>         0.0522
     16 H3          0.5123   -0.3556   -0.8948 H         1 <0>         0.1852
     17 H4          0.5293   -0.3651    0.8851 H         1 <0>         0.1182
     18 H5         -1.8484   -0.1871    0.8426 H         1 <0>         0.4103
     19 H6         -1.8641   -0.1783   -0.8050 H         1 <0>         0.4276
     20 H7          1.7085    1.8573    1.9938 H         1 <0>         0.3203
     21 H8          2.9657    5.4003    0.0028 H         1 <0>         0.3891
     22 H9         -1.3624   -1.5214    0.0069 H         1 <0>         0.4193
@<TRIPOS>BOND
     1    1    2 1
     2    1    4 1
     3    1   14 1
     4    1   15 1
     5    2    3 1
     6    2   16 1
     7    2   17 1
     8    3   18 1
     9    3   19 1
    10    3   22 1
    11    4    5 1
    12    4    6 1
    13    4   10 1
    14    5   20 1
    15    6    7 2
    16    6    8 1
    17    6    9 1
    18   10   11 2
    19   10   12 1
    20   10   13 1
    21   13   21 1
@<TRIPOS>MOLECULE
ZINC19300304
   23    22     0     0     0
SMALL
USER_CHARGES

@<TRIPOS>ATOM
      1 C1         -0.0187    1.5258    0.0104 C.3       1 <0>        -0.1242
      2 C2          0.0021   -0.0041    0.0020 C.3       1 <0>        -0.0472
      3 N1         -1.3761   -0.5125    0.0124 N.4       1 <0>        -0.6316
      4 C3          1.4167    2.0553   -0.0004 C.3       1 <0>        -1.0318
      5 O1          2.0856    1.5945   -1.1761 O.3       1 <0>        -0.5221
      6 P1          1.3920    3.8782    0.0096 P.3       1 <0>         2.2276
      7 O2          0.7821    4.3776    1.3384 O.2       1 <0>        -1.0565
      8 O3          2.8954    4.4361   -0.1341 O.3       1 <0>        -0.8881
      9 O4          0.5382    4.3881   -1.1728 O.3       1 <0>        -1.0946
     10 P2          2.2984    1.4515    1.4765 P.3       1 <0>         2.2737
     11 O5          1.5753    1.9497    2.7476 O.2       1 <0>        -1.0615
     12 O6          2.3193   -0.0934    1.4680 O.3       1 <0>        -1.0950
     13 O7          3.8089    2.0087    1.4650 O.3       1 <0>        -0.8903
     14 H1         -0.5459    1.8868   -0.8726 H         1 <0>         0.0778
     15 H2         -0.5289    1.8773    0.9072 H         1 <0>         0.1040
     16 H3          0.5123   -0.3556   -0.8948 H         1 <0>         0.1236
     17 H4          0.5293   -0.3651    0.8851 H         1 <0>         0.1884
     18 H5         -1.8484   -0.1871    0.8426 H         1 <0>         0.4312
     19 H6         -1.8641   -0.1783   -0.8050 H         1 <0>         0.4182
     20 H7          1.6703    1.8788   -2.0019 H         1 <0>         0.3525
     21 H8          4.3380    1.7263    2.2236 H         1 <0>         0.4097
     22 H9         -1.3624   -1.5214    0.0069 H         1 <0>         0.4269
     23 H10         2.9583    5.4010   -0.1362 H         1 <0>         0.4092
@<TRIPOS>BOND
     1    1    2 1
     2    1    4 1
     3    1   14 1
     4    1   15 1
     5    2    3 1
     6    2   16 1
     7    2   17 1
     8    3   18 1
     9    3   19 1
    10    3   22 1
    11    4    5 1
    12    4    6 1
    13    4   10 1
    14    5   20 1
    15    6    7 2
    16    6    8 1
    17    6    9 1
    18    8   23 1
    19   10   11 2
    20   10   12 1
    21   10   13 1
    22   13   21 1
@<TRIPOS>MOLECULE
ZINC19702112
   25    24     0     0     0
SMALL
USER_CHARGES

@<TRIPOS>ATOM
      1 C1         -0.0187    1.5258    0.0104 C.3       1 <0>        -0.1759
      2 C2          0.0021   -0.0041    0.0020 C.3       1 <0>        -0.0833
      3 C3         -1.4333   -0.5336    0.0129 C.3       1 <0>        -1.0339
      4 O1         -2.1022   -0.0728    1.1886 O.3       1 <0>        -0.5167
      5 P1         -2.3150    0.0702   -1.4640 P.3       1 <0>         2.2152
      6 O2         -2.4480    1.6296   -1.3916 O.2       1 <0>        -1.1788
      7 O3         -1.5126   -0.3263   -2.7498 O.3       1 <0>        -1.1577
      8 O4         -3.7422   -0.5735   -1.5198 O.3       1 <0>        -1.1666
      9 P2         -1.4086   -2.3565    0.0029 P.3       1 <0>         2.2738
     10 O5         -0.6854   -2.8547   -1.2683 O.2       1 <0>        -1.0933
     11 O6         -0.6613   -2.8683    1.2545 O.3       1 <0>        -1.1320
     12 O7         -2.9190   -2.9137    0.0143 O.3       1 <0>        -0.8704
     13 C4          1.4167    2.0553   -0.0004 C.3       1 <0>        -0.0092
     14 N1          1.3968    3.5242    0.0076 N.4       1 <0>        -0.6314
     15 H1         -0.5459    1.8868   -0.8726 H         1 <0>         0.1464
     16 H2         -0.5289    1.8773    0.9072 H         1 <0>         0.0701
     17 H3          0.5123   -0.3556   -0.8948 H         1 <0>         0.0809
     18 H4          0.5293   -0.3651    0.8851 H         1 <0>         0.0367
     19 H5         -1.6869   -0.3571    2.0143 H         1 <0>         0.3156
     20 H6         -2.9823   -3.8786    0.0097 H         1 <0>         0.3862
     21 H7          1.9439    1.6943    0.8826 H         1 <0>         0.1140
     22 H8          1.9269    1.7038   -0.8972 H         1 <0>         0.1279
     23 H9          0.9088    3.8584   -0.8098 H         1 <0>         0.4384
     24 H10         0.9245    3.8496    0.8378 H         1 <0>         0.4270
     25 H11         2.3434    3.8734    0.0005 H         1 <0>         0.4169
@<TRIPOS>BOND
     1    1    2 1
     2    1   13 1
     3    1   15 1
     4    1   16 1
     5    2    3 1
     6    2   17 1
     7    2   18 1
     8    3    4 1
     9    3    5 1
    10    3    9 1
    11    4   19 1
    12    5    6 2
    13    5    7 1
    14    5    8 1
    15    9   10 2
    16    9   11 1
    17    9   12 1
    18   12   20 1
    19   13   14 1
    20   13   21 1
    21   13   22 1
    22   14   23 1
    23   14   24 1
    24   14   25 1
@<TRIPOS>MOLECULE
ZINC19702112
   26    25     0     0     0
SMALL
USER_CHARGES

@<TRIPOS>ATOM
      1 C1         -0.0187    1.5258    0.0104 C.3       1 <0>        -0.1859
      2 C2          0.0021   -0.0041    0.0020 C.3       1 <0>        -0.0882
      3 C3         -1.4333   -0.5336    0.0129 C.3       1 <0>        -1.0366
      4 O1         -2.1245   -0.0603   -1.1448 O.3       1 <0>        -0.5252
      5 P1         -1.4086   -2.3565    0.0029 P.3       1 <0>         2.2264
      6 O2         -0.7735   -2.8701    1.3143 O.2       1 <0>        -1.0603
      7 O3         -2.9145   -2.9129   -0.1181 O.3       1 <0>        -0.8891
      8 O4         -0.5776   -2.8536   -1.2010 O.3       1 <0>        -1.0981
      9 P2         -2.2866    0.0543    1.5127 P.3       1 <0>         2.2817
     10 O5         -1.5394   -0.4576    2.7644 O.2       1 <0>        -1.0685
     11 O6         -2.3075    1.5991    1.5213 O.3       1 <0>        -1.1022
     12 O7         -3.7970   -0.5030    1.5242 O.3       1 <0>        -0.8936
     13 C4          1.4167    2.0553   -0.0004 C.3       1 <0>        -0.0083
     14 N1          1.3968    3.5242    0.0076 N.4       1 <0>        -0.6326
     15 H1         -0.5459    1.8868   -0.8726 H         1 <0>         0.0758
     16 H2         -0.5289    1.8773    0.9072 H         1 <0>         0.1491
     17 H3          0.5123   -0.3556   -0.8948 H         1 <0>         0.0625
     18 H4          0.5293   -0.3651    0.8851 H         1 <0>         0.0893
     19 H5         -1.7251   -0.3356   -1.9813 H         1 <0>         0.3483
     20 H6         -4.3116   -0.2289    2.2956 H         1 <0>         0.4064
     21 H7          1.9439    1.6943    0.8826 H         1 <0>         0.1313
     22 H8          1.9269    1.7038   -0.8972 H         1 <0>         0.1196
     23 H9          0.9088    3.8584   -0.8098 H         1 <0>         0.4291
     24 H10         0.9245    3.8496    0.8378 H         1 <0>         0.4382
     25 H11         2.3434    3.8734    0.0005 H         1 <0>         0.4241
     26 H12        -2.9776   -3.8778   -0.1293 H         1 <0>         0.4066
@<TRIPOS>BOND
     1    1    2 1
     2    1   13 1
     3    1   15 1
     4    1   16 1
     5    2    3 1
     6    2   17 1
     7    2   18 1
     8    3    4 1
     9    3    5 1
    10    3    9 1
    11    4   19 1
    12    5    6 2
    13    5    7 1
    14    5    8 1
    15    7   26 1
    16    9   10 2
    17    9   11 1
    18    9   12 1
    19   12   20 1
    20   13   14 1
    21   13   21 1
    22   13   22 1
    23   14   23 1
    24   14   24 1
    25   14   25 1
@<TRIPOS>MOLECULE
ZINC20330769
   25    25     0     0     0
SMALL
USER_CHARGES

@<TRIPOS>ATOM
      1 C1         -0.0167    1.3776    0.0096 C.ar      1 <0>        -0.2189
      2 C2          1.1849    2.0698    0.0019 C.ar      1 <0>        -0.0778
      3 C3          2.3651    1.3426   -0.0133 C.ar      1 <0>        -0.0974
      4 C4          2.3054   -0.0383   -0.0202 C.ar      1 <0>         0.2026
      5 N1          1.1443   -0.6632   -0.0129 N.ar      1 <0>        -0.4933
      6 C5          0.0021   -0.0041    0.0020 C.ar      1 <0>         0.0694
      7 C6          3.6964    2.0488   -0.0227 C.3       1 <0>        -0.0587
      8 C7          4.1610    2.2805    1.4165 C.3       1 <0>        -1.0232
      9 O1          3.2001    3.0846    2.1036 O.3       1 <0>        -0.5126
     10 P1          4.3300    0.6765    2.2662 P.3       1 <0>         2.2096
     11 O2          2.9224   -0.0003    2.3889 O.2       1 <0>        -1.1551
     12 O3          5.2860   -0.2523    1.4430 O.3       1 <0>        -1.1595
     13 O4          4.9267    0.9037    3.6968 O.3       1 <0>        -1.1738
     14 P2          5.7714    3.1348    1.4051 P.3       1 <0>         2.2736
     15 O5          6.8103    2.2654    0.6622 O.2       1 <0>        -1.0950
     16 O6          5.6282    4.4942    0.6850 O.3       1 <0>        -1.1341
     17 O7          6.2603    3.3787    2.9196 O.3       1 <0>        -0.8692
     18 H1         -0.9552    1.9117    0.0259 H         1 <0>         0.1028
     19 H2          1.2009    3.1496    0.0072 H         1 <0>         0.1051
     20 H3          3.2203   -0.6121   -0.0320 H         1 <0>         0.1604
     21 H4         -0.9294   -0.5505    0.0083 H         1 <0>         0.1257
     22 H5          4.4293    1.4355   -0.5468 H         1 <0>         0.0836
     23 H6          3.5953    3.0079   -0.5308 H         1 <0>         0.0435
     24 H7          3.0587    3.9546    1.7058 H         1 <0>         0.3114
     25 H8          7.1126    3.8300    2.9899 H         1 <0>         0.3810
@<TRIPOS>BOND
     1    1    6 ar
     2    1    2 ar
     3    1   18 1
     4    2    3 ar
     5    2   19 1
     6    3    4 ar
     7    3    7 1
     8    4    5 ar
     9    4   20 1
    10    5    6 ar
    11    6   21 1
    12    7    8 1
    13    7   22 1
    14    7   23 1
    15    8    9 1
    16    8   10 1
    17    8   14 1
    18    9   24 1
    19   10   11 2
    20   10   12 1
    21   10   13 1
    22   14   15 2
    23   14   16 1
    24   14   17 1
    25   17   25 1
@<TRIPOS>MOLECULE
ZINC20330769
   26    26     0     0     0
SMALL
USER_CHARGES

@<TRIPOS>ATOM
      1 C1         -0.0167    1.3776    0.0096 C.ar      1 <0>        -0.1773
      2 C2          1.1849    2.0698    0.0019 C.ar      1 <0>         0.0283
      3 C3          2.3651    1.3426   -0.0133 C.ar      1 <0>        -0.1221
      4 C4          2.3054   -0.0383   -0.0202 C.ar      1 <0>         0.1000
      5 N1          1.1443   -0.6632   -0.0129 N.ar      1 <0>        -0.5148
      6 C5          0.0021   -0.0041    0.0020 C.ar      1 <0>         0.0733
      7 C6          3.6964    2.0488   -0.0227 C.3       1 <0>        -0.0571
      8 C7          4.1610    2.2805    1.4165 C.3       1 <0>        -1.0245
      9 O1          4.2934    1.0232    2.0825 O.3       1 <0>        -0.5216
     10 P1          5.7714    3.1348    1.4051 P.3       1 <0>         2.2278
     11 O2          5.6018    4.5455    0.7983 O.2       1 <0>        -1.0644
     12 O3          6.3222    3.2618    2.9126 O.3       1 <0>        -0.8884
     13 O4          6.7773    2.3263    0.5557 O.3       1 <0>        -1.1006
     14 P2          2.9351    3.3063    2.2930 P.3       1 <0>         2.2653
     15 O5          2.7919    4.6658    1.5729 O.2       1 <0>        -1.0708
     16 O6          1.5703    2.5824    2.3027 O.3       1 <0>        -1.0817
     17 O7          3.4240    3.5502    3.8075 O.3       1 <0>        -0.8946
     18 H1         -0.9552    1.9117    0.0259 H         1 <0>         0.1177
     19 H2          1.2009    3.1496    0.0072 H         1 <0>         0.1345
     20 H3          3.2203   -0.6121   -0.0320 H         1 <0>         0.1325
     21 H4         -0.9294   -0.5505    0.0083 H         1 <0>         0.1343
     22 H5          4.4293    1.4355   -0.5468 H         1 <0>         0.0682
     23 H6          3.5953    3.0079   -0.5308 H         1 <0>         0.0890
     24 H7          4.9310    0.4247    1.6698 H         1 <0>         0.3450
     25 H8          2.8185    4.0897    4.3342 H         1 <0>         0.4006
     26 H9          7.1776    3.7072    2.9826 H         1 <0>         0.4013
@<TRIPOS>BOND
     1    1    6 ar
     2    1    2 ar
     3    1   18 1
     4    2    3 ar
     5    2   19 1
     6    3    4 ar
     7    3    7 1
     8    4    5 ar
     9    4   20 1
    10    5    6 ar
    11    6   21 1
    12    7    8 1
    13    7   22 1
    14    7   23 1
    15    8    9 1
    16    8   10 1
    17    8   14 1
    18    9   24 1
    19   10   11 2
    20   10   12 1
    21   10   13 1
    22   12   26 1
    23   14   15 2
    24   14   16 1
    25   14   17 1
    26   17   25 1
@<TRIPOS>MOLECULE
ZINC19632644
   24    24     0     0     0
SMALL
USER_CHARGES

@<TRIPOS>ATOM
      1 C1         -0.0161    1.3371    0.0094 C.2       1 <0>        -0.0737
      2 C2          1.2587    1.7711   -0.0004 C.2       1 <0>         0.1498
      3 N1          2.0558    0.6583   -0.0140 N.pl3     1 <0>        -0.3745
      4 C3          1.2397   -0.4176   -0.0120 C.cat     1 <0>         0.2406
      5 N2          0.0021   -0.0041    0.0020 N.pl3     1 <0>        -0.4786
      6 C4          3.5206    0.6384   -0.0281 C.3       1 <0>         0.0924
      7 C5          4.0443    0.6237    1.4094 C.3       1 <0>        -1.0263
      8 O1          3.5585   -0.5400    2.0814 O.3       1 <0>        -0.4899
      9 P1          3.4652    2.1157    2.2823 P.3       1 <0>         2.1813
     10 O2          3.9977    3.3916    1.5455 O.2       1 <0>        -1.1524
     11 O3          1.8988    2.1370    2.2974 O.3       1 <0>        -1.1434
     12 O4          4.0015    2.1007    3.7543 O.3       1 <0>        -1.1336
     13 P2          5.8670    0.5990    1.3918 P.3       1 <0>         2.2548
     14 O5          6.3958    0.5842    2.8434 O.2       1 <0>        -1.0648
     15 O6          6.3578   -0.6655    0.6520 O.3       1 <0>        -1.1160
     16 O7          6.4143    1.9101    0.6346 O.3       1 <0>        -0.8803
     17 H1         -0.8984    1.9597    0.0252 H         1 <0>         0.2014
     18 H2          1.5887    2.7994    0.0016 H         1 <0>         0.2106
     19 H3          1.5585   -1.4495   -0.0206 H         1 <0>         0.2318
     20 H4          3.8668   -0.2536   -0.5501 H         1 <0>         0.0931
     21 H5          3.8911    1.5261   -0.5408 H         1 <0>         0.1169
     22 H6          3.8286   -1.3728    1.6708 H         1 <0>         0.3234
     23 H7          7.3787    1.9634    0.5875 H         1 <0>         0.3974
     24 H8         -0.7811   -0.5763    0.0069 H         1 <0>         0.4400
@<TRIPOS>BOND
     1    1    5 1
     2    1    2 2
     3    1   17 1
     4    2    3 1
     5    2   18 1
     6    3    4 1
     7    3    6 1
     8    4    5 2
     9    4   19 1
    10    5   24 1
    11    6    7 1
    12    6   20 1
    13    6   21 1
    14    7    8 1
    15    7    9 1
    16    7   13 1
    17    8   22 1
    18    9   10 2
    19    9   11 1
    20    9   12 1
    21   13   14 2
    22   13   15 1
    23   13   16 1
    24   16   23 1
@<TRIPOS>MOLECULE
ZINC19632644
   25    25     0     0     0
SMALL
USER_CHARGES

@<TRIPOS>ATOM
      1 C1         -0.0161    1.3371    0.0094 C.2       1 <0>        -0.0465
      2 C2          1.2587    1.7711   -0.0004 C.2       1 <0>         0.1297
      3 N1          2.0558    0.6583   -0.0140 N.pl3     1 <0>        -0.3879
      4 C3          1.2397   -0.4176   -0.0120 C.cat     1 <0>         0.2566
      5 N2          0.0021   -0.0041    0.0020 N.pl3     1 <0>        -0.4766
      6 C4          3.5206    0.6384   -0.0281 C.3       1 <0>         0.1109
      7 C5          4.0443    0.6237    1.4094 C.3       1 <0>        -1.0469
      8 O1          3.5585   -0.5400    2.0814 O.3       1 <0>        -0.5165
      9 P1          5.8670    0.5990    1.3918 P.3       1 <0>         2.2229
     10 O2          6.3941    1.9153    0.7783 O.2       1 <0>        -1.0481
     11 O3          6.4162    0.4512    2.8980 O.3       1 <0>        -0.8862
     12 O4          6.3577   -0.5966    0.5452 O.3       1 <0>        -1.0860
     13 P2          3.4652    2.1157    2.2823 P.3       1 <0>         2.2619
     14 O5          3.9904    3.3740    1.5557 O.2       1 <0>        -1.0559
     15 O6          1.9204    2.1367    2.2972 O.3       1 <0>        -1.0853
     16 O7          4.0163    2.1002    3.7950 O.3       1 <0>        -0.8893
     17 H1         -0.8984    1.9597    0.0252 H         1 <0>         0.2095
     18 H2          1.5887    2.7994    0.0016 H         1 <0>         0.2166
     19 H3          1.5585   -1.4495   -0.0206 H         1 <0>         0.2384
     20 H4          3.8668   -0.2536   -0.5501 H         1 <0>         0.1166
     21 H5          3.8911    1.5261   -0.5408 H         1 <0>         0.1390
     22 H6          3.8286   -1.3728    1.6708 H         1 <0>         0.3535
     23 H7          3.7464    2.8663    4.3198 H         1 <0>         0.4102
     24 H8         -0.7811   -0.5763    0.0069 H         1 <0>         0.4478
     25 H9          7.3807    0.4311    2.9648 H         1 <0>         0.4117
@<TRIPOS>BOND
     1    1    5 1
     2    1    2 2
     3    1   17 1
     4    2    3 1
     5    2   18 1
     6    3    4 1
     7    3    6 1
     8    4    5 2
     9    4   19 1
    10    5   24 1
    11    6    7 1
    12    6   20 1
    13    6   21 1
    14    7    8 1
    15    7    9 1
    16    7   13 1
    17    8   22 1
    18    9   10 2
    19    9   11 1
    20    9   12 1
    21   11   25 1
    22   13   14 2
    23   13   15 1
    24   13   16 1
    25   16   23 1
@<TRIPOS>MOLECULE
ZINC19632644
   24    24     0     0     0
SMALL
USER_CHARGES

@<TRIPOS>ATOM
      1 C1         -0.0161    1.3371    0.0094 C.2       1 <0>        -0.0484
      2 C2          1.2587    1.7711   -0.0004 C.2       1 <0>        -0.0574
      3 N1          2.0558    0.6583   -0.0140 N.pl3     1 <0>        -0.4442
      4 C3          1.2397   -0.4176   -0.0120 C.2       1 <0>         0.2267
      5 N2          0.0021   -0.0041    0.0020 N.2       1 <0>        -0.5107
      6 C4          3.5206    0.6384   -0.0281 C.3       1 <0>         0.1074
      7 C5          4.0443    0.6237    1.4094 C.3       1 <0>        -1.0361
      8 O1          3.5904    1.7933    2.0937 O.3       1 <0>        -0.5145
      9 P1          3.4246   -0.8609    2.2667 P.3       1 <0>         2.2520
     10 O2          3.9534   -0.8757    3.7183 O.2       1 <0>        -1.0836
     11 O3          1.8148   -0.8390    2.2822 O.3       1 <0>        -0.8855
     12 O4          3.9153   -2.1254    1.5269 O.3       1 <0>        -1.0671
     13 P2          5.8670    0.5990    1.3918 P.3       1 <0>         2.2593
     14 O5          6.3578   -0.6655    0.6520 O.2       1 <0>        -1.0711
     15 O6          6.3922    1.8572    0.6652 O.3       1 <0>        -1.1070
     16 O7          6.4181    0.5835    2.9045 O.3       1 <0>        -0.8745
     17 H1         -0.8984    1.9597    0.0252 H         1 <0>         0.1551
     18 H2          1.5887    2.7994    0.0016 H         1 <0>         0.1547
     19 H3          1.5585   -1.4495   -0.0206 H         1 <0>         0.1983
     20 H4          3.8668   -0.2536   -0.5501 H         1 <0>         0.1142
     21 H5          3.8911    1.5261   -0.5408 H         1 <0>         0.0887
     22 H6          3.8831    2.6226    1.6918 H         1 <0>         0.3465
     23 H7          7.3827    0.5700    2.9716 H         1 <0>         0.3986
     24 H8          1.4153   -1.6010    2.7237 H         1 <0>         0.3987
@<TRIPOS>BOND
     1    1    5 1
     2    1    2 2
     3    1   17 1
     4    2    3 1
     5    2   18 1
     6    3    4 1
     7    3    6 1
     8    4    5 2
     9    4   19 1
    10    6    7 1
    11    6   20 1
    12    6   21 1
    13    7    8 1
    14    7    9 1
    15    7   13 1
    16    8   22 1
    17    9   10 2
    18    9   11 1
    19    9   12 1
    20   11   24 1
    21   13   14 2
    22   13   15 1
    23   13   16 1
    24   16   23 1
@<TRIPOS>MOLECULE
ZINC19632644
   23    23     0     0     0
SMALL
USER_CHARGES

@<TRIPOS>ATOM
      1 C1         -0.0162    1.3425    0.0094 C.2       1 <0>        -0.0922
      2 N1          1.2535    1.7747   -0.0004 N.2       1 <0>        -0.5179
      3 C2          2.0579    0.7472   -0.0136 C.2       1 <0>         0.1430
      4 N2          1.3175   -0.3822   -0.0126 N.pl3     1 <0>        -0.4240
      5 C3          0.0021   -0.0041    0.0020 C.2       1 <0>         0.0722
      6 C4          1.8271   -1.7557   -0.0258 C.3       1 <0>         0.1252
      7 C5          2.0187   -2.2424    1.4121 C.3       1 <0>        -1.0399
      8 P1          0.4203   -2.1957    2.2874 P.3       1 <0>         2.1998
      9 O1         -0.0629   -0.7107    2.4135 O.2       1 <0>        -1.1549
     10 O2         -0.6397   -3.0233    1.4838 O.3       1 <0>        -1.1598
     11 O3          0.5898   -2.8128    3.7174 O.3       1 <0>        -1.1709
     12 P2          2.6528   -3.9515    1.3957 P.3       1 <0>         2.2770
     13 O4          1.6421   -4.8688    0.6718 O.2       1 <0>        -1.0930
     14 O5          4.0074   -3.9911    0.6538 O.3       1 <0>        -1.1310
     15 O6          2.8544   -4.4636    2.9087 O.3       1 <0>        -0.8677
     16 O7          2.9535   -1.3939    2.0816 O.3       1 <0>        -0.5064
     17 H1         -0.8985    1.9651    0.0252 H         1 <0>         0.1455
     18 H2          3.1369    0.7926   -0.0240 H         1 <0>         0.1721
     19 H3         -0.8562   -0.6596    0.0072 H         1 <0>         0.1647
     20 H4          1.1141   -2.4029   -0.5365 H         1 <0>         0.0985
     21 H5          2.7828   -1.7836   -0.5492 H         1 <0>         0.0634
     22 H6          3.1904   -5.3678    2.9763 H         1 <0>         0.3832
     23 H7          3.8280   -1.3698    1.6696 H         1 <0>         0.3132
@<TRIPOS>BOND
     1    1    5 2
     2    1    2 1
     3    1   17 1
     4    2    3 2
     5    3    4 1
     6    3   18 1
     7    4    5 1
     8    4    6 1
     9    5   19 1
    10    6    7 1
    11    6   20 1
    12    6   21 1
    13    7    8 1
    14    7   12 1
    15    7   16 1
    16    8    9 2
    17    8   10 1
    18    8   11 1
    19   12   13 2
    20   12   14 1
    21   12   15 1
    22   15   22 1
    23   16   23 1
@<TRIPOS>MOLECULE
ZINC19632644
   23    23     0     0     0
SMALL
USER_CHARGES

@<TRIPOS>ATOM
      1 C1         -0.0161    1.3371    0.0094 C.2       1 <0>        -0.1021
      2 C2          1.2587    1.7711   -0.0004 C.2       1 <0>         0.0893
      3 N1          2.0558    0.6583   -0.0140 N.pl3     1 <0>        -0.4281
      4 C3          1.2397   -0.4176   -0.0120 C.2       1 <0>         0.1395
      5 N2          0.0021   -0.0041    0.0020 N.2       1 <0>        -0.5154
      6 C4          3.5206    0.6384   -0.0281 C.3       1 <0>         0.1107
      7 C5          4.0443    0.6237    1.4094 C.3       1 <0>        -1.0308
      8 O1          3.5585   -0.5400    2.0814 O.3       1 <0>        -0.4874
      9 P1          3.4652    2.1157    2.2823 P.3       1 <0>         2.1990
     10 O2          3.9977    3.3916    1.5455 O.2       1 <0>        -1.1715
     11 O3          1.8988    2.1370    2.2974 O.3       1 <0>        -1.1492
     12 O4          4.0015    2.1007    3.7543 O.3       1 <0>        -1.1559
     13 P2          5.8670    0.5990    1.3918 P.3       1 <0>         2.2619
     14 O5          6.3958    0.5842    2.8434 O.2       1 <0>        -1.0796
     15 O6          6.3578   -0.6655    0.6520 O.3       1 <0>        -1.1282
     16 O7          6.4143    1.9101    0.6346 O.3       1 <0>        -0.8780
     17 H1         -0.8984    1.9597    0.0252 H         1 <0>         0.1439
     18 H2          1.5887    2.7994    0.0016 H         1 <0>         0.1608
     19 H3          1.5585   -1.4495   -0.0206 H         1 <0>         0.1717
     20 H4          3.8668   -0.2536   -0.5501 H         1 <0>         0.0632
     21 H5          3.8911    1.5261   -0.5408 H         1 <0>         0.0840
     22 H6          3.8286   -1.3728    1.6708 H         1 <0>         0.3142
     23 H7          7.3787    1.9634    0.5875 H         1 <0>         0.3879
@<TRIPOS>BOND
     1    1    5 1
     2    1    2 2
     3    1   17 1
     4    2    3 1
     5    2   18 1
     6    3    4 1
     7    3    6 1
     8    4    5 2
     9    4   19 1
    10    6    7 1
    11    6   20 1
    12    6   21 1
    13    7    8 1
    14    7    9 1
    15    7   13 1
    16    8   22 1
    17    9   10 2
    18    9   11 1
    19    9   12 1
    20   13   14 2
    21   13   15 1
    22   13   16 1
    23   16   23 1
@<TRIPOS>MOLECULE
ZINC26735782
   24    24     0     0     0
SMALL
USER_CHARGES

@<TRIPOS>ATOM
      1 C1         -0.0167    1.3776    0.0096 C.ar      1 <0>        -0.2277
      2 C2          1.1849    2.0698    0.0019 C.ar      1 <0>        -0.0934
      3 C3          2.3651    1.3426   -0.0133 C.ar      1 <0>        -0.1147
      4 C4          2.3054   -0.0383   -0.0202 C.ar      1 <0>         0.2219
      5 N1          1.1443   -0.6632   -0.0129 N.ar      1 <0>        -0.5002
      6 C5          0.0021   -0.0041    0.0020 C.ar      1 <0>         0.0700
      7 C6          3.6964    2.0488   -0.0227 C.3       1 <0>        -0.0106
      8 C7          4.1610    2.2805    1.4165 C.3       1 <0>        -1.2761
      9 P1          4.4727    0.6744    2.2204 P.3       1 <0>         2.2144
     10 O1          3.1538   -0.1710    2.2271 O.2       1 <0>        -1.1605
     11 O2          5.5840   -0.0978    1.4309 O.3       1 <0>        -1.1614
     12 O3          4.9484    0.9116    3.6942 O.3       1 <0>        -1.1842
     13 P2          5.6958    3.2642    1.4087 P.3       1 <0>         2.2994
     14 O4          6.7916    2.5027    0.6301 O.2       1 <0>        -1.1005
     15 O5          5.4315    4.6255    0.7273 O.3       1 <0>        -1.1450
     16 O6          6.1846    3.5081    2.9232 O.3       1 <0>        -0.8819
     17 H1         -0.9552    1.9117    0.0259 H         1 <0>         0.1032
     18 H2          1.2009    3.1496    0.0072 H         1 <0>         0.1070
     19 H3          3.2203   -0.6121   -0.0320 H         1 <0>         0.1617
     20 H4         -0.9294   -0.5505    0.0083 H         1 <0>         0.1261
     21 H5          4.4293    1.4355   -0.5468 H         1 <0>         0.0751
     22 H6          3.5953    3.0079   -0.5308 H         1 <0>         0.0386
     23 H7          3.3879    2.8178    1.9658 H         1 <0>         0.0564
     24 H8          6.9981    4.0260    2.9953 H         1 <0>         0.3823
@<TRIPOS>BOND
     1    1    6 ar
     2    1    2 ar
     3    1   17 1
     4    2    3 ar
     5    2   18 1
     6    3    4 ar
     7    3    7 1
     8    4    5 ar
     9    4   19 1
    10    5    6 ar
    11    6   20 1
    12    7    8 1
    13    7   21 1
    14    7   22 1
    15    8    9 1
    16    8   13 1
    17    8   23 1
    18    9   10 2
    19    9   11 1
    20    9   12 1
    21   13   14 2
    22   13   15 1
    23   13   16 1
    24   16   24 1
@<TRIPOS>MOLECULE
ZINC26735782
   25    25     0     0     0
SMALL
USER_CHARGES

@<TRIPOS>ATOM
      1 C1         -0.0167    1.3776    0.0096 C.ar      1 <0>        -0.1767
      2 C2          1.1849    2.0698    0.0019 C.ar      1 <0>         0.0228
      3 C3          2.3651    1.3426   -0.0133 C.ar      1 <0>        -0.1317
      4 C4          2.3054   -0.0383   -0.0202 C.ar      1 <0>         0.0902
      5 N1          1.1443   -0.6632   -0.0129 N.ar      1 <0>        -0.5093
      6 C5          0.0021   -0.0041    0.0020 C.ar      1 <0>         0.0737
      7 C6          3.6964    2.0488   -0.0227 C.3       1 <0>        -0.0228
      8 C7          4.1610    2.2805    1.4165 C.3       1 <0>        -1.2816
      9 P1          5.8361    2.9996    1.4060 P.3       1 <0>         2.2747
     10 O1          5.8138    4.3462    0.6489 O.2       1 <0>        -1.0952
     11 O2          6.3250    3.2434    2.9205 O.3       1 <0>        -0.8846
     12 O3          6.8090    2.0284    0.7008 O.3       1 <0>        -1.1156
     13 P2          3.0130    3.4265    2.2486 P.3       1 <0>         2.2712
     14 O4          1.5933    2.8171    2.2575 O.2       1 <0>        -1.0932
     15 O5          3.4822    3.6605    3.7019 O.3       1 <0>        -1.1010
     16 O6          2.9898    4.8298    1.4596 O.3       1 <0>        -0.8827
     17 H1         -0.9552    1.9117    0.0259 H         1 <0>         0.1208
     18 H2          1.2009    3.1496    0.0072 H         1 <0>         0.1260
     19 H3          3.2203   -0.6121   -0.0320 H         1 <0>         0.1396
     20 H4         -0.9294   -0.5505    0.0083 H         1 <0>         0.1384
     21 H5          4.4293    1.4355   -0.5468 H         1 <0>         0.0668
     22 H6          3.5953    3.0079   -0.5308 H         1 <0>         0.0728
     23 H7          4.1767    1.3305    1.9506 H         1 <0>         0.1022
     24 H8          2.3986    5.4893    1.8476 H         1 <0>         0.3973
     25 H9          7.2106    3.6252    2.9912 H         1 <0>         0.3980
@<TRIPOS>BOND
     1    1    6 ar
     2    1    2 ar
     3    1   17 1
     4    2    3 ar
     5    2   18 1
     6    3    4 ar
     7    3    7 1
     8    4    5 ar
     9    4   19 1
    10    5    6 ar
    11    6   20 1
    12    7    8 1
    13    7   21 1
    14    7   22 1
    15    8    9 1
    16    8   13 1
    17    8   23 1
    18    9   10 2
    19    9   11 1
    20    9   12 1
    21   11   25 1
    22   13   14 2
    23   13   15 1
    24   13   16 1
    25   16   24 1
@<TRIPOS>MOLECULE
ZINC26740955
   24    24     0     0     0
SMALL
USER_CHARGES

@<TRIPOS>ATOM
      1 C1          0.2853    1.4656    0.2392 C.ar      1 <0>        -0.0784
      2 C2          1.5455    2.0431    0.2045 C.ar      1 <0>        -0.2125
      3 C3          2.6568    1.2287    0.0987 C.ar      1 <0>         0.0915
      4 N1          2.5285   -0.0821    0.0308 N.ar      1 <0>        -0.4749
      5 C4          1.3464   -0.6656    0.0609 C.ar      1 <0>         0.1928
      6 C5          0.1902    0.0845    0.1659 C.ar      1 <0>        -0.1481
      7 C6          1.2550   -2.1676   -0.0205 C.3       1 <0>        -0.0098
      8 C7          1.9701   -2.6545   -1.2824 C.3       1 <0>        -1.2680
      9 P1          2.0094   -4.4770   -1.2938 P.3       1 <0>         2.2203
     10 O1          2.6580   -4.9937    0.0354 O.2       1 <0>        -1.2019
     11 O2          0.5483   -5.0301   -1.4114 O.3       1 <0>        -1.1644
     12 O3          2.8556   -4.9735   -2.5152 O.3       1 <0>        -1.1885
     13 P2          1.0779   -2.0567   -2.7554 P.3       1 <0>         2.2898
     14 O4         -0.3672   -2.6030   -2.7392 O.2       1 <0>        -1.1013
     15 O5          1.0446   -0.5120   -2.7458 O.3       1 <0>        -1.1324
     16 O6          1.8304   -2.5689   -4.0833 O.3       1 <0>        -0.8853
     17 H1         -0.6008    2.0769    0.3258 H         1 <0>         0.1147
     18 H2          1.6570    3.1160    0.2591 H         1 <0>         0.1098
     19 H3          3.6418    1.6707    0.0711 H         1 <0>         0.1311
     20 H4         -0.7751   -0.3993    0.1905 H         1 <0>         0.1265
     21 H5          1.7270   -2.6085    0.8576 H         1 <0>         0.0628
     22 H6          0.2074   -2.4663   -0.0584 H         1 <0>         0.0768
     23 H7          2.9896   -2.2690   -1.2939 H         1 <0>         0.0694
     24 H8          1.4097   -2.2875   -4.9072 H         1 <0>         0.3802
@<TRIPOS>BOND
     1    1    6 ar
     2    1    2 ar
     3    1   17 1
     4    2    3 ar
     5    2   18 1
     6    3    4 ar
     7    3   19 1
     8    4    5 ar
     9    5    6 ar
    10    5    7 1
    11    6   20 1
    12    7    8 1
    13    7   21 1
    14    7   22 1
    15    8    9 1
    16    8   13 1
    17    8   23 1
    18    9   10 2
    19    9   11 1
    20    9   12 1
    21   13   14 2
    22   13   15 1
    23   13   16 1
    24   16   24 1
@<TRIPOS>MOLECULE
ZINC26740955
   25    25     0     0     0
SMALL
USER_CHARGES

@<TRIPOS>ATOM
      1 C1         -0.0167    1.3821    0.0096 C.ar      1 <0>        -0.0728
      2 C2          1.1937    2.0586    0.0017 C.ar      1 <0>        -0.1958
      3 C3          2.3701    1.3338   -0.0134 C.ar      1 <0>         0.1012
      4 N1          2.3500    0.0151   -0.0207 N.ar      1 <0>        -0.4707
      5 C4          1.2181   -0.6611   -0.0136 C.ar      1 <0>         0.1739
      6 C5          0.0021   -0.0041    0.0020 C.ar      1 <0>        -0.1559
      7 C6          1.2505   -2.1677   -0.0230 C.3       1 <0>        -0.0193
      8 C7          2.0769   -2.6526   -1.2158 C.3       1 <0>        -1.2766
      9 P1          2.2408   -4.4668   -1.1443 P.3       1 <0>         2.2748
     10 O1          0.8382   -5.1129   -1.1928 O.2       1 <0>        -1.0971
     11 O2          3.1104   -4.9770   -2.3995 O.3       1 <0>        -0.8841
     12 O3          2.9477   -4.8686    0.1694 O.3       1 <0>        -1.1168
     13 P2          1.2427   -2.1785   -2.7659 P.3       1 <0>         2.2701
     14 O4          1.1039   -0.6409   -2.8265 O.2       1 <0>        -1.1024
     15 O5          2.0773   -2.6681   -3.9704 O.3       1 <0>        -1.1045
     16 O6         -0.2188   -2.8518   -2.8164 O.3       1 <0>        -0.8835
     17 H1         -0.9518    1.9222    0.0259 H         1 <0>         0.1209
     18 H2          1.2167    3.1384    0.0069 H         1 <0>         0.1186
     19 H3          3.3170    1.8532   -0.0197 H         1 <0>         0.1394
     20 H4         -0.9217   -0.5635    0.0082 H         1 <0>         0.1246
     21 H5          1.7018   -2.5272    0.9018 H         1 <0>         0.0741
     22 H6          0.2340   -2.5525   -0.1048 H         1 <0>         0.0768
     23 H7          3.0664   -2.1968   -1.1816 H         1 <0>         0.1129
     24 H8         -0.7211   -2.6419   -3.6157 H         1 <0>         0.3954
     25 H9          3.2384   -5.9352   -2.4258 H         1 <0>         0.3969
@<TRIPOS>BOND
     1    1    6 ar
     2    1    2 ar
     3    1   17 1
     4    2    3 ar
     5    2   18 1
     6    3    4 ar
     7    3   19 1
     8    4    5 ar
     9    5    6 ar
    10    5    7 1
    11    6   20 1
    12    7    8 1
    13    7   21 1
    14    7   22 1
    15    8    9 1
    16    8   13 1
    17    8   23 1
    18    9   10 2
    19    9   11 1
    20    9   12 1
    21   11   25 1
    22   13   14 2
    23   13   15 1
    24   13   16 1
    25   16   24 1
@<TRIPOS>MOLECULE
ZINC20444137
   40    39     0     0     0
SMALL
USER_CHARGES

@<TRIPOS>ATOM
      1 C1         -0.0187    1.5258    0.0104 C.3       1 <0>        -0.1542
      2 C2          0.0021   -0.0041    0.0020 C.3       1 <0>        -0.1235
      3 C3         -1.4333   -0.5336    0.0129 C.3       1 <0>        -0.1186
      4 C4         -1.4126   -2.0635    0.0045 C.3       1 <0>        -0.1459
      5 C5         -2.8479   -2.5931    0.0153 C.3       1 <0>        -0.0063
      6 N1         -2.8280   -4.0619    0.0072 N.4       1 <0>        -0.3824
      7 C6         -2.2481   -4.5368   -1.2561 C.3       1 <0>        -0.0532
      8 C7         -4.1998   -4.5710    0.1383 C.3       1 <0>        -0.0456
      9 C8         -4.1687   -6.0962    0.2553 C.3       1 <0>        -0.1294
     10 C9         -5.5974   -6.6263    0.3918 C.3       1 <0>        -1.0156
     11 O1         -6.3564   -6.2522   -0.7597 O.3       1 <0>        -0.4956
     12 P1         -6.3684   -5.9180    1.8842 P.3       1 <0>         2.1988
     13 O2         -5.5363   -6.3282    3.1466 O.2       1 <0>        -1.1600
     14 O3         -6.4002   -4.3563    1.7644 O.3       1 <0>        -1.1608
     15 O4         -7.8314   -6.4609    2.0240 O.3       1 <0>        -1.1414
     16 P2         -5.5605   -8.4436    0.5311 P.3       1 <0>         2.2589
     17 O5         -7.0032   -8.9790    0.6690 O.2       1 <0>        -1.0743
     18 O6         -4.9071   -9.0439   -0.7337 O.3       1 <0>        -1.1245
     19 O7         -4.7054   -8.8651    1.8285 O.3       1 <0>        -0.8807
     20 H1          1.0039    1.9031    0.0027 H         1 <0>         0.0533
     21 H2         -0.5459    1.8868   -0.8726 H         1 <0>         0.0542
     22 H3         -0.5289    1.8773    0.9072 H         1 <0>         0.0569
     23 H4          0.5123   -0.3556   -0.8948 H         1 <0>         0.0606
     24 H5          0.5293   -0.3651    0.8851 H         1 <0>         0.0640
     25 H6         -1.9435   -0.1821    0.9097 H         1 <0>         0.0757
     26 H7         -1.9605   -0.1726   -0.8702 H         1 <0>         0.0699
     27 H8         -0.9024   -2.4150   -0.8923 H         1 <0>         0.0783
     28 H9         -0.8854   -2.4246    0.8875 H         1 <0>         0.0825
     29 H10        -3.3581   -2.2415    0.9121 H         1 <0>         0.1343
     30 H11        -3.3751   -2.2320   -0.8677 H         1 <0>         0.1188
     31 H12        -1.2303   -4.1591   -1.3534 H         1 <0>         0.1059
     32 H13        -2.2333   -5.6267   -1.2621 H         1 <0>         0.1207
     33 H14        -2.8505   -4.1770   -2.0903 H         1 <0>         0.1108
     34 H15        -4.6607   -4.1474    1.0306 H         1 <0>         0.1949
     35 H16        -4.7787   -4.2856   -0.7400 H         1 <0>         0.1135
     36 H17        -3.7078   -6.5197   -0.6371 H         1 <0>         0.0519
     37 H18        -3.5898   -6.3815    1.1336 H         1 <0>         0.0791
     38 H19        -6.0032   -6.5951   -1.5921 H         1 <0>         0.3203
     39 H20        -4.6434   -9.8204    1.9653 H         1 <0>         0.3930
     40 H21        -2.2705   -4.3950    0.7794 H         1 <0>         0.4159
@<TRIPOS>BOND
     1    1    2 1
     2    1   20 1
     3    1   21 1
     4    1   22 1
     5    2    3 1
     6    2   23 1
     7    2   24 1
     8    3    4 1
     9    3   25 1
    10    3   26 1
    11    4    5 1
    12    4   27 1
    13    4   28 1
    14    5    6 1
    15    5   29 1
    16    5   30 1
    17    6    7 1
    18    6    8 1
    19    6   40 1
    20    7   31 1
    21    7   32 1
    22    7   33 1
    23    8    9 1
    24    8   34 1
    25    8   35 1
    26    9   10 1
    27    9   36 1
    28    9   37 1
    29   10   11 1
    30   10   12 1
    31   10   16 1
    32   11   38 1
    33   12   13 2
    34   12   14 1
    35   12   15 1
    36   16   17 2
    37   16   18 1
    38   16   19 1
    39   19   39 1
@<TRIPOS>MOLECULE
ZINC20444137
   41    40     0     0     0
SMALL
USER_CHARGES

@<TRIPOS>ATOM
      1 C1         -0.0187    1.5258    0.0104 C.3       1 <0>        -0.1556
      2 C2          0.0021   -0.0041    0.0020 C.3       1 <0>        -0.1248
      3 C3         -1.4333   -0.5336    0.0129 C.3       1 <0>        -0.1178
      4 C4         -1.4126   -2.0635    0.0045 C.3       1 <0>        -0.1480
      5 C5         -2.8479   -2.5931    0.0153 C.3       1 <0>        -0.0097
      6 N1         -2.8280   -4.0619    0.0072 N.4       1 <0>        -0.3824
      7 C6         -2.2481   -4.5368   -1.2561 C.3       1 <0>        -0.0592
      8 C7         -4.1998   -4.5710    0.1383 C.3       1 <0>        -0.0325
      9 C8         -4.1687   -6.0962    0.2553 C.3       1 <0>        -0.1392
     10 C9         -5.5974   -6.6263    0.3918 C.3       1 <0>        -1.0178
     11 O1         -6.2018   -6.0711    1.5616 O.3       1 <0>        -0.5221
     12 P1         -6.5657   -6.1491   -1.0772 P.3       1 <0>         2.2313
     13 O2         -8.0084   -6.6844   -0.9394 O.2       1 <0>        -1.0667
     14 O3         -6.5983   -4.5441   -1.2003 O.3       1 <0>        -0.9047
     15 O4         -5.9123   -6.7494   -2.3420 O.3       1 <0>        -1.0527
     16 P2         -5.5605   -8.4436    0.5311 P.3       1 <0>         2.2558
     17 O5         -4.9071   -9.0439   -0.7337 O.2       1 <0>        -1.0684
     18 O6         -4.7399   -8.8481    1.7761 O.3       1 <0>        -1.1038
     19 O7         -7.0639   -9.0015    0.6748 O.3       1 <0>        -0.8765
     20 H1          1.0039    1.9031    0.0027 H         1 <0>         0.0571
     21 H2         -0.5459    1.8868   -0.8726 H         1 <0>         0.0562
     22 H3         -0.5289    1.8773    0.9072 H         1 <0>         0.0553
     23 H4          0.5123   -0.3556   -0.8948 H         1 <0>         0.0649
     24 H5          0.5293   -0.3651    0.8851 H         1 <0>         0.0638
     25 H6         -1.9435   -0.1821    0.9097 H         1 <0>         0.0713
     26 H7         -1.9605   -0.1726   -0.8702 H         1 <0>         0.0733
     27 H8         -0.9024   -2.4150   -0.8923 H         1 <0>         0.0874
     28 H9         -0.8854   -2.4246    0.8875 H         1 <0>         0.0829
     29 H10        -3.3581   -2.2415    0.9121 H         1 <0>         0.1238
     30 H11        -3.3751   -2.2320   -0.8677 H         1 <0>         0.1289
     31 H12        -2.8505   -4.1770   -2.0903 H         1 <0>         0.1253
     32 H13        -1.2303   -4.1591   -1.3534 H         1 <0>         0.1184
     33 H14        -2.2333   -5.6267   -1.2621 H         1 <0>         0.1327
     34 H15        -4.6607   -4.1474    1.0306 H         1 <0>         0.1261
     35 H16        -4.7787   -4.2856   -0.7400 H         1 <0>         0.1544
     36 H17        -3.7078   -6.5197   -0.6371 H         1 <0>         0.1089
     37 H18        -3.5898   -6.3815    1.1336 H         1 <0>         0.0814
     38 H19        -5.7384   -6.2850    2.3830 H         1 <0>         0.3532
     39 H20        -7.1205   -9.9637    0.7536 H         1 <0>         0.4036
     40 H21        -2.2705   -4.3950    0.7794 H         1 <0>         0.4166
     41 H22        -7.0976   -4.2181   -1.9615 H         1 <0>         0.4093
@<TRIPOS>BOND
     1    1    2 1
     2    1   20 1
     3    1   21 1
     4    1   22 1
     5    2    3 1
     6    2   23 1
     7    2   24 1
     8    3    4 1
     9    3   25 1
    10    3   26 1
    11    4    5 1
    12    4   27 1
    13    4   28 1
    14    5    6 1
    15    5   29 1
    16    5   30 1
    17    6    7 1
    18    6    8 1
    19    6   40 1
    20    7   31 1
    21    7   32 1
    22    7   33 1
    23    8    9 1
    24    8   34 1
    25    8   35 1
    26    9   10 1
    27    9   36 1
    28    9   37 1
    29   10   11 1
    30   10   12 1
    31   10   16 1
    32   11   38 1
    33   12   13 2
    34   12   14 1
    35   12   15 1
    36   14   41 1
    37   16   17 2
    38   16   18 1
    39   16   19 1
    40   19   39 1
