@<TRIPOS>MOLECULE
ZINC17198574
   54    54     0     0     0
SMALL
USER_CHARGES

@<TRIPOS>ATOM
      1 C1          1.0552    1.2578   -0.2536 C.2       1 <0>        -0.1978
      2 C2          0.7593   -0.0051   -0.0704 C.2       1 <0>        -0.1456
      3 C3          1.8400   -1.0520   -0.1548 C.3       1 <0>        -0.0777
      4 C4          1.8534   -1.8636    1.1150 C.2       1 <0>        -0.1602
      5 C5          1.7964   -3.1711    1.0573 C.2       1 <0>        -0.1447
      6 C6          1.8867   -3.8712   -0.2741 C.3       1 <0>        -0.0842
      7 C7          2.9815   -4.9057   -0.2244 C.2       1 <0>        -0.1614
      8 C8          2.7306   -6.1423   -0.5766 C.2       1 <0>        -0.1496
      9 C9          1.3999   -6.4961   -1.1890 C.3       1 <0>        -0.1035
     10 C10         1.6263   -7.2206   -2.5175 C.3       1 <0>        -0.1135
     11 C11         0.2753   -7.5798   -3.1392 C.3       1 <0>        -0.1192
     12 C12         0.5017   -8.3043   -4.4677 C.3       1 <0>        -0.1186
     13 C13        -0.8494   -8.6635   -5.0894 C.3       1 <0>        -0.1148
     14 C14        -0.6229   -9.3879   -6.4179 C.3       1 <0>        -0.1171
     15 C15        -1.9740   -9.7472   -7.0396 C.3       1 <0>        -0.0754
     16 C16        -1.7510  -10.4607   -8.3481 C.ar      1 <0>        -0.0566
     17 C17        -1.7782   -9.7561   -9.5314 C.ar      1 <0>        -0.1341
     18 C18        -1.5739  -10.4065  -10.7378 C.ar      1 <0>        -0.1254
     19 C19        -1.3413  -11.7672  -10.7680 C.ar      1 <0>        -0.1569
     20 C20        -1.3107  -12.4939   -9.5872 C.ar      1 <0>         0.1112
     21 C21        -1.5104  -11.8383   -8.3625 C.ar      1 <0>        -0.1286
     22 C22        -1.4738  -12.5968   -7.1019 C.2       1 <0>         0.5370
     23 O1         -2.4811  -13.1621   -6.6987 O.co2     1 <0>        -0.6818
     24 O2         -0.4362  -12.6621   -6.4572 O.co2     1 <0>        -0.6851
     25 O3         -1.0829  -13.8304   -9.6154 O.3       1 <0>        -0.4921
     26 H1          2.0735    1.5487   -0.4651 H         1 <0>         0.0955
     27 H2          0.2799    2.0077   -0.1976 H         1 <0>         0.0967
     28 H3         -0.2590   -0.2960    0.1411 H         1 <0>         0.1087
     29 H4          1.6450   -1.7080   -1.0032 H         1 <0>         0.0874
     30 H5          2.8070   -0.5664   -0.2858 H         1 <0>         0.0729
     31 H6          1.9100   -1.3673    2.0725 H         1 <0>         0.1089
     32 H7          1.6847   -3.7472    1.9639 H         1 <0>         0.1100
     33 H8          0.9365   -4.3580   -0.4938 H         1 <0>         0.0862
     34 H9          2.1104   -3.1426   -1.0533 H         1 <0>         0.0818
     35 H10         3.9728   -4.6276    0.1016 H         1 <0>         0.1069
     36 H11         3.4775   -6.9081   -0.4282 H         1 <0>         0.1092
     37 H12         0.8488   -7.1466   -0.5098 H         1 <0>         0.0698
     38 H13         0.8271   -5.5855   -1.3647 H         1 <0>         0.0743
     39 H14         2.1773   -6.5701   -3.1967 H         1 <0>         0.0603
     40 H15         2.1990   -8.1312   -2.3418 H         1 <0>         0.0629
     41 H16        -0.2758   -8.2303   -2.4600 H         1 <0>         0.0617
     42 H17        -0.2975   -6.6692   -3.3149 H         1 <0>         0.0579
     43 H18         1.0527   -7.6538   -5.1469 H         1 <0>         0.0571
     44 H19         1.0744   -9.2148   -4.2920 H         1 <0>         0.0647
     45 H20        -1.4004   -9.3140   -4.4102 H         1 <0>         0.0619
     46 H21        -1.4221   -7.7529   -5.2651 H         1 <0>         0.0532
     47 H22        -0.0719   -8.7375   -7.0971 H         1 <0>         0.0517
     48 H23        -0.0502  -10.2985   -6.2422 H         1 <0>         0.0871
     49 H24        -2.5250  -10.3977   -6.3604 H         1 <0>         0.0760
     50 H25        -2.5467   -8.8366   -7.2153 H         1 <0>         0.0606
     51 H26        -1.9599   -8.6916   -9.5189 H         1 <0>         0.1154
     52 H27        -1.5970   -9.8456  -11.6604 H         1 <0>         0.1160
     53 H28        -1.1834  -12.2664  -11.7126 H         1 <0>         0.1184
     54 H29        -0.1483  -14.0714   -9.5559 H         1 <0>         0.3827
@<TRIPOS>BOND
     1    1    2 2
     2    1   26 1
     3    1   27 1
     4    2    3 1
     5    2   28 1
     6    3    4 1
     7    3   29 1
     8    3   30 1
     9    4    5 2
    10    4   31 1
    11    5    6 1
    12    5   32 1
    13    6    7 1
    14    6   33 1
    15    6   34 1
    16    7    8 2
    17    7   35 1
    18    8    9 1
    19    8   36 1
    20    9   10 1
    21    9   37 1
    22    9   38 1
    23   10   11 1
    24   10   39 1
    25   10   40 1
    26   11   12 1
    27   11   41 1
    28   11   42 1
    29   12   13 1
    30   12   43 1
    31   12   44 1
    32   13   14 1
    33   13   45 1
    34   13   46 1
    35   14   15 1
    36   14   47 1
    37   14   48 1
    38   15   16 1
    39   15   49 1
    40   15   50 1
    41   16   21 ar
    42   16   17 ar
    43   17   18 ar
    44   17   51 1
    45   18   19 ar
    46   18   52 1
    47   19   20 ar
    48   19   53 1
    49   20   21 ar
    50   20   25 1
    51   21   22 1
    52   22   23 2
    53   22   24 1
    54   25   54 1
