@<TRIPOS>MOLECULE
ZINC08681494
   50    53     0     0     0
SMALL
USER_CHARGES

@<TRIPOS>ATOM
      1 C1         -0.0167    1.3779    0.0096 C.ar      1 <0>        -0.0832
      2 C2          1.1696    2.0886    0.0021 C.ar      1 <0>        -0.1311
      3 C3          2.3802    1.4154   -0.0130 C.ar      1 <0>         0.0917
      4 C4          2.3990    0.0236   -0.0206 C.ar      1 <0>         0.0803
      5 C5          1.2071   -0.6822   -0.0130 C.ar      1 <0>        -0.1019
      6 C6          0.0021   -0.0041    0.0020 C.ar      1 <0>        -0.0826
      7 C7         -1.2936   -0.7736    0.0102 C.3       1 <0>         0.1441
      8 H1         -1.1201   -1.7884   -0.3479 H         1 <0>         0.0998
      9 C8         -1.8590   -0.8183    1.4356 C.3       1 <0>         0.0656
     10 H2         -2.1191    0.1894    1.7595 H         1 <0>         0.1043
     11 C9         -3.1120   -1.6975    1.4281 C.3       1 <0>        -0.0874
     12 C10        -4.0118   -1.2895    0.2891 C.ar      1 <0>        -0.1903
     13 C11        -5.3448   -1.6839    0.3168 C.ar      1 <0>         0.1635
     14 C12        -6.1992   -1.3308   -0.7146 C.ar      1 <0>        -0.1965
     15 C13        -5.7231   -0.5806   -1.7796 C.ar      1 <0>         0.1599
     16 C14        -4.3960   -0.1855   -1.8071 C.ar      1 <0>        -0.1784
     17 C15        -3.5373   -0.5380   -0.7709 C.ar      1 <0>         0.1588
     18 O1         -2.2452   -0.1223   -0.8323 O.3       1 <0>        -0.2898
     19 O2         -6.5574   -0.2342   -2.7948 O.3       1 <0>        -0.4911
     20 O3         -5.8113   -2.4194    1.3600 O.3       1 <0>        -0.4902
     21 O4         -0.8856   -1.3731    2.3226 O.3       1 <0>        -0.3279
     22 C16        -0.9111   -0.9489    3.6014 C.2       1 <0>         0.5148
     23 O5         -1.7371   -0.1303    3.9536 O.2       1 <0>        -0.4908
     24 C17         0.0636   -1.4782    4.5734 C.ar      1 <0>        -0.1031
     25 C18         1.0179   -2.4155    4.1683 C.ar      1 <0>        -0.0810
     26 C19         1.9301   -2.9098    5.0813 C.ar      1 <0>         0.0863
     27 C20         1.8987   -2.4752    6.4039 C.ar      1 <0>         0.0960
     28 C21         0.9488   -1.5418    6.8103 C.ar      1 <0>         0.0887
     29 C22         0.0384   -1.0391    5.9000 C.ar      1 <0>        -0.0732
     30 O6          0.9207   -1.1198    8.1029 O.3       1 <0>        -0.4774
     31 O7          2.7965   -2.9632    7.2996 O.3       1 <0>        -0.4719
     32 O8          2.8590   -3.8220    4.6878 O.3       1 <0>        -0.4773
     33 O9          3.5850   -0.6417   -0.0359 O.3       1 <0>        -0.4831
     34 O10         3.5476    2.1129   -0.0209 O.3       1 <0>        -0.4863
     35 H3         -0.9598    1.9038    0.0259 H         1 <0>         0.1345
     36 H4          1.1522    3.1684    0.0077 H         1 <0>         0.1380
     37 H5          1.2190   -1.7621   -0.0189 H         1 <0>         0.1388
     38 H6         -2.8221   -2.7410    1.3054 H         1 <0>         0.0963
     39 H7         -3.6445   -1.5781    2.3716 H         1 <0>         0.0930
     40 H8         -7.2339   -1.6393   -0.6898 H         1 <0>         0.1412
     41 H9         -4.0260    0.3985   -2.6368 H         1 <0>         0.1440
     42 H10        -7.0114    0.6089   -2.6604 H         1 <0>         0.3978
     43 H11        -6.1571   -1.8895    2.0913 H         1 <0>         0.3960
     44 H12         1.0423   -2.7535    3.1428 H         1 <0>         0.1535
     45 H13        -0.6951   -0.3115    6.2147 H         1 <0>         0.1537
     46 H14         1.4699   -0.3427    8.2750 H         1 <0>         0.3935
     47 H15         3.6138   -2.4496    7.3568 H         1 <0>         0.3924
     48 H16         3.6850   -3.4309    4.3717 H         1 <0>         0.3924
     49 H17         3.9367   -0.8389    0.8430 H         1 <0>         0.3864
     50 H18         3.8938    2.3101    0.8602 H         1 <0>         0.3891
@<TRIPOS>BOND
     1    1    6 ar
     2    1    2 ar
     3    1   35 1
     4    2    3 ar
     5    2   36 1
     6    3    4 ar
     7    3   34 1
     8    4    5 ar
     9    4   33 1
    10    5    6 ar
    11    5   37 1
    12    6    7 1
    13    7    8 1
    14    7   18 1
    15    7    9 1
    16    9   10 1
    17    9   11 1
    18    9   21 1
    19   11   12 1
    20   11   38 1
    21   11   39 1
    22   12   17 ar
    23   12   13 ar
    24   13   14 ar
    25   13   20 1
    26   14   15 ar
    27   14   40 1
    28   15   16 ar
    29   15   19 1
    30   16   17 ar
    31   16   41 1
    32   17   18 1
    33   19   42 1
    34   20   43 1
    35   21   22 1
    36   22   23 2
    37   22   24 1
    38   24   29 ar
    39   24   25 ar
    40   25   26 ar
    41   25   44 1
    42   26   27 ar
    43   26   32 1
    44   27   28 ar
    45   27   31 1
    46   28   29 ar
    47   28   30 1
    48   29   45 1
    49   30   46 1
    50   31   47 1
    51   32   48 1
    52   33   49 1
    53   34   50 1
@<TRIPOS>MOLECULE
ZINC03870413
   51    54     0     0     0
SMALL
USER_CHARGES

@<TRIPOS>ATOM
      1 C1         -0.0167    1.3824    0.0096 C.ar      1 <0>        -0.1111
      2 C2          1.1697    2.0917    0.0021 C.ar      1 <0>        -0.0659
      3 C3          2.3792    1.4226   -0.0135 C.ar      1 <0>        -0.1117
      4 C4          2.4066    0.0362   -0.0217 C.ar      1 <0>         0.0966
      5 C5          1.2160   -0.6806   -0.0137 C.ar      1 <0>         0.0646
      6 C6          0.0021   -0.0041    0.0020 C.ar      1 <0>         0.0987
      7 O1         -1.1658   -0.7009    0.0099 O.3       1 <0>        -0.4881
      8 O2          1.2387   -2.0413   -0.0217 O.3       1 <0>        -0.4793
      9 O3          3.5971   -0.6212   -0.0380 O.3       1 <0>        -0.4822
     10 C7          1.1446    3.5984    0.0105 C.3       1 <0>         0.1443
     11 H1          0.1709    3.9512   -0.3294 H         1 <0>         0.1023
     12 C8          1.4132    4.1118    1.4309 C.3       1 <0>         0.0650
     13 H2          2.4232    3.8377    1.7358 H         1 <0>         0.1042
     14 C9          1.2714    5.6359    1.4258 C.3       1 <0>        -0.0873
     15 C10         2.0504    6.2145    0.2717 C.ar      1 <0>        -0.1901
     16 C11         2.3697    7.5676    0.2931 C.ar      1 <0>         0.1636
     17 C12         3.0805    8.1340   -0.7521 C.ar      1 <0>        -0.1961
     18 C13         3.4754    7.3482   -1.8246 C.ar      1 <0>         0.1601
     19 C14         3.1596    5.9999   -1.8458 C.ar      1 <0>        -0.1780
     20 C15         2.4473    5.4295   -0.7959 C.ar      1 <0>         0.1584
     21 O4          2.1661    4.1013   -0.8516 O.3       1 <0>        -0.2897
     22 O5          4.1708    7.9004   -2.8533 O.3       1 <0>        -0.4911
     23 O6          1.9825    8.3377    1.3437 O.3       1 <0>        -0.4901
     24 O7          0.4655    3.5421    2.3362 O.3       1 <0>        -0.3276
     25 C16         0.8706    3.3540    3.6075 C.2       1 <0>         0.5158
     26 O8          1.9976    3.6651    3.9384 O.2       1 <0>        -0.4919
     27 C17        -0.0539    2.7705    4.5973 C.ar      1 <0>        -0.1046
     28 C18        -1.3486    2.4069    4.2168 C.ar      1 <0>        -0.0781
     29 C19        -2.2130    1.8604    5.1465 C.ar      1 <0>         0.0876
     30 C20        -1.7950    1.6722    6.4614 C.ar      1 <0>         0.0963
     31 C21        -0.5058    2.0340    6.8434 C.ar      1 <0>         0.0877
     32 C22         0.3649    2.5748    5.9163 C.ar      1 <0>        -0.0735
     33 O9         -0.1010    1.8493    8.1286 O.3       1 <0>        -0.4775
     34 O10        -2.6470    1.1351    7.3735 O.3       1 <0>        -0.4722
     35 O11        -3.4730    1.5063    4.7768 O.3       1 <0>        -0.4781
     36 H3         -0.9596    1.9089    0.0260 H         1 <0>         0.1426
     37 H4          3.3040    1.9803   -0.0197 H         1 <0>         0.1407
     38 H5         -1.5123   -0.8977   -0.8712 H         1 <0>         0.3979
     39 H6          1.2542   -2.4396    0.8593 H         1 <0>         0.3907
     40 H7          3.9506   -0.8164    0.8407 H         1 <0>         0.3909
     41 H8          0.2194    5.9019    1.3230 H         1 <0>         0.0969
     42 H9          1.6571    6.0391    2.3621 H         1 <0>         0.0935
     43 H10         3.3265    9.1854   -0.7322 H         1 <0>         0.1413
     44 H11         3.4673    5.3887   -2.6814 H         1 <0>         0.1441
     45 H12         5.1305    7.8764   -2.7370 H         1 <0>         0.3980
     46 H13         2.6278    8.3752    2.0628 H         1 <0>         0.3962
     47 H14        -1.6735    2.5533    3.1972 H         1 <0>         0.1537
     48 H15         1.3663    2.8508    6.2120 H         1 <0>         0.1533
     49 H16         0.3044    0.9870    8.2932 H         1 <0>         0.3932
     50 H17        -2.6056    0.1706    7.4302 H         1 <0>         0.3925
     51 H18        -3.5492    0.5951    4.4623 H         1 <0>         0.3937
@<TRIPOS>BOND
     1    1    6 ar
     2    1    2 ar
     3    1   36 1
     4    2    3 ar
     5    2   10 1
     6    3    4 ar
     7    3   37 1
     8    4    5 ar
     9    4    9 1
    10    5    6 ar
    11    5    8 1
    12    6    7 1
    13    7   38 1
    14    8   39 1
    15    9   40 1
    16   10   11 1
    17   10   21 1
    18   10   12 1
    19   12   13 1
    20   12   14 1
    21   12   24 1
    22   14   15 1
    23   14   41 1
    24   14   42 1
    25   15   20 ar
    26   15   16 ar
    27   16   17 ar
    28   16   23 1
    29   17   18 ar
    30   17   43 1
    31   18   19 ar
    32   18   22 1
    33   19   20 ar
    34   19   44 1
    35   20   21 1
    36   22   45 1
    37   23   46 1
    38   24   25 1
    39   25   26 2
    40   25   27 1
    41   27   32 ar
    42   27   28 ar
    43   28   29 ar
    44   28   47 1
    45   29   30 ar
    46   29   35 1
    47   30   31 ar
    48   30   34 1
    49   31   32 ar
    50   31   33 1
    51   32   48 1
    52   33   49 1
    53   34   50 1
    54   35   51 1
@<TRIPOS>MOLECULE
ZINC03870412
   51    54     0     0     0
SMALL
USER_CHARGES

@<TRIPOS>ATOM
      1 C1         -0.0167    1.3824    0.0096 C.ar      1 <0>        -0.1232
      2 C2          1.1697    2.0917    0.0021 C.ar      1 <0>        -0.0728
      3 C3          2.3792    1.4226   -0.0135 C.ar      1 <0>        -0.0978
      4 C4          2.4066    0.0362   -0.0217 C.ar      1 <0>         0.0943
      5 C5          1.2160   -0.6806   -0.0137 C.ar      1 <0>         0.0658
      6 C6          0.0021   -0.0041    0.0020 C.ar      1 <0>         0.0986
      7 O1         -1.1658   -0.7009    0.0099 O.3       1 <0>        -0.4875
      8 O2          1.2387   -2.0413   -0.0217 O.3       1 <0>        -0.4804
      9 O3          3.5971   -0.6212   -0.0380 O.3       1 <0>        -0.4833
     10 C7          1.1446    3.5984    0.0105 C.3       1 <0>         0.1463
     11 H1          0.2126    3.9475    0.4550 H         1 <0>         0.1098
     12 C8          1.2611    4.1251   -1.4256 C.3       1 <0>         0.0607
     13 H2          0.4684    3.6972   -2.0393 H         1 <0>         0.1110
     14 C9          1.1215    5.6490   -1.3913 C.3       1 <0>        -0.0887
     15 C10         2.0188    6.2172   -0.3211 C.ar      1 <0>        -0.1934
     16 C11         2.3348    7.5707   -0.3637 C.ar      1 <0>         0.1618
     17 C12         3.1535    8.1275    0.6048 C.ar      1 <0>        -0.1998
     18 C13         3.6597    7.3319    1.6220 C.ar      1 <0>         0.1590
     19 C14         3.3464    5.9836    1.6646 C.ar      1 <0>        -0.1810
     20 C15         2.5265    5.4225    0.6909 C.ar      1 <0>         0.1700
     21 O4          2.2521    4.0938    0.7639 O.3       1 <0>        -0.2919
     22 O5          4.4620    7.8746    2.5751 O.3       1 <0>        -0.4915
     23 O6          1.8385    8.3503   -1.3601 O.3       1 <0>        -0.4908
     24 O7          2.5347    3.7694   -1.9673 O.3       1 <0>        -0.3234
     25 C16         2.6005    3.5753   -3.2991 C.2       1 <0>         0.5152
     26 O8          1.6037    3.7045   -3.9818 O.2       1 <0>        -0.4949
     27 C17         3.8823    3.2060   -3.9281 C.ar      1 <0>        -0.1035
     28 C18         5.0283    3.0514   -3.1432 C.ar      1 <0>        -0.0764
     29 C19         6.2283    2.7053   -3.7353 C.ar      1 <0>         0.0874
     30 C20         6.2961    2.5111   -5.1125 C.ar      1 <0>         0.0957
     31 C21         5.1559    2.6649   -5.8970 C.ar      1 <0>         0.0871
     32 C22         3.9519    3.0043   -5.3093 C.ar      1 <0>        -0.0733
     33 O9          5.2258    2.4749   -7.2418 O.3       1 <0>        -0.4778
     34 O10         7.4772    2.1713   -5.6921 O.3       1 <0>        -0.4725
     35 O11         7.3439    2.5547   -2.9722 O.3       1 <0>        -0.4781
     36 H3         -0.9596    1.9089    0.0260 H         1 <0>         0.1412
     37 H4          3.3040    1.9803   -0.0197 H         1 <0>         0.1453
     38 H5         -1.5123   -0.8977   -0.8712 H         1 <0>         0.3973
     39 H6          1.2542   -2.4396    0.8593 H         1 <0>         0.3921
     40 H7          3.9506   -0.8164    0.8407 H         1 <0>         0.3917
     41 H8          1.4057    6.0611   -2.3595 H         1 <0>         0.0993
     42 H9          0.0865    5.9136   -1.1749 H         1 <0>         0.0973
     43 H10         3.3971    9.1790    0.5682 H         1 <0>         0.1392
     44 H11         3.7408    5.3648    2.4571 H         1 <0>         0.1416
     45 H12         3.9848    8.2124    3.3453 H         1 <0>         0.3966
     46 H13         0.9859    8.7570   -1.1536 H         1 <0>         0.3948
     47 H14         4.9764    3.2026   -2.0751 H         1 <0>         0.1522
     48 H15         3.0669    3.1188   -5.9176 H         1 <0>         0.1531
     49 H16         5.0544    1.5647   -7.5199 H         1 <0>         0.3927
     50 H17         7.6276    1.2177   -5.7487 H         1 <0>         0.3919
     51 H18         7.4749    1.6560   -2.6401 H         1 <0>         0.3928
@<TRIPOS>BOND
     1    1    6 ar
     2    1    2 ar
     3    1   36 1
     4    2    3 ar
     5    2   10 1
     6    3    4 ar
     7    3   37 1
     8    4    5 ar
     9    4    9 1
    10    5    6 ar
    11    5    8 1
    12    6    7 1
    13    7   38 1
    14    8   39 1
    15    9   40 1
    16   10   11 1
    17   10   21 1
    18   10   12 1
    19   12   13 1
    20   12   14 1
    21   12   24 1
    22   14   15 1
    23   14   41 1
    24   14   42 1
    25   15   20 ar
    26   15   16 ar
    27   16   17 ar
    28   16   23 1
    29   17   18 ar
    30   17   43 1
    31   18   19 ar
    32   18   22 1
    33   19   20 ar
    34   19   44 1
    35   20   21 1
    36   22   45 1
    37   23   46 1
    38   24   25 1
    39   25   26 2
    40   25   27 1
    41   27   32 ar
    42   27   28 ar
    43   28   29 ar
    44   28   47 1
    45   29   30 ar
    46   29   35 1
    47   30   31 ar
    48   30   34 1
    49   31   32 ar
    50   31   33 1
    51   32   48 1
    52   33   49 1
    53   34   50 1
    54   35   51 1
@<TRIPOS>MOLECULE
ZINC03978503
   50    53     0     0     0
SMALL
USER_CHARGES

@<TRIPOS>ATOM
      1 C1         -0.0167    1.3779    0.0096 C.ar      1 <0>        -0.0710
      2 C2          1.1696    2.0886    0.0021 C.ar      1 <0>        -0.1332
      3 C3          2.3802    1.4154   -0.0130 C.ar      1 <0>         0.0923
      4 C4          2.3990    0.0236   -0.0206 C.ar      1 <0>         0.0809
      5 C5          1.2071   -0.6822   -0.0130 C.ar      1 <0>        -0.1138
      6 C6          0.0021   -0.0041    0.0020 C.ar      1 <0>        -0.0888
      7 C7         -1.2936   -0.7736    0.0102 C.3       1 <0>         0.1463
      8 H1         -1.1302   -1.7631    0.4371 H         1 <0>         0.1070
      9 C8         -1.8224   -0.9103   -1.4233 C.3       1 <0>         0.0610
     10 H2         -1.0636   -1.3761   -2.0520 H         1 <0>         0.1107
     11 C9         -3.0759   -1.7881   -1.3913 C.3       1 <0>        -0.0890
     12 C10        -4.0042   -1.3085   -0.3042 C.ar      1 <0>        -0.1933
     13 C11        -5.3364   -1.7051   -0.3406 C.ar      1 <0>         0.1616
     14 C12        -6.2168   -1.2864    0.6434 C.ar      1 <0>        -0.2002
     15 C13        -5.7673   -0.4690    1.6698 C.ar      1 <0>         0.1586
     16 C14        -4.4409   -0.0726    1.7062 C.ar      1 <0>        -0.1813
     17 C15        -3.5564   -0.4901    0.7171 C.ar      1 <0>         0.1702
     18 O1         -2.2659   -0.0703    0.7846 O.3       1 <0>        -0.2917
     19 O2         -6.6274   -0.0572    2.6380 O.3       1 <0>        -0.4915
     20 O3         -5.7767   -2.5064   -1.3460 O.3       1 <0>        -0.4909
     21 O4         -2.1505    0.3807   -1.9409 O.3       1 <0>        -0.3234
     22 C16        -2.0274    0.5558   -3.2712 C.2       1 <0>         0.5140
     23 O5         -1.6517   -0.3624   -3.9727 O.2       1 <0>        -0.4936
     24 C17        -2.3486    1.8620   -3.8759 C.ar      1 <0>        -0.1023
     25 C18        -2.7754    2.9208   -3.0695 C.ar      1 <0>        -0.0785
     26 C19        -3.0757    4.1438   -3.6389 C.ar      1 <0>         0.0863
     27 C20        -2.9540    4.3216   -5.0146 C.ar      1 <0>         0.0952
     28 C21        -2.5294    3.2683   -5.8204 C.ar      1 <0>         0.0877
     29 C22        -2.2213    2.0451   -5.2556 C.ar      1 <0>        -0.0731
     30 O6         -2.4120    3.4452   -7.1638 O.3       1 <0>        -0.4777
     31 O7         -3.2504    5.5249   -5.5717 O.3       1 <0>        -0.4723
     32 O8         -3.4911    5.1745   -2.8548 O.3       1 <0>        -0.4778
     33 O9          3.5850   -0.6417   -0.0359 O.3       1 <0>        -0.4851
     34 O10         3.5476    2.1129   -0.0209 O.3       1 <0>        -0.4874
     35 H3         -0.9598    1.9038    0.0259 H         1 <0>         0.1390
     36 H4          1.1522    3.1684    0.0077 H         1 <0>         0.1372
     37 H5          1.2190   -1.7621   -0.0189 H         1 <0>         0.1374
     38 H6         -3.5841   -1.7300   -2.3539 H         1 <0>         0.0989
     39 H7         -2.7902   -2.8214   -1.1946 H         1 <0>         0.0968
     40 H8         -7.2509   -1.5961    0.6116 H         1 <0>         0.1390
     41 H9         -4.0917    0.5638    2.5059 H         1 <0>         0.1417
     42 H10        -6.6766   -0.6517    3.3991 H         1 <0>         0.3964
     43 H11        -5.7049   -3.4517   -1.1556 H         1 <0>         0.3947
     44 H12        -2.8707    2.7833   -2.0026 H         1 <0>         0.1528
     45 H13        -1.8875    1.2299   -5.8805 H         1 <0>         0.1534
     46 H14        -1.5394    3.7526   -7.4452 H         1 <0>         0.3929
     47 H15        -2.4976    6.1295   -5.6256 H         1 <0>         0.3917
     48 H16        -2.7726    5.7287   -2.5204 H         1 <0>         0.3921
     49 H17         3.9367   -0.8389    0.8430 H         1 <0>         0.3894
     50 H18         3.8938    2.3101    0.8602 H         1 <0>         0.3905
@<TRIPOS>BOND
     1    1    6 ar
     2    1    2 ar
     3    1   35 1
     4    2    3 ar
     5    2   36 1
     6    3    4 ar
     7    3   34 1
     8    4    5 ar
     9    4   33 1
    10    5    6 ar
    11    5   37 1
    12    6    7 1
    13    7    8 1
    14    7   18 1
    15    7    9 1
    16    9   10 1
    17    9   11 1
    18    9   21 1
    19   11   12 1
    20   11   38 1
    21   11   39 1
    22   12   17 ar
    23   12   13 ar
    24   13   14 ar
    25   13   20 1
    26   14   15 ar
    27   14   40 1
    28   15   16 ar
    29   15   19 1
    30   16   17 ar
    31   16   41 1
    32   17   18 1
    33   19   42 1
    34   20   43 1
    35   21   22 1
    36   22   23 2
    37   22   24 1
    38   24   29 ar
    39   24   25 ar
    40   25   26 ar
    41   25   44 1
    42   26   27 ar
    43   26   32 1
    44   27   28 ar
    45   27   31 1
    46   28   29 ar
    47   28   30 1
    48   29   45 1
    49   30   46 1
    50   31   47 1
    51   32   48 1
    52   33   49 1
    53   34   50 1
