@<TRIPOS>MOLECULE
ZINC03786250
   67    71     0     0     0
SMALL
USER_CHARGES

@<TRIPOS>ATOM
      1 C1         -2.6654   -1.0370   -0.6440 C.3       1 <0>        -0.1158
      2 C2         -1.6076   -0.7051    0.3767 C.ar      1 <0>        -0.0658
      3 C3         -0.7797    0.3858    0.1839 C.ar      1 <0>        -0.1362
      4 C4          0.1920    0.6936    1.1180 C.ar      1 <0>        -0.0955
      5 C5          0.3387   -0.0882    2.2474 C.ar      1 <0>        -0.1523
      6 C6         -0.4909   -1.1841    2.4439 C.ar      1 <0>         0.1664
      7 C7         -1.4698   -1.4873    1.5064 C.ar      1 <0>        -0.1190
      8 N1         -0.3448   -1.9781    3.5870 N.am      1 <0>        -0.6818
      9 C8         -0.5705   -3.3051    3.5191 C.2       1 <0>         0.7136
     10 O1         -0.8161   -3.8260    2.4483 O.2       1 <0>        -0.5564
     11 N2         -0.5241   -4.0547    4.6382 N.am      1 <0>        -0.7443
     12 C9         -0.7694   -5.4971    4.5644 C.3       1 <0>         0.3108
     13 H1         -0.7064   -5.8255    3.5270 H         1 <0>         0.1655
     14 C10         0.2582   -6.2257    5.3868 C.2       1 <0>         0.5085
     15 O2          0.9436   -7.0752    4.8582 O.2       1 <0>        -0.4958
     16 N3          0.4350   -5.9618    6.6795 N.am      1 <0>        -0.5353
     17 C11        -0.2383   -4.9823    7.3927 C.ar      1 <0>         0.1679
     18 C12         0.5009   -4.2377    8.3144 C.ar      1 <0>        -0.1396
     19 C13        -0.1000   -3.2489    9.0616 C.ar      1 <0>        -0.0725
     20 C14        -1.4501   -2.9824    8.9041 C.ar      1 <0>        -0.1271
     21 C15        -2.1939   -3.7050    8.0005 C.ar      1 <0>        -0.0612
     22 C16        -1.5963   -4.7157    7.2317 C.ar      1 <0>        -0.1337
     23 C17        -2.4506   -5.4454    6.2819 C.2       1 <0>         0.2881
     24 N4         -2.1001   -5.7952    5.0926 N.2       1 <0>        -0.5007
     25 C18        -3.8180   -5.8037    6.7254 C.ar      1 <0>        -0.0735
     26 C19        -4.8226   -6.0291    5.7846 C.ar      1 <0>        -0.0650
     27 C20        -6.0941   -6.3630    6.2039 C.ar      1 <0>        -0.1265
     28 C21        -6.3733   -6.4743    7.5543 C.ar      1 <0>        -0.0969
     29 C22        -5.3811   -6.2515    8.4923 C.ar      1 <0>        -0.1262
     30 C23        -4.1043   -5.9226    8.0852 C.ar      1 <0>        -0.0873
     31 C24         1.4178   -6.7703    7.4053 C.3       1 <0>         0.0527
     32 C25         2.7700   -6.1099    7.3240 C.2       1 <0>         0.3822
     33 O3          2.8999   -5.0669    6.7194 O.2       1 <0>        -0.4297
     34 C26         3.9327   -6.7308    7.9783 C.ar      1 <0>        -0.1755
     35 C27         3.7645   -7.8593    8.7875 C.ar      1 <0>        -0.0700
     36 C28         4.8588   -8.4355    9.3966 C.ar      1 <0>        -0.1373
     37 C29         6.1215   -7.9002    9.2092 C.ar      1 <0>        -0.0781
     38 C30         6.2962   -6.7837    8.4105 C.ar      1 <0>        -0.1348
     39 C31         5.2123   -6.1992    7.7897 C.ar      1 <0>        -0.0180
     40 C32         5.4055   -4.9872    6.9152 C.3       1 <0>        -0.1240
     41 H2         -3.5892   -0.5161   -0.3925 H         1 <0>         0.0714
     42 H3         -2.3285   -0.7226   -1.6318 H         1 <0>         0.0682
     43 H4         -2.8437   -2.1123   -0.6461 H         1 <0>         0.0685
     44 H5         -0.8921    0.9983   -0.6984 H         1 <0>         0.1234
     45 H6          0.8373    1.5459    0.9644 H         1 <0>         0.1269
     46 H7          1.0982    0.1525    2.9766 H         1 <0>         0.1238
     47 H8         -2.1198   -2.3362    1.6588 H         1 <0>         0.1344
     48 H9         -0.0812   -1.5734    4.4282 H         1 <0>         0.4067
     49 H10        -0.3282   -3.6391    5.4925 H         1 <0>         0.3990
     50 H11         1.5540   -4.4396    8.4429 H         1 <0>         0.1322
     51 H12         0.4826   -2.6802    9.7712 H         1 <0>         0.1365
     52 H13        -1.9192   -2.2069    9.4915 H         1 <0>         0.1375
     53 H14        -3.2462   -3.4931    7.8819 H         1 <0>         0.1394
     54 H15        -4.6059   -5.9422    4.7302 H         1 <0>         0.1348
     55 H16        -6.8730   -6.5375    5.4764 H         1 <0>         0.1285
     56 H17        -7.3700   -6.7359    7.8776 H         1 <0>         0.1262
     57 H18        -5.6052   -6.3392    9.5451 H         1 <0>         0.1281
     58 H19        -3.3294   -5.7533    8.8182 H         1 <0>         0.1275
     59 H20         1.1176   -6.8560    8.4497 H         1 <0>         0.1234
     60 H21         1.4713   -7.7636    6.9599 H         1 <0>         0.1317
     61 H22         2.7799   -8.2778    8.9349 H         1 <0>         0.1305
     62 H23         4.7305   -9.3066   10.0220 H         1 <0>         0.1315
     63 H24         6.9749   -8.3562    9.6891 H         1 <0>         0.1300
     64 H25         7.2844   -6.3715    8.2697 H         1 <0>         0.1307
     65 H26         5.1914   -4.0864    7.4904 H         1 <0>         0.0775
     66 H27         6.4356   -4.9555    6.5605 H         1 <0>         0.0630
     67 H28         4.7291   -5.0430    6.0623 H         1 <0>         0.0888
@<TRIPOS>BOND
     1    1    2 1
     2    1   41 1
     3    1   42 1
     4    1   43 1
     5    2    7 ar
     6    2    3 ar
     7    3    4 ar
     8    3   44 1
     9    4    5 ar
    10    4   45 1
    11    5    6 ar
    12    5   46 1
    13    6    7 ar
    14    6    8 1
    15    7   47 1
    16    8    9 am
    17    8   48 1
    18    9   10 2
    19    9   11 am
    20   11   12 1
    21   11   49 1
    22   12   13 1
    23   12   24 1
    24   12   14 1
    25   14   15 2
    26   14   16 am
    27   16   17 1
    28   16   31 1
    29   17   22 ar
    30   17   18 ar
    31   18   19 ar
    32   18   50 1
    33   19   20 ar
    34   19   51 1
    35   20   21 ar
    36   20   52 1
    37   21   22 ar
    38   21   53 1
    39   22   23 1
    40   23   24 2
    41   23   25 1
    42   25   30 ar
    43   25   26 ar
    44   26   27 ar
    45   26   54 1
    46   27   28 ar
    47   27   55 1
    48   28   29 ar
    49   28   56 1
    50   29   30 ar
    51   29   57 1
    52   30   58 1
    53   31   32 1
    54   31   59 1
    55   31   60 1
    56   32   33 2
    57   32   34 1
    58   34   39 ar
    59   34   35 ar
    60   35   36 ar
    61   35   61 1
    62   36   37 ar
    63   36   62 1
    64   37   38 ar
    65   37   63 1
    66   38   39 ar
    67   38   64 1
    68   39   40 1
    69   40   65 1
    70   40   66 1
    71   40   67 1
@<TRIPOS>MOLECULE
ZINC04217536
   78    80     0     0     0
SMALL
USER_CHARGES
3-[2-[2-amino-3-(1H-indol-3-yl)propanoyl]amino-4-methylsulfanyl-butanoyl]amino-4-(1-carbamoyl-2-phenyl-ethyl)amino-4-oxo-butanoic acid
@<TRIPOS>ATOM
      1 C1         -1.9361    2.6279   10.8859 C.3       1 <0>        -0.1199
      2 S1         -1.4070    2.6536    9.1510 S.3       1 <0>        -0.2585
      3 C2          0.2710    1.9658    9.1936 C.3       1 <0>        -0.0733
      4 C3          0.8436    1.9298    7.7753 C.3       1 <0>        -0.1154
      5 C4          2.2589    1.3496    7.8112 C.3       1 <0>         0.1327
      6 H1          2.2394    0.3740    8.2969 H         1 <0>         0.1289
      7 C5          2.7763    1.1998    6.4038 C.2       1 <0>         0.5111
      8 O1          3.7799    1.7881    6.0608 O.2       1 <0>        -0.5524
      9 N1          2.1237    0.4122    5.5262 N.am      1 <0>        -0.6672
     10 C6          2.5626    0.3511    4.1298 C.3       1 <0>         0.1525
     11 H2          2.9770    1.3156    3.8366 H         1 <0>         0.1034
     12 C7          3.6334   -0.7313    3.9786 C.3       1 <0>        -0.1731
     13 C8          3.0857   -2.0504    4.4593 C.2       1 <0>         0.4657
     14 O2          1.9324   -2.1340    4.8097 O.co2     1 <0>        -0.6188
     15 C9          1.3864    0.0206    3.2475 C.2       1 <0>         0.5414
     16 O3          0.2895   -0.1473    3.7370 O.2       1 <0>        -0.5187
     17 N2          1.5534   -0.0883    1.9146 N.am      1 <0>        -0.7076
     18 C10         0.4099   -0.4095    1.0570 C.3       1 <0>         0.1422
     19 H3         -0.4889    0.0576    1.4596 H         1 <0>         0.1141
     20 C11         0.6687    0.1166   -0.3562 C.3       1 <0>        -0.0857
     21 C12         0.7351    1.6219   -0.3275 C.ar      1 <0>        -0.0795
     22 C13        -0.4133    2.3681   -0.5153 C.ar      1 <0>        -0.1137
     23 C14        -0.3532    3.7488   -0.4841 C.ar      1 <0>        -0.1178
     24 C15         0.8571    4.3834   -0.2757 C.ar      1 <0>        -0.1230
     25 C16         2.0063    3.6373   -0.0932 C.ar      1 <0>        -0.1168
     26 C17         1.9453    2.2565   -0.1191 C.ar      1 <0>        -0.1104
     27 C18         0.2214   -1.9039    1.0099 C.2       1 <0>         0.4900
     28 O4          0.9686   -2.6292    1.6316 O.2       1 <0>        -0.4905
     29 N3         -0.7776   -2.4344    0.2770 N.am      1 <0>        -0.8607
     30 N4          3.1372    2.2510    8.5611 N.am      1 <0>        -0.6755
     31 C19         3.2058    2.1621    9.9042 C.2       1 <0>         0.5030
     32 O5          2.5404    1.3359   10.4920 O.2       1 <0>        -0.5208
     33 C20         4.1094    3.0893   10.6755 C.3       1 <0>         0.0207
     34 H4          4.0601    4.0883   10.2423 H         1 <0>         0.1626
     35 C21         5.5482    2.5737   10.6061 C.3       1 <0>        -0.0555
     36 C22         6.4691    3.5636   11.2719 C.2       1 <0>        -0.2333
     37 C23         7.1708    4.5342   10.6657 C.2       1 <0>         0.1055
     38 N5          7.8931    5.2359   11.5922 N.pl3     1 <0>        -0.5850
     39 H5          8.4755    5.9857   11.3932 H         1 <0>         0.4257
     40 C24         7.6748    4.7153   12.8481 C.ar      1 <0>         0.0996
     41 C25         6.7732    3.6449   12.7026 C.ar      1 <0>        -0.1171
     42 C26         6.3649    2.9209   13.8240 C.ar      1 <0>        -0.1122
     43 C27         6.8439    3.2561   15.0593 C.ar      1 <0>        -0.1208
     44 C28         7.7337    4.3107   15.2080 C.ar      1 <0>        -0.0941
     45 C29         8.1497    5.0388   14.1147 C.ar      1 <0>        -0.1128
     46 H6         -1.9219    1.6024   11.2549 H         1 <0>         0.0782
     47 H7         -1.2572    3.2379   11.4818 H         1 <0>         0.0689
     48 H8         -2.9470    3.0280   10.9635 H         1 <0>         0.1035
     49 H9          0.2388    0.9541    9.5982 H         1 <0>         0.0933
     50 H10         0.9035    2.5897    9.8251 H         1 <0>         0.0699
     51 H11         0.8758    2.9414    7.3707 H         1 <0>         0.0860
     52 H12         0.2111    1.3059    7.1438 H         1 <0>         0.1045
     53 H13         1.3635   -0.1142    5.8191 H         1 <0>         0.4232
     54 H14         3.9183   -0.8165    2.9300 H         1 <0>         0.0769
     55 H15         4.5075   -0.4629    4.5720 H         1 <0>         0.0783
     56 H16         2.4306    0.0460    1.5231 H         1 <0>         0.4002
     57 H17        -0.1403   -0.1989   -1.0152 H         1 <0>         0.0939
     58 H18         1.6139   -0.2818   -0.7249 H         1 <0>         0.0873
     59 H19        -1.3581    1.8724   -0.6826 H         1 <0>         0.1226
     60 H20        -1.2511    4.3318   -0.6271 H         1 <0>         0.1211
     61 H21         0.9048    5.4622   -0.2558 H         1 <0>         0.1194
     62 H22         2.9519    4.1331    0.0693 H         1 <0>         0.1215
     63 H23         2.8433    1.6736    0.0231 H         1 <0>         0.1211
     64 H24        -1.3752   -1.8543   -0.2202 H         1 <0>         0.3952
     65 H25        -0.8989   -3.3963    0.2467 H         1 <0>         0.4013
     66 H26         3.6695    2.9117    8.0909 H         1 <0>         0.4190
     67 H27         5.6153    1.6138   11.1181 H         1 <0>         0.1051
     68 H28         5.8401    2.4505    9.5632 H         1 <0>         0.1262
     69 H29         7.1647    4.7330    9.6042 H         1 <0>         0.1819
     70 H30         5.6729    2.0988   13.7158 H         1 <0>         0.1173
     71 H31         6.5272    2.6959   15.9267 H         1 <0>         0.1307
     72 H32         8.1036    4.5635   16.1907 H         1 <0>         0.1336
     73 H33         8.8418    5.8582   14.2409 H         1 <0>         0.1280
     74 H34         2.7511    3.5395   12.1556 H         1 <0>         0.4373
     75 H35         3.7119    2.2270   12.5022 H         1 <0>         0.4410
     76 O6          3.8791   -3.1324    4.4980 O.co2     1 <0>        -0.7688
     77 N6          3.6928    3.1572   12.0873 N.4       1 <0>        -0.6301
     78 H36         4.3399    3.7666   12.6013 H         1 <0>         0.4436
@<TRIPOS>BOND
     1    1    2 1
     2    1   46 1
     3    1   47 1
     4    1   48 1
     5    2    3 1
     6    3    4 1
     7    3   49 1
     8    3   50 1
     9    4    5 1
    10    4   51 1
    11    4   52 1
    12    5    6 1
    13    5    7 1
    14    5   30 1
    15    7    8 2
    16    7    9 am
    17    9   10 1
    18    9   53 1
    19   10   11 1
    20   10   12 1
    21   10   15 1
    22   12   13 1
    23   12   54 1
    24   12   55 1
    25   13   14 2
    26   13   76 1
    27   15   16 2
    28   15   17 am
    29   17   18 1
    30   17   56 1
    31   18   19 1
    32   18   20 1
    33   18   27 1
    34   20   21 1
    35   20   57 1
    36   20   58 1
    37   21   26 ar
    38   21   22 ar
    39   22   23 ar
    40   22   59 1
    41   23   24 ar
    42   23   60 1
    43   24   25 ar
    44   24   61 1
    45   25   26 ar
    46   25   62 1
    47   26   63 1
    48   27   28 2
    49   27   29 am
    50   29   64 1
    51   29   65 1
    52   30   31 am
    53   30   66 1
    54   31   32 2
    55   31   33 1
    56   33   34 1
    57   33   35 1
    58   33   77 1
    59   35   36 1
    60   35   67 1
    61   35   68 1
    62   36   41 1
    63   36   37 2
    64   37   38 1
    65   37   69 1
    66   38   39 1
    67   38   40 1
    68   40   45 ar
    69   40   41 ar
    70   41   42 ar
    71   42   43 ar
    72   42   70 1
    73   43   44 ar
    74   43   71 1
    75   44   45 ar
    76   44   72 1
    77   45   73 1
    78   74   77 1
    79   75   77 1
    80   77   78 1
@<TRIPOS>MOLECULE
ZINC03780994
   67    68     0     0     0
SMALL
USER_CHARGES
5-dipentylamino-4-(2-naphthylcarbonylamino)-5-oxo-pentanoic acid
@<TRIPOS>ATOM
      1 C1         -2.9532   12.2847   -0.5756 C.3       1 <0>        -0.1517
      2 C2         -3.0558   10.8013   -0.9360 C.3       1 <0>        -0.1261
      3 C3         -3.2864    9.9823    0.3355 C.3       1 <0>        -0.1139
      4 C4         -3.3889    8.4989   -0.0249 C.3       1 <0>        -0.1385
      5 C5         -3.6195    7.6799    1.2467 C.3       1 <0>         0.1186
      6 N1         -3.7177    6.2595    0.9016 N.am      1 <0>        -0.6063
      7 C6         -5.0309    5.6478    0.6834 C.3       1 <0>         0.0933
      8 C7         -5.5474    5.0653    2.0005 C.3       1 <0>        -0.1366
      9 C8         -6.9188    4.4264    1.7726 C.3       1 <0>        -0.1209
     10 C9         -7.4354    3.8440    3.0897 C.3       1 <0>        -0.1225
     11 C10        -8.8068    3.2051    2.8618 C.3       1 <0>        -0.1535
     12 C11        -2.5999    5.5155    0.7849 C.2       1 <0>         0.5218
     13 O1         -1.5168    6.0072    1.0214 O.2       1 <0>        -0.5404
     14 C12        -2.6960    4.0727    0.3605 C.3       1 <0>         0.1253
     15 H1         -3.5187    3.5922    0.8901 H         1 <0>         0.1109
     16 C13        -2.9483    4.0002   -1.1468 C.3       1 <0>        -0.1030
     17 C14        -3.1849    2.5447   -1.5548 C.3       1 <0>        -0.1439
     18 C15        -3.4334    2.4732   -3.0395 C.2       1 <0>         0.4581
     19 O2         -3.4223    3.4828   -3.7032 O.co2     1 <0>        -0.6464
     20 N2         -1.4422    3.3853    0.6794 N.am      1 <0>        -0.7076
     21 C16        -1.4353    2.0516    0.8731 C.2       1 <0>         0.5576
     22 O3         -2.4694    1.4189    0.7832 O.2       1 <0>        -0.5187
     23 C17        -0.1706    1.3582    1.1948 C.ar      1 <0>        -0.1276
     24 C18         1.0239    2.0946    1.2919 C.ar      1 <0>        -0.0867
     25 C19         2.1989    1.4798    1.5807 C.ar      1 <0>        -0.1137
     26 C20         2.2332    0.0885    1.7873 C.ar      1 <0>        -0.0347
     27 C21         3.4375   -0.5699    2.0870 C.ar      1 <0>        -0.1128
     28 C22         3.4399   -1.9174    2.2813 C.ar      1 <0>        -0.1089
     29 C23         2.2632   -2.6583    2.1878 C.ar      1 <0>        -0.1246
     30 C24         1.0776   -2.0557    1.8994 C.ar      1 <0>        -0.0916
     31 C25         1.0358   -0.6651    1.6922 C.ar      1 <0>        -0.0630
     32 C26        -0.1695   -0.0124    1.3928 C.ar      1 <0>        -0.0319
     33 H2         -2.7889   12.8682   -1.4815 H         1 <0>         0.0523
     34 H3         -3.8785   12.6075   -0.0984 H         1 <0>         0.0520
     35 H4         -2.1192   12.4353    0.1098 H         1 <0>         0.0524
     36 H5         -2.1305   10.4786   -1.4133 H         1 <0>         0.0623
     37 H6         -3.8898   10.6508   -1.6214 H         1 <0>         0.0617
     38 H7         -4.2116   10.3050    0.8128 H         1 <0>         0.0603
     39 H8         -2.4523   10.1328    1.0209 H         1 <0>         0.0619
     40 H9         -2.4636    8.1761   -0.5021 H         1 <0>         0.0695
     41 H10        -4.2230    8.3483   -0.7103 H         1 <0>         0.0656
     42 H11        -4.5448    8.0026    1.7240 H         1 <0>         0.0765
     43 H12        -2.7854    7.8304    1.9321 H         1 <0>         0.0799
     44 H13        -5.7282    6.4036    0.3221 H         1 <0>         0.0843
     45 H14        -4.9425    4.8518   -0.0561 H         1 <0>         0.0937
     46 H15        -4.8500    4.3095    2.3618 H         1 <0>         0.0655
     47 H16        -5.6357    5.8613    2.7399 H         1 <0>         0.0644
     48 H17        -7.6162    5.1822    1.4113 H         1 <0>         0.0638
     49 H18        -6.8305    3.6305    1.0331 H         1 <0>         0.0706
     50 H19        -6.7380    3.0882    3.4510 H         1 <0>         0.0616
     51 H20        -7.5237    4.6399    3.8291 H         1 <0>         0.0576
     52 H21        -9.5042    3.9609    2.5005 H         1 <0>         0.0524
     53 H22        -8.7185    2.4092    2.1223 H         1 <0>         0.0568
     54 H23        -9.1748    2.7901    3.8001 H         1 <0>         0.0510
     55 H24        -3.8265    4.5951   -1.3973 H         1 <0>         0.0766
     56 H25        -2.0811    4.3904   -1.6795 H         1 <0>         0.0698
     57 H26        -2.3067    1.9497   -1.3044 H         1 <0>         0.0670
     58 H27        -4.0521    2.1544   -1.0221 H         1 <0>         0.0688
     59 H28        -0.6170    3.8901    0.7512 H         1 <0>         0.4060
     60 H29         1.0057    3.1630    1.1347 H         1 <0>         0.1282
     61 H30         3.1078    2.0588    1.6518 H         1 <0>         0.1318
     62 H31         4.3577   -0.0095    2.1625 H         1 <0>         0.1275
     63 H32         4.3678   -2.4198    2.5111 H         1 <0>         0.1226
     64 H33         2.2928   -3.7262    2.3462 H         1 <0>         0.1238
     65 H34         0.1734   -2.6423    1.8297 H         1 <0>         0.1312
     66 H35        -1.0887   -0.5742    1.3171 H         1 <0>         0.1451
     67 O4         -3.6670    1.2880   -3.6246 O.co2     1 <0>        -0.7744
@<TRIPOS>BOND
     1    1    2 1
     2    1   33 1
     3    1   34 1
     4    1   35 1
     5    2    3 1
     6    2   36 1
     7    2   37 1
     8    3    4 1
     9    3   38 1
    10    3   39 1
    11    4    5 1
    12    4   40 1
    13    4   41 1
    14    5    6 1
    15    5   42 1
    16    5   43 1
    17    6    7 1
    18    6   12 am
    19    7    8 1
    20    7   44 1
    21    7   45 1
    22    8    9 1
    23    8   46 1
    24    8   47 1
    25    9   10 1
    26    9   48 1
    27    9   49 1
    28   10   11 1
    29   10   50 1
    30   10   51 1
    31   11   52 1
    32   11   53 1
    33   11   54 1
    34   12   13 2
    35   12   14 1
    36   14   15 1
    37   14   16 1
    38   14   20 1
    39   16   17 1
    40   16   55 1
    41   16   56 1
    42   17   18 1
    43   17   57 1
    44   17   58 1
    45   18   19 2
    46   18   67 1
    47   20   21 am
    48   20   59 1
    49   21   22 2
    50   21   23 1
    51   23   32 ar
    52   23   24 ar
    53   24   25 ar
    54   24   60 1
    55   25   26 ar
    56   25   61 1
    57   26   31 ar
    58   26   27 ar
    59   27   28 ar
    60   27   62 1
    61   28   29 ar
    62   28   63 1
    63   29   30 ar
    64   29   64 1
    65   30   31 ar
    66   30   65 1
    67   31   32 ar
    68   32   66 1
@<TRIPOS>MOLECULE
ZINC04534207
   92    94     0     0     0
SMALL
USER_CHARGES

@<TRIPOS>ATOM
      1 C1         -0.1679    0.5599    0.2732 C.3       1 <0>        -0.1918
      2 C2         -0.0129   -0.9581    0.1612 C.3       1 <0>         0.1389
      3 C3          0.7899   -1.4783    1.3553 C.3       1 <0>        -0.1851
      4 C4         -1.3958   -1.6127    0.1523 C.3       1 <0>        -0.1393
      5 O1          0.6737   -1.2787   -1.0504 O.3       1 <0>        -0.3635
      6 C5          1.9137   -0.7764   -1.2016 C.2       1 <0>         0.6587
      7 O2          2.3995   -0.0846   -0.3287 O.2       1 <0>        -0.5340
      8 N1          2.6160   -1.0407   -2.3211 N.am      1 <0>        -0.6956
      9 C6          3.9652   -0.4941   -2.4856 C.3       1 <0>         0.1652
     10 H1          4.3717   -0.8126   -3.4455 H         1 <0>         0.1140
     11 C7          3.9055    1.0340   -2.4389 C.3       1 <0>        -0.0641
     12 C8          3.1223    1.5426   -3.6218 C.2       1 <0>        -0.1621
     13 C9          3.6259    1.9479   -4.7982 C.2       1 <0>         0.0541
     14 N2          2.6123    2.3414   -5.6289 N.pl3     1 <0>        -0.5955
     15 H2          2.7297    2.6739   -6.5326 H         1 <0>         0.4148
     16 C10         1.4008    2.1951   -4.9911 C.ar      1 <0>         0.0937
     17 C11         1.6667    1.6823   -3.7080 C.ar      1 <0>        -0.0928
     18 C12         0.6134    1.4247   -2.8289 C.ar      1 <0>        -0.0721
     19 C13        -0.6727    1.6690   -3.2210 C.ar      1 <0>        -0.1480
     20 C14        -0.9405    2.1710   -4.4869 C.ar      1 <0>        -0.0987
     21 C15         0.0846    2.4411   -5.3672 C.ar      1 <0>        -0.1343
     22 C16         4.8497   -0.9965   -1.3738 C.2       1 <0>         0.5007
     23 O3          4.3558   -1.4216   -0.3510 O.2       1 <0>        -0.5014
     24 N3          6.1898   -0.9734   -1.5161 N.am      1 <0>        -0.7065
     25 C17         7.0497   -1.4618   -0.4353 C.3       1 <0>         0.1383
     26 H3          6.5971   -1.2201    0.5264 H         1 <0>         0.1175
     27 C18         7.2099   -2.9785   -0.5568 C.3       1 <0>        -0.1054
     28 C19         5.8554   -3.6540   -0.3330 C.3       1 <0>        -0.0657
     29 S1          6.0453   -5.4522   -0.4771 S.3       1 <0>        -0.2781
     30 C20         4.3734   -6.0945   -0.1895 C.3       1 <0>        -0.1156
     31 C21         8.4022   -0.8043   -0.5334 C.2       1 <0>         0.5311
     32 O4          8.6258   -0.0064   -1.4189 O.2       1 <0>        -0.5436
     33 N4          9.3633   -1.1031    0.3630 N.am      1 <0>        -0.6740
     34 C22        10.7097   -0.5476    0.2058 C.3       1 <0>         0.1606
     35 H4         10.6395    0.4794   -0.1525 H         1 <0>         0.1171
     36 C23        11.4309   -0.5687    1.5551 C.3       1 <0>        -0.1901
     37 C24        10.7368    0.3676    2.5103 C.2       1 <0>         0.4928
     38 O5          9.8198    1.0690    2.1183 O.co2     1 <0>        -0.6819
     39 O6         11.0922    0.4237    3.6753 O.co2     1 <0>        -0.6976
     40 C25        11.4816   -1.3752   -0.7893 C.2       1 <0>         0.5180
     41 O7         10.9585   -2.3346   -1.3155 O.2       1 <0>        -0.5367
     42 N5         12.7532   -1.0492   -1.0946 N.am      1 <0>        -0.7073
     43 C26        13.5036   -1.8537   -2.0621 C.3       1 <0>         0.1368
     44 H5         12.8281   -2.2102   -2.8397 H         1 <0>         0.1150
     45 C27        14.6025   -0.9973   -2.6943 C.3       1 <0>        -0.0831
     46 C28        13.9747    0.1112   -3.4994 C.ar      1 <0>        -0.0843
     47 C29        13.6753   -0.0880   -4.8342 C.ar      1 <0>        -0.1153
     48 C30        13.0995    0.9288   -5.5726 C.ar      1 <0>        -0.1194
     49 C31        12.8226    2.1447   -4.9763 C.ar      1 <0>        -0.1197
     50 C32        13.1211    2.3437   -3.6413 C.ar      1 <0>        -0.1117
     51 C33        13.6930    1.3255   -2.9017 C.ar      1 <0>        -0.1062
     52 C34        14.1269   -3.0321   -1.3593 C.2       1 <0>         0.5029
     53 O8         13.9608   -3.1848   -0.1677 O.2       1 <0>        -0.5185
     54 N6         14.8691   -3.9162   -2.0550 N.am      1 <0>        -0.8573
     55 H6          0.8173    1.0262    0.2796 H         1 <0>         0.0907
     56 H7         -0.7398    0.9305   -0.5775 H         1 <0>         0.0609
     57 H8         -0.6916    0.8044    1.1973 H         1 <0>         0.0681
     58 H9          0.2662   -1.2338    2.2794 H         1 <0>         0.0639
     59 H10         0.9003   -2.5598    1.2755 H         1 <0>         0.0550
     60 H11         1.7751   -1.0120    1.3617 H         1 <0>         0.0967
     61 H12        -1.9677   -1.2421   -0.6984 H         1 <0>         0.0643
     62 H13        -1.2853   -2.6941    0.0725 H         1 <0>         0.0640
     63 H14        -1.9195   -1.3681    1.0764 H         1 <0>         0.0774
     64 H15         2.2281   -1.5929   -3.0179 H         1 <0>         0.4064
     65 H16         3.4177    1.3506   -1.5170 H         1 <0>         0.1042
     66 H17         4.9172    1.4383   -2.4721 H         1 <0>         0.0897
     67 H18         4.6757    1.9618   -5.0514 H         1 <0>         0.1720
     68 H19         0.8142    1.0335   -1.8425 H         1 <0>         0.1271
     69 H20        -1.4873    1.4696   -2.5405 H         1 <0>         0.1177
     70 H21        -1.9623    2.3582   -4.7826 H         1 <0>         0.1218
     71 H22        -0.1341    2.8304   -6.3506 H         1 <0>         0.1165
     72 H23         6.5848   -0.6334   -2.3342 H         1 <0>         0.4080
     73 H24         7.5794   -3.2263   -1.5519 H         1 <0>         0.0816
     74 H25         7.9194   -3.3301    0.1922 H         1 <0>         0.0876
     75 H26         5.4859   -3.4062    0.6620 H         1 <0>         0.0884
     76 H27         5.1459   -3.3024   -1.0821 H         1 <0>         0.0833
     77 H28         4.3856   -7.1824   -0.2566 H         1 <0>         0.0972
     78 H29         4.0350   -5.7955    0.8026 H         1 <0>         0.0746
     79 H30         3.6951   -5.6917   -0.9415 H         1 <0>         0.0719
     80 H31         9.1635   -1.6860    1.1122 H         1 <0>         0.4027
     81 H32        11.4133   -1.5803    1.9606 H         1 <0>         0.0710
     82 H33        12.4642   -0.2494    1.4198 H         1 <0>         0.0772
     83 H34        13.1716   -0.2819   -0.6738 H         1 <0>         0.4039
     84 H35        15.2256   -0.5684   -1.9096 H         1 <0>         0.0869
     85 H36        15.2163   -1.6178   -3.3472 H         1 <0>         0.0913
     86 H37        13.8917   -1.0380   -5.3001 H         1 <0>         0.1199
     87 H38        12.8662    0.7733   -6.6156 H         1 <0>         0.1195
     88 H39        12.3733    2.9394   -5.5534 H         1 <0>         0.1196
     89 H40        12.9050    3.2938   -3.1754 H         1 <0>         0.1238
     90 H41        13.9228    1.4797   -1.8578 H         1 <0>         0.1220
     91 H42        15.0020   -3.7941   -3.0080 H         1 <0>         0.3983
     92 H43        15.2703   -4.6747   -1.6026 H         1 <0>         0.4008
@<TRIPOS>BOND
     1    1    2 1
     2    1   55 1
     3    1   56 1
     4    1   57 1
     5    2    3 1
     6    2    4 1
     7    2    5 1
     8    3   58 1
     9    3   59 1
    10    3   60 1
    11    4   61 1
    12    4   62 1
    13    4   63 1
    14    5    6 1
    15    6    7 2
    16    6    8 am
    17    8    9 1
    18    8   64 1
    19    9   10 1
    20    9   11 1
    21    9   22 1
    22   11   12 1
    23   11   65 1
    24   11   66 1
    25   12   17 1
    26   12   13 2
    27   13   14 1
    28   13   67 1
    29   14   15 1
    30   14   16 1
    31   16   21 ar
    32   16   17 ar
    33   17   18 ar
    34   18   19 ar
    35   18   68 1
    36   19   20 ar
    37   19   69 1
    38   20   21 ar
    39   20   70 1
    40   21   71 1
    41   22   23 2
    42   22   24 am
    43   24   25 1
    44   24   72 1
    45   25   26 1
    46   25   27 1
    47   25   31 1
    48   27   28 1
    49   27   73 1
    50   27   74 1
    51   28   29 1
    52   28   75 1
    53   28   76 1
    54   29   30 1
    55   30   77 1
    56   30   78 1
    57   30   79 1
    58   31   32 2
    59   31   33 am
    60   33   34 1
    61   33   80 1
    62   34   35 1
    63   34   36 1
    64   34   40 1
    65   36   37 1
    66   36   81 1
    67   36   82 1
    68   37   38 2
    69   37   39 1
    70   40   41 2
    71   40   42 am
    72   42   43 1
    73   42   83 1
    74   43   44 1
    75   43   45 1
    76   43   52 1
    77   45   46 1
    78   45   84 1
    79   45   85 1
    80   46   51 ar
    81   46   47 ar
    82   47   48 ar
    83   47   86 1
    84   48   49 ar
    85   48   87 1
    86   49   50 ar
    87   49   88 1
    88   50   51 ar
    89   50   89 1
    90   51   90 1
    91   52   53 2
    92   52   54 am
    93   54   91 1
    94   54   92 1
@<TRIPOS>MOLECULE
ZINC04534208
   92    94     0     0     0
SMALL
USER_CHARGES

@<TRIPOS>ATOM
      1 C1          0.3732    1.9587    0.7695 C.3       1 <0>        -0.1844
      2 C2          0.3144    0.4299    0.7776 C.3       1 <0>         0.1388
      3 C3          1.1462   -0.1064    1.9444 C.3       1 <0>        -0.1835
      4 C4         -1.1382   -0.0238    0.9359 C.3       1 <0>        -0.1401
      5 O1          0.8393   -0.0735   -0.4525 O.3       1 <0>        -0.3640
      6 C5          2.1160    0.2379   -0.7453 C.2       1 <0>         0.6583
      7 O2          2.7668    0.9184    0.0227 O.2       1 <0>        -0.5380
      8 N1          2.6722   -0.2053   -1.8901 N.am      1 <0>        -0.6943
      9 C6          4.0615    0.1335   -2.2087 C.3       1 <0>         0.1630
     10 H1          4.3331   -0.3098   -3.1667 H         1 <0>         0.1168
     11 C7          4.9828   -0.4109   -1.1152 C.3       1 <0>        -0.0590
     12 C8          4.9292   -1.9170   -1.1171 C.2       1 <0>        -0.1610
     13 C9          4.1431   -2.6889   -0.3503 C.2       1 <0>         0.0632
     14 N2          4.3704   -4.0091   -0.6295 N.pl3     1 <0>        -0.5959
     15 H2          3.9205   -4.7545   -0.2020 H         1 <0>         0.4141
     16 C10         5.3329   -4.1217   -1.6076 C.ar      1 <0>         0.0959
     17 C11         5.7207   -2.8160   -1.9605 C.ar      1 <0>        -0.1004
     18 C12         6.6907   -2.6195   -2.9449 C.ar      1 <0>        -0.0690
     19 C13         7.2569   -3.6981   -3.5642 C.ar      1 <0>        -0.1452
     20 C14         6.8750   -4.9879   -3.2227 C.ar      1 <0>        -0.0986
     21 C15         5.9261   -5.2049   -2.2473 C.ar      1 <0>        -0.1333
     22 C16         4.2075    1.6313   -2.2888 C.2       1 <0>         0.5015
     23 O3          3.3850    2.3499   -1.7615 O.2       1 <0>        -0.5031
     24 N3          5.2521    2.1723   -2.9466 N.am      1 <0>        -0.7061
     25 C17         5.3941    3.6283   -3.0245 C.3       1 <0>         0.1390
     26 H3          4.4075    4.0864   -3.0932 H         1 <0>         0.1157
     27 C18         6.1074    4.1390   -1.7710 C.3       1 <0>        -0.1062
     28 C19         5.2293    3.8830   -0.5445 C.3       1 <0>        -0.0647
     29 S1          6.0750    4.4885    0.9417 S.3       1 <0>        -0.2820
     30 C20         4.9180    4.1149    2.2879 C.3       1 <0>        -0.1122
     31 C21         6.2017    3.9896   -4.2444 C.2       1 <0>         0.5303
     32 O4          6.6178    3.1169   -4.9767 O.2       1 <0>        -0.5433
     33 N4          6.4617    5.2827   -4.5218 N.am      1 <0>        -0.6740
     34 C22         7.3356    5.6295   -5.6452 C.3       1 <0>         0.1607
     35 H4          7.1443    4.9516   -6.4771 H         1 <0>         0.1169
     36 C23         7.0549    7.0679   -6.0846 C.3       1 <0>        -0.1901
     37 C24         5.6573    7.1596   -6.6409 C.2       1 <0>         0.4931
     38 O5          4.9877    6.1498   -6.7763 O.co2     1 <0>        -0.6828
     39 O6          5.1963    8.2435   -6.9556 O.co2     1 <0>        -0.6976
     40 C25         8.7756    5.5067   -5.2181 C.2       1 <0>         0.5177
     41 O7          9.0453    5.1633   -4.0866 O.2       1 <0>        -0.5358
     42 N5          9.7637    5.7785   -6.0934 N.am      1 <0>        -0.7073
     43 C26        11.1635    5.6591   -5.6782 C.3       1 <0>         0.1367
     44 H5         11.2653    4.8300   -4.9779 H         1 <0>         0.1153
     45 C27        12.0394    5.4004   -6.9058 C.3       1 <0>        -0.0830
     46 C28        11.6851    4.0627   -7.5026 C.ar      1 <0>        -0.0845
     47 C29        12.3379    2.9211   -7.0767 C.ar      1 <0>        -0.1152
     48 C30        12.0129    1.6941   -7.6242 C.ar      1 <0>        -0.1189
     49 C31        11.0349    1.6087   -8.5973 C.ar      1 <0>        -0.1194
     50 C32        10.3814    2.7502   -9.0226 C.ar      1 <0>        -0.1119
     51 C33        10.7034    3.9766   -8.4721 C.ar      1 <0>        -0.1065
     52 C34        11.6001    6.9374   -5.0101 C.2       1 <0>         0.5030
     53 O8         10.8189    7.8576   -4.8924 O.2       1 <0>        -0.5189
     54 N6         12.8587    7.0581   -4.5434 N.am      1 <0>        -0.8572
     55 H6          1.4080    2.2819    0.6567 H         1 <0>         0.0954
     56 H7         -0.2194    2.3407   -0.0618 H         1 <0>         0.0577
     57 H8         -0.0272    2.3427    1.7078 H         1 <0>         0.0626
     58 H9          0.7459    0.2776    2.8827 H         1 <0>         0.0661
     59 H10         1.1043   -1.1955    1.9501 H         1 <0>         0.0539
     60 H11         2.1811    0.2168    1.8316 H         1 <0>         0.0894
     61 H12        -1.7308    0.3582    0.1046 H         1 <0>         0.0658
     62 H13        -1.1801   -1.1130    0.9416 H         1 <0>         0.0628
     63 H14        -1.5385    0.3601    1.8742 H         1 <0>         0.0773
     64 H15         2.1527   -0.7485   -2.5032 H         1 <0>         0.4083
     65 H16         6.0049   -0.0834   -1.3050 H         1 <0>         0.0863
     66 H17         4.6557   -0.0369   -0.1450 H         1 <0>         0.1018
     67 H18         3.4361   -2.3224    0.3792 H         1 <0>         0.1618
     68 H19         6.9923   -1.6186   -3.2164 H         1 <0>         0.1238
     69 H20         8.0074   -3.5456   -4.3258 H         1 <0>         0.1224
     70 H21         7.3310   -5.8303   -3.7215 H         1 <0>         0.1228
     71 H22         5.6347   -6.2124   -1.9894 H         1 <0>         0.1166
     72 H23         5.9100    1.5975   -3.3683 H         1 <0>         0.4086
     73 H24         7.0563    3.6154   -1.6542 H         1 <0>         0.0814
     74 H25         6.2924    5.2087   -1.8686 H         1 <0>         0.0859
     75 H26         4.2804    4.4066   -0.6614 H         1 <0>         0.0854
     76 H27         5.0444    2.8133   -0.4469 H         1 <0>         0.0929
     77 H28         5.3435    4.4464    3.2351 H         1 <0>         0.0939
     78 H29         3.9757    4.6336    2.1115 H         1 <0>         0.0728
     79 H30         4.7396    3.0403    2.3260 H         1 <0>         0.0753
     80 H31         6.0702    5.9837   -3.9775 H         1 <0>         0.4027
     81 H32         7.1492    7.7346   -5.2274 H         1 <0>         0.0711
     82 H33         7.7715    7.3597   -6.8524 H         1 <0>         0.0774
     83 H34         9.5480    6.0532   -6.9984 H         1 <0>         0.4038
     84 H35        11.8704    6.1840   -7.6443 H         1 <0>         0.0866
     85 H36        13.0885    5.3999   -6.6100 H         1 <0>         0.0913
     86 H37        13.1020    2.9878   -6.3164 H         1 <0>         0.1199
     87 H38        12.5234    0.8023   -7.2919 H         1 <0>         0.1198
     88 H39        10.7815    0.6501   -9.0256 H         1 <0>         0.1199
     89 H40         9.6175    2.6835   -9.7832 H         1 <0>         0.1236
     90 H41        10.1903    4.8679   -8.8016 H         1 <0>         0.1216
     91 H42        13.4835    6.3222   -4.6375 H         1 <0>         0.3984
     92 H43        13.1397    7.8809   -4.1133 H         1 <0>         0.4007
@<TRIPOS>BOND
     1    1    2 1
     2    1   55 1
     3    1   56 1
     4    1   57 1
     5    2    3 1
     6    2    4 1
     7    2    5 1
     8    3   58 1
     9    3   59 1
    10    3   60 1
    11    4   61 1
    12    4   62 1
    13    4   63 1
    14    5    6 1
    15    6    7 2
    16    6    8 am
    17    8    9 1
    18    8   64 1
    19    9   10 1
    20    9   11 1
    21    9   22 1
    22   11   12 1
    23   11   65 1
    24   11   66 1
    25   12   17 1
    26   12   13 2
    27   13   14 1
    28   13   67 1
    29   14   15 1
    30   14   16 1
    31   16   21 ar
    32   16   17 ar
    33   17   18 ar
    34   18   19 ar
    35   18   68 1
    36   19   20 ar
    37   19   69 1
    38   20   21 ar
    39   20   70 1
    40   21   71 1
    41   22   23 2
    42   22   24 am
    43   24   25 1
    44   24   72 1
    45   25   26 1
    46   25   27 1
    47   25   31 1
    48   27   28 1
    49   27   73 1
    50   27   74 1
    51   28   29 1
    52   28   75 1
    53   28   76 1
    54   29   30 1
    55   30   77 1
    56   30   78 1
    57   30   79 1
    58   31   32 2
    59   31   33 am
    60   33   34 1
    61   33   80 1
    62   34   35 1
    63   34   36 1
    64   34   40 1
    65   36   37 1
    66   36   81 1
    67   36   82 1
    68   37   38 2
    69   37   39 1
    70   40   41 2
    71   40   42 am
    72   42   43 1
    73   42   83 1
    74   43   44 1
    75   43   45 1
    76   43   52 1
    77   45   46 1
    78   45   84 1
    79   45   85 1
    80   46   51 ar
    81   46   47 ar
    82   47   48 ar
    83   47   86 1
    84   48   49 ar
    85   48   87 1
    86   49   50 ar
    87   49   88 1
    88   50   51 ar
    89   50   89 1
    90   51   90 1
    91   52   53 2
    92   52   54 am
    93   54   91 1
    94   54   92 1
@<TRIPOS>MOLECULE
ZINC04534209
   92    94     0     0     0
SMALL
USER_CHARGES

@<TRIPOS>ATOM
      1 C1         -0.2768    0.8340    0.3557 C.3       1 <0>        -0.1908
      2 C2         -0.1668   -0.6843    0.2022 C.3       1 <0>         0.1394
      3 C3          0.5980   -1.2633    1.3942 C.3       1 <0>        -0.1846
      4 C4         -1.5688   -1.2946    0.1507 C.3       1 <0>        -0.1401
      5 O1          0.5312   -0.9917   -1.0062 O.3       1 <0>        -0.3628
      6 C5          1.7886   -0.5243   -1.1216 C.2       1 <0>         0.6617
      7 O2          2.2799    0.1266   -0.2209 O.2       1 <0>        -0.5389
      8 N1          2.5024   -0.7786   -2.2362 N.am      1 <0>        -0.6944
      9 C6          3.8706   -0.2701   -2.3618 C.3       1 <0>         0.1637
     10 H1          4.2842   -0.5738   -3.3234 H         1 <0>         0.1153
     11 C7          3.8573    1.2572   -2.2717 C.3       1 <0>        -0.0624
     12 C8          3.1116    1.8236   -3.4525 C.2       1 <0>        -0.1639
     13 C9          3.6484    2.2463   -4.6079 C.2       1 <0>         0.0555
     14 N2          2.6625    2.6949   -5.4440 N.pl3     1 <0>        -0.5951
     15 H2          2.8063    3.0491   -6.3354 H         1 <0>         0.4152
     16 C10         1.4359    2.5686   -4.8314 C.ar      1 <0>         0.0937
     17 C11         1.6627    2.0113   -3.5594 C.ar      1 <0>        -0.0924
     18 C12         0.5864    1.7620   -2.7062 C.ar      1 <0>        -0.0726
     19 C13        -0.6844    2.0576   -3.1130 C.ar      1 <0>        -0.1479
     20 C14        -0.9138    2.6036   -4.3682 C.ar      1 <0>        -0.0989
     21 C15         0.1348    2.8664   -5.2226 C.ar      1 <0>        -0.1338
     22 C16         4.7191   -0.8315   -1.2501 C.2       1 <0>         0.5011
     23 O3          4.1940   -1.2699   -0.2486 O.2       1 <0>        -0.5034
     24 N3          6.0615   -0.8464   -1.3688 N.am      1 <0>        -0.7065
     25 C17         6.8864   -1.3922   -0.2881 C.3       1 <0>         0.1415
     26 H3          6.3686   -2.2317    0.1758 H         1 <0>         0.1135
     27 C18         7.1379   -0.3061    0.7598 C.3       1 <0>        -0.1115
     28 C19         5.8131    0.0831    1.4189 C.3       1 <0>        -0.0649
     29 S1          6.1113    1.3708    2.6613 S.3       1 <0>        -0.2741
     30 C20         4.4647    1.7156    3.3398 C.3       1 <0>        -0.1145
     31 C21         8.2033   -1.8627   -0.8499 C.2       1 <0>         0.5301
     32 O4          8.4304   -1.7530   -2.0362 O.2       1 <0>        -0.5445
     33 N4          9.1286   -2.4055   -0.0340 N.am      1 <0>        -0.6738
     34 C22        10.3645   -2.9583   -0.5935 C.3       1 <0>         0.1610
     35 H4         10.7041   -2.3293   -1.4164 H         1 <0>         0.1177
     36 C23        11.4412   -3.0022    0.4927 C.3       1 <0>        -0.1907
     37 C24        11.7980   -1.5968    0.9033 C.2       1 <0>         0.4937
     38 O5         11.3190   -0.6473    0.3071 O.co2     1 <0>        -0.6810
     39 O6         12.5658   -1.4094    1.8317 O.co2     1 <0>        -0.6970
     40 C25        10.1060   -4.3535   -1.1012 C.2       1 <0>         0.5174
     41 O7          8.9985   -4.8383   -1.0052 O.2       1 <0>        -0.5387
     42 N5         11.1056   -5.0625   -1.6620 N.am      1 <0>        -0.7070
     43 C26        10.8543   -6.4188   -2.1556 C.3       1 <0>         0.1363
     44 H5          9.8461   -6.4751   -2.5660 H         1 <0>         0.1146
     45 C27        11.8695   -6.7602   -3.2481 C.3       1 <0>        -0.0829
     46 C28        11.6527   -5.8575   -4.4352 C.ar      1 <0>        -0.0845
     47 C29        10.7826   -6.2350   -5.4408 C.ar      1 <0>        -0.1154
     48 C30        10.5837   -5.4069   -6.5297 C.ar      1 <0>        -0.1194
     49 C31        11.2546   -4.2011   -6.6127 C.ar      1 <0>        -0.1197
     50 C32        12.1240   -3.8232   -5.6066 C.ar      1 <0>        -0.1118
     51 C33        12.3197   -4.6493   -4.5156 C.ar      1 <0>        -0.1063
     52 C34        10.9898   -7.3999   -1.0197 C.2       1 <0>         0.5029
     53 O8         11.2687   -7.0050    0.0926 O.2       1 <0>        -0.5187
     54 N6         10.8009   -8.7160   -1.2399 N.am      1 <0>        -0.8571
     55 H6          0.7221    1.2688    0.3924 H         1 <0>         0.0900
     56 H7         -0.8216    1.2464   -0.4935 H         1 <0>         0.0610
     57 H8         -0.8092    1.0684    1.2774 H         1 <0>         0.0672
     58 H9          0.0656   -1.0289    2.3160 H         1 <0>         0.0627
     59 H10         0.6764   -2.3450    1.2850 H         1 <0>         0.0562
     60 H11         1.5968   -0.8285    1.4309 H         1 <0>         0.0955
     61 H12        -2.1137   -0.8822   -0.6985 H         1 <0>         0.0645
     62 H13        -1.4905   -2.3763    0.0414 H         1 <0>         0.0647
     63 H14        -2.1012   -1.0602    1.0725 H         1 <0>         0.0771
     64 H15         2.1102   -1.2983   -2.9553 H         1 <0>         0.4073
     65 H16         3.3631    1.5625   -1.3494 H         1 <0>         0.1033
     66 H17         4.8814    1.6303   -2.2758 H         1 <0>         0.0877
     67 H18         4.7025    2.2344   -4.8426 H         1 <0>         0.1723
     68 H19         0.7572    1.3366   -1.7283 H         1 <0>         0.1270
     69 H20        -1.5168    1.8645   -2.4525 H         1 <0>         0.1175
     70 H21        -1.9238    2.8312   -4.6756 H         1 <0>         0.1218
     71 H22        -0.0541    3.2902   -6.1978 H         1 <0>         0.1167
     72 H23         6.4815   -0.4958   -2.1698 H         1 <0>         0.4089
     73 H24         7.8235   -0.6845    1.5180 H         1 <0>         0.0885
     74 H25         7.5752    0.5687    0.2786 H         1 <0>         0.0851
     75 H26         5.1275    0.4615    0.6607 H         1 <0>         0.0920
     76 H27         5.3758   -0.7917    1.9000 H         1 <0>         0.0831
     77 H28         4.5415    2.4877    4.1053 H         1 <0>         0.0941
     78 H29         3.8074    2.0597    2.5413 H         1 <0>         0.0749
     79 H30         4.0557    0.8064    3.7806 H         1 <0>         0.0714
     80 H31         8.9763   -2.4300    0.9236 H         1 <0>         0.4028
     81 H32        11.0633   -3.5484    1.3570 H         1 <0>         0.0704
     82 H33        12.3280   -3.5038    0.1052 H         1 <0>         0.0770
     83 H34        11.9915   -4.6748   -1.7389 H         1 <0>         0.4042
     84 H35        12.8793   -6.6180   -2.8631 H         1 <0>         0.0871
     85 H36        11.7398   -7.7987   -3.5529 H         1 <0>         0.0913
     86 H37        10.2585   -7.1770   -5.3760 H         1 <0>         0.1198
     87 H38         9.9045   -5.7021   -7.3157 H         1 <0>         0.1196
     88 H39        11.0998   -3.5544   -7.4637 H         1 <0>         0.1198
     89 H40        12.6484   -2.8813   -5.6716 H         1 <0>         0.1240
     90 H41        12.9961   -4.3524   -3.7278 H         1 <0>         0.1221
     91 H42        10.5777   -9.0318   -2.1295 H         1 <0>         0.3984
     92 H43        10.8881   -9.3475   -0.5087 H         1 <0>         0.4008
@<TRIPOS>BOND
     1    1    2 1
     2    1   55 1
     3    1   56 1
     4    1   57 1
     5    2    3 1
     6    2    4 1
     7    2    5 1
     8    3   58 1
     9    3   59 1
    10    3   60 1
    11    4   61 1
    12    4   62 1
    13    4   63 1
    14    5    6 1
    15    6    7 2
    16    6    8 am
    17    8    9 1
    18    8   64 1
    19    9   10 1
    20    9   11 1
    21    9   22 1
    22   11   12 1
    23   11   65 1
    24   11   66 1
    25   12   17 1
    26   12   13 2
    27   13   14 1
    28   13   67 1
    29   14   15 1
    30   14   16 1
    31   16   21 ar
    32   16   17 ar
    33   17   18 ar
    34   18   19 ar
    35   18   68 1
    36   19   20 ar
    37   19   69 1
    38   20   21 ar
    39   20   70 1
    40   21   71 1
    41   22   23 2
    42   22   24 am
    43   24   25 1
    44   24   72 1
    45   25   26 1
    46   25   27 1
    47   25   31 1
    48   27   28 1
    49   27   73 1
    50   27   74 1
    51   28   29 1
    52   28   75 1
    53   28   76 1
    54   29   30 1
    55   30   77 1
    56   30   78 1
    57   30   79 1
    58   31   32 2
    59   31   33 am
    60   33   34 1
    61   33   80 1
    62   34   35 1
    63   34   36 1
    64   34   40 1
    65   36   37 1
    66   36   81 1
    67   36   82 1
    68   37   38 2
    69   37   39 1
    70   40   41 2
    71   40   42 am
    72   42   43 1
    73   42   83 1
    74   43   44 1
    75   43   45 1
    76   43   52 1
    77   45   46 1
    78   45   84 1
    79   45   85 1
    80   46   51 ar
    81   46   47 ar
    82   47   48 ar
    83   47   86 1
    84   48   49 ar
    85   48   87 1
    86   49   50 ar
    87   49   88 1
    88   50   51 ar
    89   50   89 1
    90   51   90 1
    91   52   53 2
    92   52   54 am
    93   54   91 1
    94   54   92 1
@<TRIPOS>MOLECULE
ZINC04534210
   92    94     0     0     0
SMALL
USER_CHARGES

@<TRIPOS>ATOM
      1 C1          0.1330    1.7815    0.6733 C.3       1 <0>        -0.1846
      2 C2          0.0802    0.2537    0.6116 C.3       1 <0>         0.1386
      3 C3          0.9089   -0.3320    1.7566 C.3       1 <0>        -0.1846
      4 C4         -1.3713   -0.2121    0.7424 C.3       1 <0>        -0.1396
      5 O1          0.6124   -0.1913   -0.6378 O.3       1 <0>        -0.3649
      6 C5          1.8892    0.1378   -0.9102 C.2       1 <0>         0.6556
      7 O2          2.5339    0.7851   -0.1091 O.2       1 <0>        -0.5338
      8 N1          2.4522   -0.2507   -2.0715 N.am      1 <0>        -0.6952
      9 C6          3.8414    0.1074   -2.3679 C.3       1 <0>         0.1636
     10 H1          4.1190   -0.2909   -3.3438 H         1 <0>         0.1160
     11 C7          4.7601   -0.4828   -1.2961 C.3       1 <0>        -0.0602
     12 C8          4.7124   -1.9874   -1.3668 C.2       1 <0>        -0.1601
     13 C9          3.9259   -2.7964   -0.6395 C.2       1 <0>         0.0618
     14 N2          4.1596   -4.1016   -0.9774 N.pl3     1 <0>        -0.5961
     15 H2          3.7107   -4.8674   -0.5863 H         1 <0>         0.4139
     16 C10         5.1268   -4.1660   -1.9552 C.ar      1 <0>         0.0956
     17 C11         5.5110   -2.8442   -2.2466 C.ar      1 <0>        -0.1006
     18 C12         6.4846   -2.5995   -3.2166 C.ar      1 <0>        -0.0686
     19 C13         7.0578   -3.6467   -3.8817 C.ar      1 <0>        -0.1453
     20 C14         6.6794   -4.9522   -3.6009 C.ar      1 <0>        -0.0985
     21 C15         5.7271   -5.2168   -2.6408 C.ar      1 <0>        -0.1339
     22 C16         3.9820    1.6078   -2.3792 C.2       1 <0>         0.5020
     23 O3          3.1544    2.2986   -1.8235 O.2       1 <0>        -0.5050
     24 N3          5.0274    2.1820   -3.0069 N.am      1 <0>        -0.7058
     25 C17         5.1640    3.6406   -3.0179 C.3       1 <0>         0.1410
     26 H3          4.8027    4.0465   -2.0730 H         1 <0>         0.1150
     27 C18         4.3417    4.2212   -4.1701 C.3       1 <0>        -0.1112
     28 C19         2.8557    3.9557   -3.9205 C.3       1 <0>        -0.0653
     29 S1          1.8807    4.6441   -5.2866 S.3       1 <0>        -0.2691
     30 C20         0.1662    4.2505   -4.8440 C.3       1 <0>        -0.1180
     31 C21         6.6141    4.0079   -3.2006 C.2       1 <0>         0.5300
     32 O4          7.4510    3.1371   -3.3109 O.2       1 <0>        -0.5423
     33 N4          6.9809    5.3041   -3.2416 N.am      1 <0>        -0.6741
     34 C22         8.3997    5.6620   -3.3136 C.3       1 <0>         0.1611
     35 H4          8.9203    4.9553   -3.9598 H         1 <0>         0.1179
     36 C23         8.5411    7.0745   -3.8842 C.3       1 <0>        -0.1906
     37 C24         8.0663    7.0884   -5.3144 C.2       1 <0>         0.4937
     38 O5          7.7492    6.0461   -5.8616 O.co2     1 <0>        -0.6810
     39 O6          7.9993    8.1420   -5.9242 O.co2     1 <0>        -0.6974
     40 C25         9.0001    5.6158   -1.9321 C.2       1 <0>         0.5171
     41 O7          8.3108    5.3137   -0.9811 O.2       1 <0>        -0.5376
     42 N5         10.3032    5.9102   -1.7535 N.am      1 <0>        -0.7071
     43 C26        10.8868    5.8653   -0.4106 C.3       1 <0>         0.1362
     44 H5         10.4245    5.0597    0.1598 H         1 <0>         0.1149
     45 C27        12.3926    5.6159   -0.5170 C.3       1 <0>        -0.0827
     46 C28        12.6351    4.2488   -1.1030 C.ar      1 <0>        -0.0849
     47 C29        12.7403    3.1493   -0.2718 C.ar      1 <0>        -0.1153
     48 C30        12.9628    1.8953   -0.8093 C.ar      1 <0>        -0.1190
     49 C31        13.0796    1.7408   -2.1781 C.ar      1 <0>        -0.1191
     50 C32        12.9735    2.8402   -3.0093 C.ar      1 <0>        -0.1117
     51 C33        12.7467    4.0935   -2.4721 C.ar      1 <0>        -0.1064
     52 C34        10.6433    7.1787    0.2872 C.2       1 <0>         0.5031
     53 O8         10.0415    8.0649   -0.2814 O.2       1 <0>        -0.5190
     54 N6         11.0944    7.3684    1.5430 N.am      1 <0>        -0.8572
     55 H6          1.1671    2.1133    0.5801 H         1 <0>         0.0964
     56 H7         -0.4574    2.1987   -0.1424 H         1 <0>         0.0559
     57 H8         -0.2729    2.1209    1.6262 H         1 <0>         0.0633
     58 H9          0.5030    0.0074    2.7095 H         1 <0>         0.0667
     59 H10         0.8713   -1.4205    1.7126 H         1 <0>         0.0542
     60 H11         1.9430   -0.0002    1.6633 H         1 <0>         0.0899
     61 H12        -1.9618    0.2051   -0.0733 H         1 <0>         0.0649
     62 H13        -1.4090   -1.3006    0.6984 H         1 <0>         0.0630
     63 H14        -1.7773    0.1273    1.6954 H         1 <0>         0.0775
     64 H15         1.9375   -0.7674   -2.7110 H         1 <0>         0.4073
     65 H16         5.7818   -0.1433   -1.4662 H         1 <0>         0.0887
     66 H17         4.4272   -0.1546   -0.3115 H         1 <0>         0.1019
     67 H18         3.2143   -2.4660    0.1027 H         1 <0>         0.1616
     68 H19         6.7835   -1.5862   -3.4409 H         1 <0>         0.1248
     69 H20         7.8110   -3.4569   -4.6321 H         1 <0>         0.1229
     70 H21         7.1409   -5.7692   -4.1355 H         1 <0>         0.1228
     71 H22         5.4385   -6.2361   -2.4303 H         1 <0>         0.1164
     72 H23         5.6893    1.6295   -3.4513 H         1 <0>         0.4094
     73 H24         4.5132    5.2957   -4.2335 H         1 <0>         0.0905
     74 H25         4.6430    3.7493   -5.1053 H         1 <0>         0.0860
     75 H26         2.6842    2.8811   -3.8572 H         1 <0>         0.0820
     76 H27         2.5544    4.4275   -2.9853 H         1 <0>         0.0857
     77 H28        -0.5043    4.6292   -5.6155 H         1 <0>         0.0974
     78 H29         0.0512    3.1698   -4.7612 H         1 <0>         0.0708
     79 H30        -0.0786    4.7162   -3.8893 H         1 <0>         0.0727
     80 H31         6.3055    6.0001   -3.2234 H         1 <0>         0.4023
     81 H32         7.9393    7.7664   -3.2948 H         1 <0>         0.0703
     82 H33         9.5870    7.3790   -3.8456 H         1 <0>         0.0770
     83 H34        10.8545    6.1518   -2.5141 H         1 <0>         0.4040
     84 H35        12.8415    6.3721   -1.1610 H         1 <0>         0.0869
     85 H36        12.8410    5.6707    0.4750 H         1 <0>         0.0911
     86 H37        12.6491    3.2700    0.7975 H         1 <0>         0.1196
     87 H38        13.0457    1.0363   -0.1599 H         1 <0>         0.1196
     88 H39        13.2541    0.7612   -2.5980 H         1 <0>         0.1200
     89 H40        13.0650    2.7195   -4.0786 H         1 <0>         0.1239
     90 H41        12.6601    4.9519   -3.1217 H         1 <0>         0.1218
     91 H42        11.5757    6.6596    1.9977 H         1 <0>         0.3985
     92 H43        10.9376    8.2138    1.9921 H         1 <0>         0.4006
@<TRIPOS>BOND
     1    1    2 1
     2    1   55 1
     3    1   56 1
     4    1   57 1
     5    2    3 1
     6    2    4 1
     7    2    5 1
     8    3   58 1
     9    3   59 1
    10    3   60 1
    11    4   61 1
    12    4   62 1
    13    4   63 1
    14    5    6 1
    15    6    7 2
    16    6    8 am
    17    8    9 1
    18    8   64 1
    19    9   10 1
    20    9   11 1
    21    9   22 1
    22   11   12 1
    23   11   65 1
    24   11   66 1
    25   12   17 1
    26   12   13 2
    27   13   14 1
    28   13   67 1
    29   14   15 1
    30   14   16 1
    31   16   21 ar
    32   16   17 ar
    33   17   18 ar
    34   18   19 ar
    35   18   68 1
    36   19   20 ar
    37   19   69 1
    38   20   21 ar
    39   20   70 1
    40   21   71 1
    41   22   23 2
    42   22   24 am
    43   24   25 1
    44   24   72 1
    45   25   26 1
    46   25   27 1
    47   25   31 1
    48   27   28 1
    49   27   73 1
    50   27   74 1
    51   28   29 1
    52   28   75 1
    53   28   76 1
    54   29   30 1
    55   30   77 1
    56   30   78 1
    57   30   79 1
    58   31   32 2
    59   31   33 am
    60   33   34 1
    61   33   80 1
    62   34   35 1
    63   34   36 1
    64   34   40 1
    65   36   37 1
    66   36   81 1
    67   36   82 1
    68   37   38 2
    69   37   39 1
    70   40   41 2
    71   40   42 am
    72   42   43 1
    73   42   83 1
    74   43   44 1
    75   43   45 1
    76   43   52 1
    77   45   46 1
    78   45   84 1
    79   45   85 1
    80   46   51 ar
    81   46   47 ar
    82   47   48 ar
    83   47   86 1
    84   48   49 ar
    85   48   87 1
    86   49   50 ar
    87   49   88 1
    88   50   51 ar
    89   50   89 1
    90   51   90 1
    91   52   53 2
    92   52   54 am
    93   54   91 1
    94   54   92 1
@<TRIPOS>MOLECULE
ZINC04654954
   50    54     0     0     0
SMALL
USER_CHARGES
6-(2-fluorophenyl)-4-(1H-indol-3-ylmethyl)-2-methyl-2,5-diazabicyclo[5.4.0]undeca-5,8,10,12-tetraen-3-one
@<TRIPOS>ATOM
      1 C1          3.2412    2.5938   -0.8573 C.3       1 <0>         0.0592
      2 N1          2.3209    1.8325   -0.0090 N.am      1 <0>        -0.5521
      3 C2          1.0196    2.2977    0.0999 C.ar      1 <0>         0.1822
      4 C3          0.8386    3.6784    0.2057 C.ar      1 <0>        -0.1443
      5 C4         -0.4254    4.2148    0.3130 C.ar      1 <0>        -0.0753
      6 C5         -1.5344    3.3848    0.3173 C.ar      1 <0>        -0.1296
      7 C6         -1.3749    2.0221    0.2206 C.ar      1 <0>        -0.0678
      8 C7         -0.0940    1.4605    0.1057 C.ar      1 <0>        -0.1237
      9 C8          0.0021   -0.0041    0.0020 C.2       1 <0>         0.2603
     10 N2          0.8894   -0.7265    0.5896 N.2       1 <0>        -0.4608
     11 C9          1.9244   -0.1387    1.4393 C.3       1 <0>         0.0635
     12 H1          2.5255   -0.9318    1.8840 H         1 <0>         0.1364
     13 C10         2.8001    0.7485    0.5972 C.2       1 <0>         0.5121
     14 O1          3.9730    0.4686    0.4668 O.2       1 <0>        -0.5128
     15 C11         1.2692    0.6897    2.5462 C.3       1 <0>        -0.0656
     16 C12         0.4791   -0.2186    3.4527 C.2       1 <0>        -0.1637
     17 C13        -0.8345   -0.4825    3.3707 C.2       1 <0>         0.0646
     18 N3         -1.1979   -1.3545    4.3607 N.pl3     1 <0>        -0.5927
     19 H2         -2.0954   -1.6941    4.5023 H         1 <0>         0.4165
     20 C14        -0.1009   -1.6735    5.1293 C.ar      1 <0>         0.0986
     21 C15         0.9977   -0.9760    4.5943 C.ar      1 <0>        -0.0982
     22 C16         2.2585   -1.1089    5.1784 C.ar      1 <0>        -0.0719
     23 C17         2.4194   -1.9171    6.2686 C.ar      1 <0>        -0.1434
     24 C18         1.3388   -2.6069    6.8004 C.ar      1 <0>        -0.0972
     25 C19         0.0856   -2.4902    6.2396 C.ar      1 <0>        -0.1301
     26 C20        -0.9969   -0.6980   -0.8420 C.ar      1 <0>        -0.0858
     27 C21        -1.9166   -1.5731   -0.2632 C.ar      1 <0>        -0.0593
     28 C22        -2.8452   -2.2163   -1.0544 C.ar      1 <0>        -0.1301
     29 C23        -2.8677   -1.9959   -2.4208 C.ar      1 <0>        -0.0780
     30 C24        -1.9607   -1.1303   -3.0028 C.ar      1 <0>        -0.1533
     31 C25        -1.0268   -0.4752   -2.2208 C.ar      1 <0>         0.1254
     32 F1         -0.1434    0.3744   -2.7891 F         1 <0>        -0.1316
     33 H3          4.2214    2.1170   -0.8494 H         1 <0>         0.1007
     34 H4          2.8579    2.6196   -1.8774 H         1 <0>         0.0719
     35 H5          3.3291    3.6113   -0.4763 H         1 <0>         0.0729
     36 H6          1.6984    4.3320    0.2036 H         1 <0>         0.1350
     37 H7         -0.5521    5.2842    0.3944 H         1 <0>         0.1348
     38 H8         -2.5246    3.8077    0.4012 H         1 <0>         0.1338
     39 H9         -2.2428    1.3793    0.2287 H         1 <0>         0.1324
     40 H10         2.0407    1.1984    3.1243 H         1 <0>         0.0848
     41 H11         0.6025    1.4282    2.1010 H         1 <0>         0.0879
     42 H12        -1.5047   -0.0699    2.6312 H         1 <0>         0.1621
     43 H13         3.1038   -0.5747    4.7705 H         1 <0>         0.1198
     44 H14         3.3950   -2.0196    6.7202 H         1 <0>         0.1228
     45 H15         1.4816   -3.2418    7.6623 H         1 <0>         0.1255
     46 H16        -0.7489   -3.0313    6.6605 H         1 <0>         0.1198
     47 H17        -1.9012   -1.7468    0.8026 H         1 <0>         0.1330
     48 H18        -3.5572   -2.8937   -0.6066 H         1 <0>         0.1344
     49 H19        -3.5975   -2.5023   -3.0350 H         1 <0>         0.1366
     50 H20        -1.9839   -0.9621   -4.0694 H         1 <0>         0.1404
@<TRIPOS>BOND
     1    1    2 1
     2    1   33 1
     3    1   34 1
     4    1   35 1
     5    2   13 am
     6    2    3 1
     7    3    8 ar
     8    3    4 ar
     9    4    5 ar
    10    4   36 1
    11    5    6 ar
    12    5   37 1
    13    6    7 ar
    14    6   38 1
    15    7    8 ar
    16    7   39 1
    17    8    9 1
    18    9   10 2
    19    9   26 1
    20   10   11 1
    21   11   12 1
    22   11   13 1
    23   11   15 1
    24   13   14 2
    25   15   16 1
    26   15   40 1
    27   15   41 1
    28   16   21 1
    29   16   17 2
    30   17   18 1
    31   17   42 1
    32   18   19 1
    33   18   20 1
    34   20   25 ar
    35   20   21 ar
    36   21   22 ar
    37   22   23 ar
    38   22   43 1
    39   23   24 ar
    40   23   44 1
    41   24   25 ar
    42   24   45 1
    43   25   46 1
    44   26   31 ar
    45   26   27 ar
    46   27   28 ar
    47   27   47 1
    48   28   29 ar
    49   28   48 1
    50   29   30 ar
    51   29   49 1
    52   30   31 ar
    53   30   50 1
    54   31   32 1
@<TRIPOS>MOLECULE
ZINC28235260
   50    54     0     0     0
SMALL
USER_CHARGES
(3S)-5-(2-fluorophenyl)-3-(1H-indol-3-ylmethyl)-1-methyl-3H-1,4-benzodiazepin-2-one
@<TRIPOS>ATOM
      1 C1          7.7527    2.6462   -0.8618 C.3       1 <0>         0.0678
      2 N1          6.2948    2.7259   -0.7416 N.am      1 <0>        -0.5527
      3 C2          5.6755    1.8371    0.1234 C.ar      1 <0>         0.1791
      4 C3          6.3067    1.5844    1.3433 C.ar      1 <0>        -0.1451
      5 C4          5.7525    0.7114    2.2531 C.ar      1 <0>        -0.0755
      6 C5          4.5580    0.0723    1.9644 C.ar      1 <0>        -0.1284
      7 C6          3.9219    0.3095    0.7682 C.ar      1 <0>        -0.0802
      8 C7          4.4730    1.1971   -0.1687 C.ar      1 <0>        -0.1220
      9 C8          3.7363    1.4070   -1.4250 C.2       1 <0>         0.2544
     10 N2          3.5880    2.5443   -2.0120 N.2       1 <0>        -0.4592
     11 C9          4.1694    3.7715   -1.4692 C.3       1 <0>         0.0624
     12 H1          3.8601    4.6051   -2.1169 H         1 <0>         0.1352
     13 C10         5.6685    3.6458   -1.4718 C.2       1 <0>         0.5119
     14 O1          6.3234    4.4026   -2.1569 O.2       1 <0>        -0.5120
     15 C11         3.6754    3.9825   -0.0366 C.3       1 <0>        -0.0661
     16 C12         2.1880    4.2247   -0.0486 C.2       1 <0>        -0.1740
     17 C13         1.5734    5.4180   -0.0578 C.2       1 <0>         0.0554
     18 N3          0.2162    5.2438   -0.0678 N.pl3     1 <0>        -0.6055
     19 H2         -0.4506    6.1187   -0.0762 H         1 <0>         0.4422
     20 C14        -0.0833    3.8999   -0.0652 C.ar      1 <0>         0.1081
     21 C15         1.1387    3.2025   -0.0531 C.ar      1 <0>        -0.0896
     22 C16         1.1440    1.8066   -0.0478 C.ar      1 <0>        -0.0782
     23 C17        -0.0398    1.1237   -0.0546 C.ar      1 <0>        -0.1475
     24 C18        -1.2477    1.8069   -0.0723 C.ar      1 <0>        -0.0986
     25 C19        -1.2760    3.1845   -0.0719 C.ar      1 <0>        -0.1315
     26 C20         3.1165    0.2228   -2.0617 C.ar      1 <0>        -0.1023
     27 C21         3.3503   -1.0526   -1.5467 C.ar      1 <0>        -0.0775
     28 C22         2.7698   -2.1520   -2.1437 C.ar      1 <0>        -0.1374
     29 C23         1.9564   -1.9937   -3.2525 C.ar      1 <0>        -0.0709
     30 C24         1.7188   -0.7339   -3.7693 C.ar      1 <0>        -0.1655
     31 C25         2.2902    0.3778   -3.1774 C.ar      1 <0>         0.1548
     32 F1          2.0541    1.6095   -3.6797 F         1 <0>        -0.1091
     33 H3          8.1315    1.8479   -0.2066 H         1 <0>         0.0874
     34 H4          8.1982    3.6070   -0.5644 H         1 <0>         0.0758
     35 H5          8.0230    2.4239   -1.9046 H         1 <0>         0.0737
     36 H6          7.2384    2.0786    1.5756 H         1 <0>         0.1353
     37 H7          6.2504    0.5246    3.1932 H         1 <0>         0.1355
     38 H8          4.1261   -0.6128    2.6788 H         1 <0>         0.1360
     39 H9          2.9908   -0.1916    0.5480 H         1 <0>         0.1409
     40 H10         3.8963    3.0871    0.5630 H         1 <0>         0.0883
     41 H11         4.1851    4.8528    0.4026 H         1 <0>         0.0823
     42 H12         2.0757    6.3741   -0.0571 H         1 <0>         0.1676
     43 H13         2.0802    1.2682   -0.0382 H         1 <0>         0.1239
     44 H14        -0.0352    0.0437   -0.0505 H         1 <0>         0.1183
     45 H15        -2.1749    1.2532   -0.0823 H         1 <0>         0.1231
     46 H16        -2.2211    3.7070   -0.0809 H         1 <0>         0.1177
     47 H17         3.9846   -1.1788   -0.6817 H         1 <0>         0.1432
     48 H18         2.9507   -3.1393   -1.7452 H         1 <0>         0.1347
     49 H19         1.5050   -2.8586   -3.7157 H         1 <0>         0.1353
     50 H20         1.0826   -0.6172   -4.6341 H         1 <0>         0.1387
@<TRIPOS>BOND
     1    1    2 1
     2    1   33 1
     3    1   34 1
     4    1   35 1
     5    2   13 am
     6    2    3 1
     7    3    8 ar
     8    3    4 ar
     9    4    5 ar
    10    4   36 1
    11    5    6 ar
    12    5   37 1
    13    6    7 ar
    14    6   38 1
    15    7    8 ar
    16    7   39 1
    17    8    9 1
    18    9   10 2
    19    9   26 1
    20   10   11 1
    21   11   12 1
    22   11   13 1
    23   11   15 1
    24   13   14 2
    25   15   16 1
    26   15   40 1
    27   15   41 1
    28   16   21 1
    29   16   17 2
    30   17   18 1
    31   17   42 1
    32   18   19 1
    33   18   20 1
    34   20   25 ar
    35   20   21 ar
    36   21   22 ar
    37   22   23 ar
    38   22   43 1
    39   23   24 ar
    40   23   44 1
    41   24   25 ar
    42   24   45 1
    43   25   46 1
    44   26   31 ar
    45   26   27 ar
    46   27   28 ar
    47   27   47 1
    48   28   29 ar
    49   28   48 1
    50   29   30 ar
    51   29   49 1
    52   30   31 ar
    53   30   50 1
    54   31   32 1
@<TRIPOS>MOLECULE
ZINC03782183
   61    61     0     0     0
SMALL
USER_CHARGES

@<TRIPOS>ATOM
      1 C1         -0.6935    1.4906   -2.9588 C.3       1 <0>        -0.1527
      2 C2         -0.3915    0.1106   -2.3713 C.3       1 <0>        -0.1240
      3 C3         -1.7009   -0.5679   -1.9637 C.3       1 <0>        -0.1163
      4 C4         -1.3988   -1.9479   -1.3761 C.3       1 <0>        -0.1337
      5 C5         -2.7082   -2.6263   -0.9685 C.3       1 <0>         0.1156
      6 N1         -2.4303   -3.9913   -0.5147 N.am      1 <0>        -0.6078
      7 C6         -2.2462   -4.2655    0.9125 C.3       1 <0>         0.1009
      8 C7         -3.6128   -4.4230    1.5821 C.3       1 <0>        -0.1440
      9 C8         -3.4210   -4.8521    3.0381 C.3       1 <0>        -0.1162
     10 C9         -4.7877   -5.0096    3.7077 C.3       1 <0>        -0.1257
     11 C10        -4.5958   -5.4386    5.1637 C.3       1 <0>        -0.1516
     12 C11        -2.3441   -4.9948   -1.4103 C.2       1 <0>         0.5214
     13 O1         -2.6163   -4.7933   -2.5749 O.2       1 <0>        -0.5382
     14 C12        -1.9094   -6.3672   -0.9647 C.3       1 <0>         0.1242
     15 H1         -1.2137   -6.2750   -0.1306 H         1 <0>         0.1088
     16 C13        -3.1335   -7.1709   -0.5214 C.3       1 <0>        -0.0994
     17 C14        -2.6868   -8.5462   -0.0213 C.3       1 <0>        -0.1679
     18 C15        -3.8925   -9.3379    0.4153 C.2       1 <0>         0.4887
     19 O2         -5.0058   -8.8476    0.3341 O.co2     1 <0>        -0.7020
     20 O3         -3.7546  -10.4687    0.8498 O.co2     1 <0>        -0.7050
     21 N2         -1.2498   -7.0556   -2.0769 N.am      1 <0>        -0.7050
     22 C16        -0.3567   -8.0341   -1.8292 C.2       1 <0>         0.5592
     23 O4         -0.0985   -8.3454   -0.6829 O.2       1 <0>        -0.5107
     24 C17         0.3088   -8.7286   -2.9513 C.ar      1 <0>        -0.1081
     25 C18         0.0184   -8.3693   -4.2689 C.ar      1 <0>        -0.0699
     26 C19         0.6420   -9.0205   -5.3121 C.ar      1 <0>        -0.1047
     27 C20         1.5549  -10.0300   -5.0556 C.ar      1 <0>        -0.0117
     28 C21         1.8477  -10.3916   -3.7501 C.ar      1 <0>        -0.0391
     29 C22         1.2342   -9.7424   -2.6977 C.ar      1 <0>        -0.0380
     30 Cl1         2.9932  -11.6580   -3.4377 Cl        1 <0>        -0.0419
     31 Cl2         2.3351  -10.8460   -6.3744 Cl        1 <0>        -0.0456
     32 H2          0.2393    1.9740   -3.2492 H         1 <0>         0.0520
     33 H3         -1.3336    1.3807   -3.8342 H         1 <0>         0.0537
     34 H4         -1.2014    2.1004   -2.2116 H         1 <0>         0.0529
     35 H5          0.1164   -0.4992   -3.1185 H         1 <0>         0.0606
     36 H6          0.2486    0.2206   -1.4959 H         1 <0>         0.0598
     37 H7         -2.2088    0.0419   -1.2165 H         1 <0>         0.0620
     38 H8         -2.3410   -0.6778   -2.8390 H         1 <0>         0.0642
     39 H9         -0.8909   -2.5577   -2.1233 H         1 <0>         0.0654
     40 H10        -0.7588   -1.8379   -0.5007 H         1 <0>         0.0622
     41 H11        -3.1734   -2.0623   -0.1601 H         1 <0>         0.0780
     42 H12        -3.3827   -2.6582   -1.8242 H         1 <0>         0.0826
     43 H13        -1.6735   -5.1848    1.0350 H         1 <0>         0.0882
     44 H14        -1.7082   -3.4380    1.3750 H         1 <0>         0.0781
     45 H15        -4.1446   -3.4720    1.5506 H         1 <0>         0.0637
     46 H16        -4.1914   -5.1805    1.0533 H         1 <0>         0.0799
     47 H17        -2.8892   -5.8030    3.0696 H         1 <0>         0.0687
     48 H18        -2.8425   -4.0946    3.5669 H         1 <0>         0.0589
     49 H19        -5.3194   -4.0586    3.6762 H         1 <0>         0.0564
     50 H20        -5.3662   -5.7670    3.1789 H         1 <0>         0.0696
     51 H21        -5.5695   -5.5508    5.6407 H         1 <0>         0.0515
     52 H22        -4.0640   -6.3896    5.1952 H         1 <0>         0.0568
     53 H23        -4.0173   -4.6812    5.6925 H         1 <0>         0.0488
     54 H24        -3.6448   -6.6407    0.2821 H         1 <0>         0.0801
     55 H25        -3.8124   -7.2940   -1.3652 H         1 <0>         0.0685
     56 H26        -2.1755   -9.0764   -0.8248 H         1 <0>         0.0554
     57 H27        -2.0079   -8.4231    0.8225 H         1 <0>         0.0632
     58 H28        -1.4558   -6.8073   -2.9917 H         1 <0>         0.4052
     59 H29        -0.6938   -7.5828   -4.4707 H         1 <0>         0.1447
     60 H30         0.4178   -8.7430   -6.3315 H         1 <0>         0.1498
     61 H31         1.4660  -10.0215   -1.6805 H         1 <0>         0.1594
@<TRIPOS>BOND
     1    1    2 1
     2    1   32 1
     3    1   33 1
     4    1   34 1
     5    2    3 1
     6    2   35 1
     7    2   36 1
     8    3    4 1
     9    3   37 1
    10    3   38 1
    11    4    5 1
    12    4   39 1
    13    4   40 1
    14    5    6 1
    15    5   41 1
    16    5   42 1
    17    6    7 1
    18    6   12 am
    19    7    8 1
    20    7   43 1
    21    7   44 1
    22    8    9 1
    23    8   45 1
    24    8   46 1
    25    9   10 1
    26    9   47 1
    27    9   48 1
    28   10   11 1
    29   10   49 1
    30   10   50 1
    31   11   51 1
    32   11   52 1
    33   11   53 1
    34   12   13 2
    35   12   14 1
    36   14   15 1
    37   14   16 1
    38   14   21 1
    39   16   17 1
    40   16   54 1
    41   16   55 1
    42   17   18 1
    43   17   56 1
    44   17   57 1
    45   18   19 2
    46   18   20 1
    47   21   22 am
    48   21   58 1
    49   22   23 2
    50   22   24 1
    51   24   29 ar
    52   24   25 ar
    53   25   26 ar
    54   25   59 1
    55   26   27 ar
    56   26   60 1
    57   27   28 ar
    58   27   31 1
    59   28   29 ar
    60   28   30 1
    61   29   61 1
@<TRIPOS>MOLECULE
ZINC03789437
   61    61     0     0     0
SMALL
USER_CHARGES

@<TRIPOS>ATOM
      1 C1         -1.8137    1.7470    1.1751 C.3       1 <0>        -0.1519
      2 C2         -1.4478    0.2648    1.0753 C.3       1 <0>        -0.1258
      3 C3         -2.6894   -0.5423    0.6905 C.3       1 <0>        -0.1145
      4 C4         -2.3235   -2.0245    0.5907 C.3       1 <0>        -0.1378
      5 C5         -3.5650   -2.8315    0.2058 C.3       1 <0>         0.1183
      6 N1         -3.2147   -4.2508    0.1103 N.am      1 <0>        -0.6059
      7 C6         -3.2986   -5.1074    1.2957 C.3       1 <0>         0.0910
      8 C7         -4.7364   -5.6016    1.4672 C.3       1 <0>        -0.1356
      9 C8         -4.8240   -6.4962    2.7052 C.3       1 <0>        -0.1214
     10 C9         -6.2619   -6.9903    2.8766 C.3       1 <0>        -0.1223
     11 C10        -6.3495   -7.8850    4.1147 C.3       1 <0>        -0.1537
     12 C11        -2.8151   -4.7684   -1.0683 C.2       1 <0>         0.5216
     13 O1         -2.6596   -4.0429   -2.0276 O.2       1 <0>        -0.5408
     14 C12        -2.5617   -6.2486   -1.1939 C.3       1 <0>         0.1245
     15 H1         -3.3336   -6.7966   -0.6534 H         1 <0>         0.1107
     16 C13        -1.1905   -6.5832   -0.6035 C.3       1 <0>        -0.0991
     17 C14        -0.9893   -8.0999   -0.6086 C.3       1 <0>        -0.1695
     18 C15         0.3613   -8.4295   -0.0270 C.2       1 <0>         0.4880
     19 O2          1.0950   -7.5343    0.3560 O.co2     1 <0>        -0.7031
     20 O3          0.7203   -9.5914    0.0605 O.co2     1 <0>        -0.7042
     21 N2         -2.5910   -6.6307   -2.6079 N.am      1 <0>        -0.7042
     22 C16        -2.8930   -7.8968   -2.9577 C.2       1 <0>         0.5584
     23 O4         -3.1410   -8.7217   -2.0999 O.2       1 <0>        -0.5101
     24 C17        -2.9225   -8.2823   -4.3841 C.ar      1 <0>        -0.1082
     25 C18        -2.6325   -7.3384   -5.3713 C.ar      1 <0>        -0.0696
     26 C19        -2.6615   -7.7032   -6.7007 C.ar      1 <0>        -0.1049
     27 C20        -2.9780   -9.0033   -7.0584 C.ar      1 <0>        -0.0117
     28 C21        -3.2670   -9.9451   -6.0835 C.ar      1 <0>        -0.0393
     29 C22        -3.2349   -9.5928   -4.7493 C.ar      1 <0>        -0.0380
     30 Cl1        -3.6627  -11.5724   -6.5409 Cl        1 <0>        -0.0421
     31 Cl2        -3.0136   -9.4547   -8.7343 Cl        1 <0>        -0.0457
     32 H2         -0.9292    2.3220    1.4492 H         1 <0>         0.0523
     33 H3         -2.1888    2.0943    0.2124 H         1 <0>         0.0525
     34 H4         -2.5839    1.8808    1.9347 H         1 <0>         0.0520
     35 H5         -0.6777    0.1310    0.3156 H         1 <0>         0.0622
     36 H6         -1.0727   -0.0825    2.0380 H         1 <0>         0.0614
     37 H7         -3.4595   -0.4085    1.4501 H         1 <0>         0.0604
     38 H8         -3.0644   -0.1950   -0.2723 H         1 <0>         0.0621
     39 H9         -1.5533   -2.1583   -0.1690 H         1 <0>         0.0697
     40 H10        -1.9484   -2.3718    1.5534 H         1 <0>         0.0649
     41 H11        -4.3352   -2.6978    0.9655 H         1 <0>         0.0753
     42 H12        -3.9401   -2.4843   -0.7569 H         1 <0>         0.0814
     43 H13        -2.6328   -5.9619    1.1744 H         1 <0>         0.0976
     44 H14        -3.0025   -4.5383    2.1770 H         1 <0>         0.0826
     45 H15        -5.4022   -4.7471    1.5885 H         1 <0>         0.0638
     46 H16        -5.0325   -6.1707    0.5859 H         1 <0>         0.0655
     47 H17        -4.1582   -7.3507    2.5839 H         1 <0>         0.0707
     48 H18        -4.5280   -5.9271    3.5864 H         1 <0>         0.0639
     49 H19        -6.9277   -6.1359    2.9979 H         1 <0>         0.0576
     50 H20        -6.5580   -7.5595    1.9954 H         1 <0>         0.0614
     51 H21        -7.3738   -8.2370    4.2368 H         1 <0>         0.0509
     52 H22        -5.6837   -8.7394    3.9934 H         1 <0>         0.0568
     53 H23        -6.0534   -7.3159    4.9959 H         1 <0>         0.0525
     54 H24        -0.4119   -6.1115   -1.2029 H         1 <0>         0.0698
     55 H25        -1.1355   -6.2128    0.4201 H         1 <0>         0.0771
     56 H26        -1.7680   -8.5717   -0.0091 H         1 <0>         0.0625
     57 H27        -1.0444   -8.4703   -1.6322 H         1 <0>         0.0595
     58 H28        -2.3931   -5.9726   -3.2924 H         1 <0>         0.4060
     59 H29        -2.3861   -6.3240   -5.0941 H         1 <0>         0.1450
     60 H30        -2.4372   -6.9736   -7.4647 H         1 <0>         0.1498
     61 H31        -3.4558  -10.3283   -3.9899 H         1 <0>         0.1593
@<TRIPOS>BOND
     1    1    2 1
     2    1   32 1
     3    1   33 1
     4    1   34 1
     5    2    3 1
     6    2   35 1
     7    2   36 1
     8    3    4 1
     9    3   37 1
    10    3   38 1
    11    4    5 1
    12    4   39 1
    13    4   40 1
    14    5    6 1
    15    5   41 1
    16    5   42 1
    17    6    7 1
    18    6   12 am
    19    7    8 1
    20    7   43 1
    21    7   44 1
    22    8    9 1
    23    8   45 1
    24    8   46 1
    25    9   10 1
    26    9   47 1
    27    9   48 1
    28   10   11 1
    29   10   49 1
    30   10   50 1
    31   11   51 1
    32   11   52 1
    33   11   53 1
    34   12   13 2
    35   12   14 1
    36   14   15 1
    37   14   16 1
    38   14   21 1
    39   16   17 1
    40   16   54 1
    41   16   55 1
    42   17   18 1
    43   17   56 1
    44   17   57 1
    45   18   19 2
    46   18   20 1
    47   21   22 am
    48   21   58 1
    49   22   23 2
    50   22   24 1
    51   24   29 ar
    52   24   25 ar
    53   25   26 ar
    54   25   59 1
    55   26   27 ar
    56   26   60 1
    57   27   28 ar
    58   27   31 1
    59   28   29 ar
    60   28   30 1
    61   29   61 1
@<TRIPOS>MOLECULE
ZINC03920670
   86    91     0     0     0
SMALL
USER_CHARGES
4-[2-[2-(2-adamantyloxycarbonylamino)-3-(1H-indol-3-yl)-2-methyl-propanoyl]amino-1-phenyl-ethyl]amino-4-oxo-butanoic acid
@<TRIPOS>ATOM
      1 C1          3.2239    8.1673   -2.1756 C.3       1 <0>        -0.1678
      2 C2          1.7860    7.7594   -2.5028 C.3       1 <0>         0.1898
      3 C3          1.3953    8.3212   -3.8712 C.3       1 <0>        -0.0467
      4 C4         -0.0577    8.0250   -4.1397 C.2       1 <0>        -0.1710
      5 C5         -0.5456    6.9829   -4.8311 C.2       1 <0>         0.0679
      6 N1         -1.9122    7.0437   -4.8641 N.pl3     1 <0>        -0.5971
      7 H1         -2.4882    6.3991   -5.3042 H         1 <0>         0.4134
      8 C6         -2.3478    8.1593   -4.1847 C.ar      1 <0>         0.0917
      9 C7         -1.2052    8.8229   -3.7010 C.ar      1 <0>        -0.0910
     10 C8         -1.3433   10.0007   -2.9646 C.ar      1 <0>        -0.0805
     11 C9         -2.5895   10.5038   -2.7169 C.ar      1 <0>        -0.1457
     12 C10        -3.7196    9.8532   -3.1922 C.ar      1 <0>        -0.1000
     13 C11        -3.6063    8.6893   -3.9209 C.ar      1 <0>        -0.1325
     14 C12         1.6839    6.2561   -2.5292 C.2       1 <0>         0.5291
     15 O1          1.7853    5.6598   -3.5804 O.2       1 <0>        -0.5211
     16 N2          1.4799    5.5743   -1.3846 N.am      1 <0>        -0.7265
     17 C13         1.3807    4.1129   -1.4103 C.3       1 <0>         0.1193
     18 C14         1.1505    3.5924    0.0099 C.3       1 <0>         0.1751
     19 H2          0.1833    3.9407    0.3723 H         1 <0>         0.1024
     20 C15         1.1709    2.0855    0.0021 C.ar      1 <0>        -0.0938
     21 C16        -0.0167    1.3781    0.0096 C.ar      1 <0>        -0.1004
     22 C17         0.0021   -0.0041    0.0020 C.ar      1 <0>        -0.1209
     23 C18         1.2084   -0.6789   -0.0136 C.ar      1 <0>        -0.1178
     24 C19         2.3961    0.0285   -0.0212 C.ar      1 <0>        -0.1206
     25 C20         2.3773    1.4107   -0.0136 C.ar      1 <0>        -0.0992
     26 N3          2.2101    4.0905    0.8904 N.am      1 <0>        -0.7364
     27 C21         1.9861    4.2093    2.2141 C.2       1 <0>         0.5156
     28 O2          0.9072    3.9038    2.6763 O.2       1 <0>        -0.5308
     29 C22         3.0761    4.7218    3.1198 C.3       1 <0>        -0.1168
     30 C23         2.5657    4.7589    4.5617 C.3       1 <0>        -0.1404
     31 C24         3.6557    5.2713    5.4674 C.2       1 <0>         0.4602
     32 O3          4.7305    5.5757    5.0069 O.co2     1 <0>        -0.6444
     33 N4          0.8825    8.2923   -1.4800 N.am      1 <0>        -0.7010
     34 C25         0.8052    9.6223   -1.2760 C.2       1 <0>         0.6637
     35 O4          1.4850   10.3794   -1.9403 O.2       1 <0>        -0.5685
     36 O5         -0.0251   10.1121   -0.3361 O.3       1 <0>        -0.3551
     37 C26        -0.0566   11.5543   -0.1712 C.3       1 <0>         0.1250
     38 C27         0.9881   11.9721    0.8657 C.3       1 <0>        -0.1013
     39 C28         0.9549   13.4918    1.0394 C.3       1 <0>        -0.1050
     40 C29        -0.4349   13.9206    1.5144 C.3       1 <0>        -0.0887
     41 C30        -0.7468   13.2473    2.8524 C.3       1 <0>        -0.1085
     42 C31        -0.7136   11.7276    2.6786 C.3       1 <0>        -0.0874
     43 C32         0.6761   11.2988    2.2037 C.3       1 <0>        -0.1071
     44 C33        -1.7583   11.3099    1.6418 C.3       1 <0>        -0.1047
     45 C34        -1.4464   11.9831    0.3037 C.3       1 <0>        -0.0842
     46 C35        -1.4796   13.5029    0.4775 C.3       1 <0>        -0.1056
     47 H3          3.8961    7.7708   -2.9365 H         1 <0>         0.0760
     48 H4          3.2977    9.2547   -2.1565 H         1 <0>         0.0969
     49 H5          3.5022    7.7671   -1.2007 H         1 <0>         0.0655
     50 H6          1.5538    9.3996   -3.8800 H         1 <0>         0.1017
     51 H7          2.0093    7.8574   -4.6432 H         1 <0>         0.0904
     52 H8          0.0519    6.2100   -5.2914 H         1 <0>         0.1725
     53 H9         -0.4683   10.5125   -2.5919 H         1 <0>         0.1285
     54 H10        -2.6959   11.4148   -2.1467 H         1 <0>         0.1182
     55 H11        -4.6978   10.2632   -2.9884 H         1 <0>         0.1213
     56 H12        -4.4918    8.1901   -4.2858 H         1 <0>         0.1155
     57 H13         1.3988    6.0513   -0.5438 H         1 <0>         0.4040
     58 H14         2.3055    3.6929   -1.8058 H         1 <0>         0.0800
     59 H15         0.5461    3.8165   -2.0456 H         1 <0>         0.0850
     60 H16        -0.9592    1.9054    0.0170 H         1 <0>         0.1214
     61 H17        -0.9258   -0.5567    0.0079 H         1 <0>         0.1214
     62 H18         1.2231   -1.7588   -0.0196 H         1 <0>         0.1202
     63 H19         3.3386   -0.4987   -0.0327 H         1 <0>         0.1219
     64 H20         3.3052    1.9634   -0.0192 H         1 <0>         0.1206
     65 H21         3.0730    4.3349    0.5207 H         1 <0>         0.4016
     66 H22         3.9409    4.0612    3.0574 H         1 <0>         0.0926
     67 H23         3.3633    5.7266    2.8101 H         1 <0>         0.0926
     68 H24         1.7009    5.4194    4.6241 H         1 <0>         0.0700
     69 H25         2.2784    3.7540    4.8714 H         1 <0>         0.0694
     70 H26         0.3399    7.6880   -0.9497 H         1 <0>         0.4035
     71 H27         0.1656   12.0340   -1.1244 H         1 <0>         0.0848
     72 H28         1.9782   11.6666    0.5273 H         1 <0>         0.0767
     73 H29         1.6991   13.7894    1.7781 H         1 <0>         0.0695
     74 H30         1.1771   13.9714    0.0862 H         1 <0>         0.0637
     75 H31        -0.4586   15.0033    1.6382 H         1 <0>         0.0718
     76 H32        -1.7369   13.5528    3.1908 H         1 <0>         0.0613
     77 H33        -0.0026   13.5449    3.5911 H         1 <0>         0.0628
     78 H34        -0.9359   11.2479    3.6319 H         1 <0>         0.0728
     79 H35         1.4204   11.5964    2.9424 H         1 <0>         0.0647
     80 H36         0.6998   10.2161    2.0799 H         1 <0>         0.0684
     81 H37        -2.7484   11.6153    1.9801 H         1 <0>         0.0619
     82 H38        -1.7346   10.2272    1.5180 H         1 <0>         0.0708
     83 H39        -2.1906   11.6855   -0.4350 H         1 <0>         0.0813
     84 H40        -1.2574   13.9825   -0.4757 H         1 <0>         0.0641
     85 H41        -2.4697   13.8083    0.8158 H         1 <0>         0.0712
     86 O6          3.4325    5.3896    6.7857 O.co2     1 <0>        -0.7714
@<TRIPOS>BOND
     1    1    2 1
     2    1   47 1
     3    1   48 1
     4    1   49 1
     5    2    3 1
     6    2   14 1
     7    2   33 1
     8    3    4 1
     9    3   50 1
    10    3   51 1
    11    4    9 1
    12    4    5 2
    13    5    6 1
    14    5   52 1
    15    6    7 1
    16    6    8 1
    17    8   13 ar
    18    8    9 ar
    19    9   10 ar
    20   10   11 ar
    21   10   53 1
    22   11   12 ar
    23   11   54 1
    24   12   13 ar
    25   12   55 1
    26   13   56 1
    27   14   15 2
    28   14   16 am
    29   16   17 1
    30   16   57 1
    31   17   18 1
    32   17   58 1
    33   17   59 1
    34   18   19 1
    35   18   20 1
    36   18   26 1
    37   20   25 ar
    38   20   21 ar
    39   21   22 ar
    40   21   60 1
    41   22   23 ar
    42   22   61 1
    43   23   24 ar
    44   23   62 1
    45   24   25 ar
    46   24   63 1
    47   25   64 1
    48   26   27 am
    49   26   65 1
    50   27   28 2
    51   27   29 1
    52   29   30 1
    53   29   66 1
    54   29   67 1
    55   30   31 1
    56   30   68 1
    57   30   69 1
    58   31   32 2
    59   31   86 1
    60   33   34 am
    61   33   70 1
    62   34   35 2
    63   34   36 1
    64   36   37 1
    65   37   45 1
    66   37   38 1
    67   37   71 1
    68   38   43 1
    69   38   39 1
    70   38   72 1
    71   39   40 1
    72   39   73 1
    73   39   74 1
    74   40   46 1
    75   40   41 1
    76   40   75 1
    77   41   42 1
    78   41   76 1
    79   41   77 1
    80   42   43 1
    81   42   44 1
    82   42   78 1
    83   43   79 1
    84   43   80 1
    85   44   45 1
    86   44   81 1
    87   44   82 1
    88   45   46 1
    89   45   83 1
    90   46   84 1
    91   46   85 1
@<TRIPOS>MOLECULE
ZINC03810905
   67    70     0     0     0
SMALL
USER_CHARGES
1-[2-(3,3-dimethyl-2-oxo-butyl)-3-oxo-6-(2-pyridyl)-2,5-diazabicyclo[5.4.0]undeca-5,8,10,12-tetraen-4-yl]-3-(3-methylaminophenyl)-urea
@<TRIPOS>ATOM
      1 C1         -3.7534   -1.1099   -2.5271 C.3       1 <0>        -0.1342
      2 C2         -3.3029   -1.1201   -1.0650 C.3       1 <0>        -0.1108
      3 C3         -3.3065   -2.5572   -0.5402 C.3       1 <0>        -0.1424
      4 C4         -4.2622   -0.2697   -0.2298 C.3       1 <0>        -0.1419
      5 C5         -1.9106   -0.5521   -0.9644 C.2       1 <0>         0.3501
      6 O1         -1.3379   -0.1778   -1.9595 O.2       1 <0>        -0.4284
      7 C6         -1.2331   -0.4512    0.3780 C.3       1 <0>         0.0591
      8 N1          0.1013    0.1292    0.2091 N.am      1 <0>        -0.5362
      9 C7          1.1538   -0.7440   -0.0170 C.ar      1 <0>         0.1646
     10 C8          0.9200   -1.8226   -0.8726 C.ar      1 <0>        -0.1463
     11 C9          1.9170   -2.7337   -1.1429 C.ar      1 <0>        -0.0707
     12 C10         3.1672   -2.5879   -0.5645 C.ar      1 <0>        -0.1338
     13 C11         3.4162   -1.5315    0.2802 C.ar      1 <0>        -0.0278
     14 C12         2.4114   -0.5935    0.5641 C.ar      1 <0>        -0.1294
     15 C13         2.7482    0.5130    1.4729 C.2       1 <0>         0.3005
     16 N2          2.3722    1.7320    1.3183 N.2       1 <0>        -0.4987
     17 C14         1.5404    2.1462    0.1882 C.3       1 <0>         0.3150
     18 H1          1.3938    3.2259    0.2191 H         1 <0>         0.1681
     19 C15         0.2083    1.4539    0.2851 C.2       1 <0>         0.5076
     20 O2         -0.7945    2.1202    0.4313 O.2       1 <0>        -0.4976
     21 N3          2.1968    1.7736   -1.0675 N.am      1 <0>        -0.7447
     22 C16         2.7830    2.7194   -1.8279 C.2       1 <0>         0.7139
     23 O3          2.7672    3.8819   -1.4718 O.2       1 <0>        -0.5556
     24 N4          3.3869    2.3767   -2.9830 N.am      1 <0>        -0.6800
     25 C17         3.8978    3.3693   -3.8269 C.ar      1 <0>         0.2085
     26 C18         5.0393    3.1222   -4.5796 C.ar      1 <0>        -0.2037
     27 C19         5.5442    4.1012   -5.4132 C.ar      1 <0>        -0.0521
     28 C20         4.9164    5.3289   -5.5015 C.ar      1 <0>        -0.2126
     29 C21         3.7746    5.5824   -4.7515 C.ar      1 <0>         0.2319
     30 C22         3.2620    4.5987   -3.9169 C.ar      1 <0>        -0.1953
     31 N5          3.1404    6.8235   -4.8411 N.pl3     1 <0>        -0.7514
     32 C23         3.6791    7.8591   -5.7263 C.3       1 <0>         0.0933
     33 C24         3.5843    0.1981    2.6568 C.ar      1 <0>         0.1360
     34 C25         3.9351    1.2129    3.5444 C.ar      1 <0>        -0.1140
     35 C26         4.7116    0.9024    4.6485 C.ar      1 <0>        -0.0806
     36 C27         5.1206   -0.4115    4.8215 C.ar      1 <0>        -0.1513
     37 C28         4.7394   -1.3683    3.8965 C.ar      1 <0>         0.0985
     38 N6          3.9963   -1.0468    2.8587 N.ar      1 <0>        -0.4588
     39 H2         -3.0700   -1.7157   -3.1221 H         1 <0>         0.0610
     40 H3         -4.7604   -1.5207   -2.5998 H         1 <0>         0.0659
     41 H4         -3.7508   -0.0860   -2.9010 H         1 <0>         0.0614
     42 H5         -2.9855   -2.5645    0.5015 H         1 <0>         0.0633
     43 H6         -4.3135   -2.9680   -0.6129 H         1 <0>         0.0741
     44 H7         -2.6231   -3.1630   -1.1352 H         1 <0>         0.0612
     45 H8         -4.2596    0.7542   -0.6036 H         1 <0>         0.0631
     46 H9         -5.2692   -0.6805   -0.3025 H         1 <0>         0.0729
     47 H10        -3.9412   -0.2769    0.8119 H         1 <0>         0.0632
     48 H11        -1.1515   -1.3634    0.7796 H         1 <0>         0.1089
     49 H12        -1.8250    0.1842    1.0368 H         1 <0>         0.1302
     50 H13        -0.0522   -1.9434   -1.3273 H         1 <0>         0.1288
     51 H14         1.7234   -3.5637   -1.8063 H         1 <0>         0.1348
     52 H15         3.9469   -3.3045   -0.7767 H         1 <0>         0.1354
     53 H16         4.3927   -1.4225    0.7283 H         1 <0>         0.1424
     54 H17         2.2094    0.8462   -1.3516 H         1 <0>         0.4002
     55 H18         3.4673    1.4419   -3.2295 H         1 <0>         0.4075
     56 H19         5.5326    2.1638   -4.5126 H         1 <0>         0.1208
     57 H20         6.4314    3.9064   -5.9975 H         1 <0>         0.1255
     58 H21         5.3134    6.0921   -6.1544 H         1 <0>         0.1213
     59 H22         2.3722    4.7917   -3.3359 H         1 <0>         0.1329
     60 H23         2.3433    6.9999   -4.3172 H         1 <0>         0.4016
     61 H24         4.6964    8.1046   -5.4215 H         1 <0>         0.0525
     62 H25         3.6860    7.4922   -6.7527 H         1 <0>         0.0524
     63 H26         3.0557    8.7511   -5.6635 H         1 <0>         0.0730
     64 H27         3.6029    2.2267    3.3761 H         1 <0>         0.1507
     65 H28         4.9960    1.6670    5.3563 H         1 <0>         0.1418
     66 H29         5.7302   -0.6857    5.6699 H         1 <0>         0.1406
     67 H30         5.0557   -2.3925    4.0283 H         1 <0>         0.1637
@<TRIPOS>BOND
     1    1    2 1
     2    1   39 1
     3    1   40 1
     4    1   41 1
     5    2    3 1
     6    2    4 1
     7    2    5 1
     8    3   42 1
     9    3   43 1
    10    3   44 1
    11    4   45 1
    12    4   46 1
    13    4   47 1
    14    5    6 2
    15    5    7 1
    16    7    8 1
    17    7   48 1
    18    7   49 1
    19    8   19 am
    20    8    9 1
    21    9   14 ar
    22    9   10 ar
    23   10   11 ar
    24   10   50 1
    25   11   12 ar
    26   11   51 1
    27   12   13 ar
    28   12   52 1
    29   13   14 ar
    30   13   53 1
    31   14   15 1
    32   15   16 2
    33   15   33 1
    34   16   17 1
    35   17   18 1
    36   17   19 1
    37   17   21 1
    38   19   20 2
    39   21   22 am
    40   21   54 1
    41   22   23 2
    42   22   24 am
    43   24   25 1
    44   24   55 1
    45   25   30 ar
    46   25   26 ar
    47   26   27 ar
    48   26   56 1
    49   27   28 ar
    50   27   57 1
    51   28   29 ar
    52   28   58 1
    53   29   30 ar
    54   29   31 1
    55   30   59 1
    56   31   32 1
    57   31   60 1
    58   32   61 1
    59   32   62 1
    60   32   63 1
    61   33   38 ar
    62   33   34 ar
    63   34   35 ar
    64   34   64 1
    65   35   36 ar
    66   35   65 1
    67   36   37 ar
    68   36   66 1
    69   37   38 ar
    70   37   67 1
@<TRIPOS>MOLECULE
ZINC01482988
   67    71     0     0     0
SMALL
USER_CHARGES
1-(m-tolyl)-3-[(3S)-1-[2-(o-tolyl)-2-oxo-ethyl]-2-oxo-5-phenyl-3H-1,4-benzodiazepin-3-yl]urea
@<TRIPOS>ATOM
      1 C1         -6.3098   -4.7992   -4.5800 C.3       1 <0>        -0.1147
      2 C2         -5.7595   -3.7584   -3.6393 C.ar      1 <0>        -0.0664
      3 C3         -6.6020   -2.8086   -3.0908 C.ar      1 <0>        -0.1358
      4 C4         -6.1011   -1.8523   -2.2270 C.ar      1 <0>        -0.0944
      5 C5         -4.7578   -1.8460   -1.9051 C.ar      1 <0>        -0.1248
      6 C6         -3.9084   -2.7949   -2.4582 C.ar      1 <0>         0.1666
      7 C7         -4.4147   -3.7542   -3.3256 C.ar      1 <0>        -0.1480
      8 N1         -2.5461   -2.7883   -2.1379 N.am      1 <0>        -0.6817
      9 C8         -1.9155   -1.6212   -1.8997 C.2       1 <0>         0.7126
     10 O1         -2.5037   -0.5690   -2.0584 O.2       1 <0>        -0.5543
     11 N2         -0.6330   -1.6205   -1.4857 N.am      1 <0>        -0.7470
     12 C9          0.0543   -0.3517   -1.2326 C.3       1 <0>         0.3118
     13 H1         -0.5188    0.4670   -1.6676 H         1 <0>         0.1656
     14 C10         1.4259   -0.3900   -1.8493 C.2       1 <0>         0.5081
     15 O2          1.7373    0.4655   -2.6507 O.2       1 <0>        -0.4965
     16 N3          2.3066   -1.3385   -1.5386 N.am      1 <0>        -0.5372
     17 C11         2.0642   -2.4023   -0.6835 C.ar      1 <0>         0.1684
     18 C12         2.5751   -3.6492   -1.0502 C.ar      1 <0>        -0.1504
     19 C13         2.3768   -4.7524   -0.2498 C.ar      1 <0>        -0.0718
     20 C14         1.6648   -4.6343    0.9325 C.ar      1 <0>        -0.1283
     21 C15         1.1533   -3.4143    1.3093 C.ar      1 <0>        -0.0610
     22 C16         1.3465   -2.2810    0.5045 C.ar      1 <0>        -0.1272
     23 C17         0.7680   -1.0096    0.9667 C.2       1 <0>         0.2970
     24 N4          0.1890   -0.1467    0.2091 N.2       1 <0>        -0.5017
     25 C18         0.8588   -0.7009    2.4128 C.ar      1 <0>        -0.0710
     26 C19        -0.0447    0.1862    2.9974 C.ar      1 <0>        -0.0655
     27 C20         0.0413    0.4653    4.3460 C.ar      1 <0>        -0.1275
     28 C21         1.0285   -0.1240    5.1156 C.ar      1 <0>        -0.0973
     29 C22         1.9312   -1.0004    4.5402 C.ar      1 <0>        -0.1268
     30 C23         1.8518   -1.2918    3.1939 C.ar      1 <0>        -0.0830
     31 C24         3.6361   -1.2512   -2.1477 C.3       1 <0>         0.0623
     32 C25         4.5441   -0.4418   -1.2580 C.2       1 <0>         0.3786
     33 O3          4.1222    0.0169   -0.2178 O.2       1 <0>        -0.4241
     34 C26         5.9427   -0.2080   -1.6516 C.ar      1 <0>        -0.1727
     35 C27         6.4689   -0.8378   -2.7842 C.ar      1 <0>        -0.0715
     36 C28         7.7785   -0.6091   -3.1497 C.ar      1 <0>        -0.1375
     37 C29         8.5754    0.2321   -2.3925 C.ar      1 <0>        -0.0794
     38 C30         8.0638    0.8544   -1.2673 C.ar      1 <0>        -0.1343
     39 C31         6.7542    0.6404   -0.8919 C.ar      1 <0>        -0.0178
     40 C32         6.1989    1.3194    0.3335 C.3       1 <0>        -0.1250
     41 H2         -6.6264   -5.6728   -4.0102 H         1 <0>         0.0719
     42 H3         -7.1636   -4.3875   -5.1182 H         1 <0>         0.0687
     43 H4         -5.5374   -5.0901   -5.2920 H         1 <0>         0.0659
     44 H5         -7.6534   -2.8141   -3.3374 H         1 <0>         0.1235
     45 H6         -6.7615   -1.1119   -1.8003 H         1 <0>         0.1266
     46 H7         -4.3678   -1.1012   -1.2270 H         1 <0>         0.1351
     47 H8         -3.7573   -4.4960   -3.7546 H         1 <0>         0.1238
     48 H9         -2.0557   -3.6237   -2.0873 H         1 <0>         0.4062
     49 H10        -0.1637   -2.4599   -1.3591 H         1 <0>         0.3974
     50 H11         3.1315   -3.7494   -1.9705 H         1 <0>         0.1358
     51 H12         2.7774   -5.7111   -0.5444 H         1 <0>         0.1379
     52 H13         1.5109   -5.5007    1.5586 H         1 <0>         0.1375
     53 H14         0.5991   -3.3278    2.2322 H         1 <0>         0.1393
     54 H15        -0.8128    0.6506    2.3967 H         1 <0>         0.1343
     55 H16        -0.6603    1.1489    4.8007 H         1 <0>         0.1280
     56 H17         1.0949    0.1013    6.1697 H         1 <0>         0.1257
     57 H18         2.6999   -1.4570    5.1460 H         1 <0>         0.1271
     58 H19         2.5573   -1.9758    2.7457 H         1 <0>         0.1259
     59 H20         4.0124   -2.1709   -2.2598 H         1 <0>         0.1101
     60 H21         3.5584   -0.7692   -3.1222 H         1 <0>         0.1317
     61 H22         5.8497   -1.4979   -3.3735 H         1 <0>         0.1293
     62 H23         8.1850   -1.0915   -4.0263 H         1 <0>         0.1310
     63 H24         9.6019    0.4034   -2.6811 H         1 <0>         0.1297
     64 H25         8.6917    1.5096   -0.6818 H         1 <0>         0.1307
     65 H26         6.2518    0.6375    1.1822 H         1 <0>         0.0774
     66 H27         6.7830    2.2140    0.5493 H         1 <0>         0.0629
     67 H28         5.1602    1.5979    0.1554 H         1 <0>         0.0902
@<TRIPOS>BOND
     1    1    2 1
     2    1   41 1
     3    1   42 1
     4    1   43 1
     5    2    7 ar
     6    2    3 ar
     7    3    4 ar
     8    3   44 1
     9    4    5 ar
    10    4   45 1
    11    5    6 ar
    12    5   46 1
    13    6    7 ar
    14    6    8 1
    15    7   47 1
    16    8    9 am
    17    8   48 1
    18    9   10 2
    19    9   11 am
    20   11   12 1
    21   11   49 1
    22   12   13 1
    23   12   24 1
    24   12   14 1
    25   14   15 2
    26   14   16 am
    27   16   17 1
    28   16   31 1
    29   17   22 ar
    30   17   18 ar
    31   18   19 ar
    32   18   50 1
    33   19   20 ar
    34   19   51 1
    35   20   21 ar
    36   20   52 1
    37   21   22 ar
    38   21   53 1
    39   22   23 1
    40   23   24 2
    41   23   25 1
    42   25   30 ar
    43   25   26 ar
    44   26   27 ar
    45   26   54 1
    46   27   28 ar
    47   27   55 1
    48   28   29 ar
    49   28   56 1
    50   29   30 ar
    51   29   57 1
    52   30   58 1
    53   31   32 1
    54   31   59 1
    55   31   60 1
    56   32   33 2
    57   32   34 1
    58   34   39 ar
    59   34   35 ar
    60   35   36 ar
    61   35   61 1
    62   36   37 ar
    63   36   62 1
    64   37   38 ar
    65   37   63 1
    66   38   39 ar
    67   38   64 1
    68   39   40 1
    69   40   65 1
    70   40   66 1
    71   40   67 1
@<TRIPOS>MOLECULE
ZINC36310776
   88    92     0     0     0
SMALL
USER_CHARGES

@<TRIPOS>ATOM
      1 C1         -0.3309   -2.0443    1.0719 C.3       1 <0>        -0.1191
      2 C2         -0.1897   -1.4261    2.4643 C.3       1 <0>        -0.0571
      3 C3          0.2320   -2.4028    3.6043 C.3       1 <0>        -0.1120
      4 C4          0.7886   -1.4867    4.7180 C.3       1 <0>        -0.1274
      5 C5          0.6509   -0.0427    4.1460 C.3       1 <0>        -0.0885
      6 H1          1.2792    0.7164    4.6122 H         1 <0>         0.0970
      7 C6          0.9026   -0.3098    2.6200 C.3       1 <0>        -0.0625
      8 C7          0.5929    0.9196    1.7636 C.3       1 <0>        -0.1329
      9 C8          2.3115   -0.8448    2.3559 C.3       1 <0>        -0.1358
     10 C9         -0.8827    0.2386    4.1611 C.3       1 <0>        -0.1381
     11 C10        -1.4452   -0.6787    3.0088 C.3       1 <0>         0.1063
     12 H2         -2.1598   -1.3891    3.4244 H         1 <0>         0.0901
     13 O1         -2.0540    0.0932    1.9718 O.3       1 <0>        -0.3408
     14 C11        -3.3854    0.2784    2.0490 C.2       1 <0>         0.6358
     15 O2         -3.9983   -0.1166    3.0210 O.2       1 <0>        -0.5532
     16 N1         -4.0382    0.9019    1.0483 N.am      1 <0>        -0.7037
     17 C12        -5.4955    1.0433    1.1005 C.3       1 <0>         0.1839
     18 C13        -6.1287   -0.3139    1.4134 C.3       1 <0>        -0.1735
     19 C14        -6.0078    1.5458   -0.2508 C.3       1 <0>        -0.0343
     20 C15        -5.2883    2.8176   -0.6195 C.2       1 <0>        -0.1888
     21 C16        -5.6999    4.0700   -0.3664 C.2       1 <0>         0.0825
     22 N2         -4.7871    4.9677   -0.8494 N.pl3     1 <0>        -0.5945
     23 H3         -4.8665    5.9323   -0.7852 H         1 <0>         0.4158
     24 C17        -3.7392    4.2978   -1.4401 C.ar      1 <0>         0.0954
     25 C18        -4.0040    2.9214   -1.3164 C.ar      1 <0>        -0.1021
     26 C19        -3.0986    1.9893   -1.8262 C.ar      1 <0>        -0.0859
     27 C20        -1.9560    2.4192   -2.4405 C.ar      1 <0>        -0.1357
     28 C21        -1.6882    3.7756   -2.5615 C.ar      1 <0>        -0.1000
     29 C22        -2.5727    4.7129   -2.0737 C.ar      1 <0>        -0.1261
     30 C23        -5.8661    2.0307    2.1770 C.2       1 <0>         0.5211
     31 O3         -6.8508    2.7269    2.0483 O.2       1 <0>        -0.5464
     32 N3         -5.1032    2.1401    3.2827 N.am      1 <0>        -0.7135
     33 C24        -5.5226    3.0179    4.3780 C.3       1 <0>         0.1169
     34 C25        -4.4875    2.9596    5.5032 C.3       1 <0>         0.1776
     35 H4         -3.5425    3.3717    5.1491 H         1 <0>         0.0955
     36 C26        -4.9776    3.7650    6.6789 C.ar      1 <0>        -0.0895
     37 C27        -5.8997    3.2208    7.5531 C.ar      1 <0>        -0.0988
     38 C28        -6.3493    3.9595    8.6316 C.ar      1 <0>        -0.1205
     39 C29        -5.8763    5.2423    8.8360 C.ar      1 <0>        -0.1197
     40 C30        -4.9535    5.7861    7.9623 C.ar      1 <0>        -0.1214
     41 C31        -4.5007    5.0458    6.8862 C.ar      1 <0>        -0.1017
     42 N4         -4.2899    1.5672    5.9134 N.am      1 <0>        -0.7281
     43 C32        -3.1302    1.1922    6.4887 C.2       1 <0>         0.5171
     44 O4         -2.2502    2.0075    6.6668 O.2       1 <0>        -0.5378
     45 C33        -2.9270   -0.2402    6.9107 C.3       1 <0>        -0.1130
     46 C34        -1.5373   -0.3967    7.5312 C.3       1 <0>        -0.1697
     47 C35        -1.3341   -1.8291    7.9532 C.2       1 <0>         0.4925
     48 O5         -2.2187   -2.6487    7.7742 O.co2     1 <0>        -0.6998
     49 O6         -0.2850   -2.1683    8.4737 O.co2     1 <0>        -0.7016
     50 H5          0.6352   -2.4296    0.7458 H         1 <0>         0.0599
     51 H6         -1.0537   -2.8593    1.1079 H         1 <0>         0.0553
     52 H7         -0.6747   -1.2844    0.3702 H         1 <0>         0.0625
     53 H8         -0.6323   -2.9595    3.9667 H         1 <0>         0.0689
     54 H9          1.0049   -3.0862    3.2526 H         1 <0>         0.0700
     55 H10         0.1981   -1.5929    5.6279 H         1 <0>         0.0829
     56 H11         1.8353   -1.7196    4.9138 H         1 <0>         0.0645
     57 H12        -0.3673    1.3391    2.0639 H         1 <0>         0.0673
     58 H13         1.3750    1.6659    1.9029 H         1 <0>         0.0466
     59 H14         0.5502    0.6296    0.7137 H         1 <0>         0.0517
     60 H15         2.3672   -1.2357    1.3399 H         1 <0>         0.0519
     61 H16         3.0347   -0.0380    2.4749 H         1 <0>         0.0518
     62 H17         2.5363   -1.6418    3.0647 H         1 <0>         0.0630
     63 H18        -1.3074   -0.0229    5.1303 H         1 <0>         0.0977
     64 H19        -1.0794    1.2852    3.9289 H         1 <0>         0.0636
     65 H20        -3.5432    1.2571    0.2935 H         1 <0>         0.4126
     66 H21        -5.7636   -0.6719    2.3760 H         1 <0>         0.1017
     67 H22        -7.2129   -0.2087    1.4522 H         1 <0>         0.0744
     68 H23        -5.8606   -1.0280    0.6348 H         1 <0>         0.0707
     69 H24        -5.8229    0.7895   -1.0135 H         1 <0>         0.0870
     70 H25        -7.0783    1.7403   -0.1839 H         1 <0>         0.1041
     71 H26        -6.6161    4.3305    0.1427 H         1 <0>         0.1761
     72 H27        -3.3000    0.9322   -1.7351 H         1 <0>         0.1207
     73 H28        -1.2558    1.6977   -2.8348 H         1 <0>         0.1232
     74 H29        -0.7806    4.0999   -3.0489 H         1 <0>         0.1244
     75 H30        -2.3546    5.7661   -2.1716 H         1 <0>         0.1184
     76 H31        -4.2765    1.6376    3.3532 H         1 <0>         0.4095
     77 H32        -5.6046    4.0414    4.0124 H         1 <0>         0.0779
     78 H33        -6.4902    2.6889    4.7572 H         1 <0>         0.0743
     79 H34        -6.2692    2.2186    7.3934 H         1 <0>         0.1207
     80 H35        -7.0703    3.5346    9.3143 H         1 <0>         0.1213
     81 H36        -6.2281    5.8197    9.6782 H         1 <0>         0.1194
     82 H37        -4.5842    6.7884    8.1218 H         1 <0>         0.1203
     83 H38        -3.7769    5.4693    6.2057 H         1 <0>         0.1197
     84 H39        -4.9937    0.9151    5.7710 H         1 <0>         0.4029
     85 H40        -3.6854   -0.5139    7.6441 H         1 <0>         0.0878
     86 H41        -3.0116   -0.8909    6.0403 H         1 <0>         0.0929
     87 H42        -0.7789   -0.1230    6.7978 H         1 <0>         0.0687
     88 H43        -1.4526    0.2540    8.4016 H         1 <0>         0.0594
@<TRIPOS>BOND
     1    1    2 1
     2    1   50 1
     3    1   51 1
     4    1   52 1
     5    2    7 1
     6    2   11 1
     7    2    3 1
     8    3    4 1
     9    3   53 1
    10    3   54 1
    11    4    5 1
    12    4   55 1
    13    4   56 1
    14    5    6 1
    15    5    7 1
    16    5   10 1
    17    7    8 1
    18    7    9 1
    19    8   57 1
    20    8   58 1
    21    8   59 1
    22    9   60 1
    23    9   61 1
    24    9   62 1
    25   10   11 1
    26   10   63 1
    27   10   64 1
    28   11   12 1
    29   11   13 1
    30   13   14 1
    31   14   15 2
    32   14   16 am
    33   16   17 1
    34   16   65 1
    35   17   18 1
    36   17   19 1
    37   17   30 1
    38   18   66 1
    39   18   67 1
    40   18   68 1
    41   19   20 1
    42   19   69 1
    43   19   70 1
    44   20   25 1
    45   20   21 2
    46   21   22 1
    47   21   71 1
    48   22   23 1
    49   22   24 1
    50   24   29 ar
    51   24   25 ar
    52   25   26 ar
    53   26   27 ar
    54   26   72 1
    55   27   28 ar
    56   27   73 1
    57   28   29 ar
    58   28   74 1
    59   29   75 1
    60   30   31 2
    61   30   32 am
    62   32   33 1
    63   32   76 1
    64   33   34 1
    65   33   77 1
    66   33   78 1
    67   34   35 1
    68   34   36 1
    69   34   42 1
    70   36   41 ar
    71   36   37 ar
    72   37   38 ar
    73   37   79 1
    74   38   39 ar
    75   38   80 1
    76   39   40 ar
    77   39   81 1
    78   40   41 ar
    79   40   82 1
    80   41   83 1
    81   42   43 am
    82   42   84 1
    83   43   44 2
    84   43   45 1
    85   45   46 1
    86   45   85 1
    87   45   86 1
    88   46   47 1
    89   46   87 1
    90   46   88 1
    91   47   48 2
    92   47   49 1
@<TRIPOS>MOLECULE
ZINC43215250
   88    92     0     0     0
SMALL
USER_CHARGES

@<TRIPOS>ATOM
      1 C1         -0.5143   -2.8311   -0.3602 C.3       1 <0>        -0.1238
      2 C2         -1.8825   -2.2880   -0.7775 C.3       1 <0>        -0.0592
      3 C3         -2.2593   -0.8839   -0.2139 C.3       1 <0>        -0.1082
      4 C4         -3.7986   -0.8135   -0.3373 C.3       1 <0>        -0.1184
      5 C5         -4.2068   -2.1817   -0.9639 C.3       1 <0>        -0.0880
      6 H1         -5.2474   -2.4764   -0.8281 H         1 <0>         0.1018
      7 C6         -3.1292   -3.1267   -0.3242 C.3       1 <0>        -0.0590
      8 C7         -3.1425   -4.5211   -0.9538 C.3       1 <0>        -0.1431
      9 C8         -3.2543   -3.1910    1.1994 C.3       1 <0>        -0.1342
     10 C9         -3.7084   -2.0997   -2.4391 C.3       1 <0>        -0.1288
     11 C10        -2.1399   -2.1958   -2.3126 C.3       1 <0>         0.1051
     12 H2         -1.7500   -3.0799   -2.8170 H         1 <0>         0.0946
     13 O1         -1.5439   -1.0123   -2.8475 O.3       1 <0>        -0.3479
     14 C11        -1.1953   -1.0374   -4.1477 C.2       1 <0>         0.6373
     15 O2         -1.3567   -2.0494   -4.8005 O.2       1 <0>        -0.5537
     16 N1         -0.6674    0.0600   -4.7251 N.am      1 <0>        -0.7030
     17 C12        -0.4044    0.0748   -6.1663 C.3       1 <0>         0.1839
     18 C13         0.4228   -1.1549   -6.5464 C.3       1 <0>        -0.1746
     19 C14         0.3702    1.3430   -6.5304 C.3       1 <0>        -0.0340
     20 C15        -0.4095    2.5532   -6.0849 C.2       1 <0>        -0.1901
     21 C16        -1.3087    3.2355   -6.8114 C.2       1 <0>         0.0834
     22 N2         -1.8117    4.2739   -6.0758 N.pl3     1 <0>        -0.5945
     23 H3         -2.4764    4.9076   -6.3882 H         1 <0>         0.4158
     24 C17        -1.2337    4.2855   -4.8262 C.ar      1 <0>         0.0949
     25 C18        -0.3347    3.2043   -4.7748 C.ar      1 <0>        -0.1005
     26 C19         0.3991    2.9632   -3.6120 C.ar      1 <0>        -0.0854
     27 C20         0.2375    3.7778   -2.5267 C.ar      1 <0>        -0.1371
     28 C21        -0.6510    4.8431   -2.5709 C.ar      1 <0>        -0.1007
     29 C22        -1.3785    5.1047   -3.7116 C.ar      1 <0>        -0.1260
     30 C23        -1.7117    0.0521   -6.9157 C.2       1 <0>         0.5222
     31 O3         -1.8059    0.6114   -7.9877 O.2       1 <0>        -0.5427
     32 N3         -2.7761   -0.5898   -6.3946 N.am      1 <0>        -0.7166
     33 C24        -4.0111   -0.7117   -7.1731 C.3       1 <0>         0.1172
     34 C25        -5.0734   -1.4267   -6.3356 C.3       1 <0>         0.1801
     35 H4         -5.2532   -0.8640   -5.4196 H         1 <0>         0.0914
     36 C26        -6.3535   -1.5241   -7.1248 C.ar      1 <0>        -0.0891
     37 C27        -6.5019   -2.5101   -8.0822 C.ar      1 <0>        -0.0981
     38 C28        -7.6761   -2.5995   -8.8061 C.ar      1 <0>        -0.1202
     39 C29        -8.7022   -1.7031   -8.5723 C.ar      1 <0>        -0.1190
     40 C30        -8.5541   -0.7177   -7.6142 C.ar      1 <0>        -0.1216
     41 C31        -7.3815   -0.6310   -6.8873 C.ar      1 <0>        -0.1006
     42 N4         -4.6043   -2.7728   -5.9978 N.am      1 <0>        -0.7321
     43 C32        -5.1989   -3.4644   -5.0055 C.2       1 <0>         0.5165
     44 O4         -6.0607   -2.9395   -4.3325 O.2       1 <0>        -0.5324
     45 C33        -4.7931   -4.8897   -4.7321 C.3       1 <0>        -0.1135
     46 C34        -5.5479   -5.4089   -3.5067 C.3       1 <0>        -0.1657
     47 C35        -5.2291   -6.8673   -3.3011 C.2       1 <0>         0.4923
     48 O5         -4.4688   -7.4386   -4.0640 O.co2     1 <0>        -0.7013
     49 O6         -5.7317   -7.4761   -2.3719 O.co2     1 <0>        -0.7032
     50 H5         -0.4111   -3.8598   -0.7053 H         1 <0>         0.0628
     51 H6          0.2705   -2.2185   -0.8039 H         1 <0>         0.0564
     52 H7         -0.4277   -2.8018    0.7260 H         1 <0>         0.0630
     53 H8         -1.9576   -0.8000    0.8302 H         1 <0>         0.0624
     54 H9         -1.7940   -0.0981   -0.8091 H         1 <0>         0.0709
     55 H10        -4.2536   -0.6950    0.6461 H         1 <0>         0.0623
     56 H11        -4.0901    0.0069   -0.9932 H         1 <0>         0.0597
     57 H12        -2.2894   -5.0928   -0.5886 H         1 <0>         0.0548
     58 H13        -4.0659   -5.0332   -0.6831 H         1 <0>         0.0680
     59 H14        -3.0818   -4.4306   -2.0383 H         1 <0>         0.0603
     60 H15        -3.3599   -2.1821    1.5982 H         1 <0>         0.0582
     61 H16        -4.1307   -3.7812    1.4674 H         1 <0>         0.0589
     62 H17        -2.3615   -3.6556    1.6179 H         1 <0>         0.0547
     63 H18        -4.0848   -2.9453   -3.0148 H         1 <0>         0.0858
     64 H19        -4.0210   -1.1598   -2.8941 H         1 <0>         0.0655
     65 H20        -0.4615    0.8401   -4.1865 H         1 <0>         0.4123
     66 H21        -0.1291   -2.0584   -6.2870 H         1 <0>         0.1044
     67 H22         0.6184   -1.1439   -7.6186 H         1 <0>         0.0734
     68 H23         1.3683   -1.1385   -6.0043 H         1 <0>         0.0707
     69 H24         1.3398    1.3320   -6.0325 H         1 <0>         0.0872
     70 H25         0.5165    1.3821   -7.6098 H         1 <0>         0.1043
     71 H26        -1.5929    3.0000   -7.8264 H         1 <0>         0.1774
     72 H27         1.0918    2.1357   -3.5702 H         1 <0>         0.1199
     73 H28         0.8054    3.5909   -1.6273 H         1 <0>         0.1228
     74 H29        -0.7683    5.4776   -1.7048 H         1 <0>         0.1243
     75 H30        -2.0682    5.9354   -3.7357 H         1 <0>         0.1183
     76 H31        -2.7244   -0.9711   -5.5042 H         1 <0>         0.4068
     77 H32        -4.3696    0.2814   -7.4437 H         1 <0>         0.0809
     78 H33        -3.8148   -1.2863   -8.0784 H         1 <0>         0.0757
     79 H34        -5.7003   -3.2104   -8.2649 H         1 <0>         0.1212
     80 H35        -7.7918   -3.3694   -9.5546 H         1 <0>         0.1215
     81 H36        -9.6193   -1.7725   -9.1383 H         1 <0>         0.1194
     82 H37        -9.3556   -0.0172   -7.4317 H         1 <0>         0.1201
     83 H38        -7.2673    0.1366   -6.1362 H         1 <0>         0.1188
     84 H39        -3.8658   -3.1664   -6.4882 H         1 <0>         0.4026
     85 H40        -5.0344   -5.5083   -5.5965 H         1 <0>         0.0915
     86 H41        -3.7204   -4.9322   -4.5431 H         1 <0>         0.0866
     87 H42        -5.2440   -4.8429   -2.6261 H         1 <0>         0.0646
     88 H43        -6.6200   -5.2898   -3.6630 H         1 <0>         0.0613
@<TRIPOS>BOND
     1    1    2 1
     2    1   50 1
     3    1   51 1
     4    1   52 1
     5    2    7 1
     6    2   11 1
     7    2    3 1
     8    3    4 1
     9    3   53 1
    10    3   54 1
    11    4    5 1
    12    4   55 1
    13    4   56 1
    14    5    6 1
    15    5    7 1
    16    5   10 1
    17    7    8 1
    18    7    9 1
    19    8   57 1
    20    8   58 1
    21    8   59 1
    22    9   60 1
    23    9   61 1
    24    9   62 1
    25   10   11 1
    26   10   63 1
    27   10   64 1
    28   11   12 1
    29   11   13 1
    30   13   14 1
    31   14   15 2
    32   14   16 am
    33   16   17 1
    34   16   65 1
    35   17   18 1
    36   17   19 1
    37   17   30 1
    38   18   66 1
    39   18   67 1
    40   18   68 1
    41   19   20 1
    42   19   69 1
    43   19   70 1
    44   20   25 1
    45   20   21 2
    46   21   22 1
    47   21   71 1
    48   22   23 1
    49   22   24 1
    50   24   29 ar
    51   24   25 ar
    52   25   26 ar
    53   26   27 ar
    54   26   72 1
    55   27   28 ar
    56   27   73 1
    57   28   29 ar
    58   28   74 1
    59   29   75 1
    60   30   31 2
    61   30   32 am
    62   32   33 1
    63   32   76 1
    64   33   34 1
    65   33   77 1
    66   33   78 1
    67   34   35 1
    68   34   36 1
    69   34   42 1
    70   36   41 ar
    71   36   37 ar
    72   37   38 ar
    73   37   79 1
    74   38   39 ar
    75   38   80 1
    76   39   40 ar
    77   39   81 1
    78   40   41 ar
    79   40   82 1
    80   41   83 1
    81   42   43 am
    82   42   84 1
    83   43   44 2
    84   43   45 1
    85   45   46 1
    86   45   85 1
    87   45   86 1
    88   46   47 1
    89   46   87 1
    90   46   88 1
    91   47   48 2
    92   47   49 1
@<TRIPOS>MOLECULE
ZINC00586243
   51    55     0     0     0
SMALL
USER_CHARGES
N-(2-methyl-3-oxo-6-phenyl-2,5-diazabicyclo[5.4.0]undeca-5,8,10,12-tetraen-4-yl)-1H-indole-2-carboxamide
@<TRIPOS>ATOM
      1 C1         -2.7339   -1.2157    2.0106 C.3       1 <0>         0.0620
      2 N1         -2.0377   -0.4220    0.9949 N.am      1 <0>        -0.5514
      3 C2         -2.8115    0.3745    0.1652 C.ar      1 <0>         0.1671
      4 C3         -3.8831    1.0555    0.7469 C.ar      1 <0>        -0.1492
      5 C4         -4.7002    1.8609   -0.0151 C.ar      1 <0>        -0.0726
      6 C5         -4.4651    2.0034   -1.3728 C.ar      1 <0>        -0.1310
      7 C6         -3.4136    1.3415   -1.9627 C.ar      1 <0>        -0.0599
      8 C7         -2.5716    0.5178   -1.1997 C.ar      1 <0>        -0.1390
      9 C8         -1.4654   -0.1580   -1.8956 C.2       1 <0>         0.2890
     10 N2         -0.2778   -0.3017   -1.4234 N.2       1 <0>        -0.5013
     11 C9          0.0942    0.2033   -0.1025 C.3       1 <0>         0.2918
     12 H1          1.1567    0.0304    0.0685 H         1 <0>         0.1667
     13 C10        -0.7112   -0.5219    0.9409 C.2       1 <0>         0.5019
     14 O1         -0.1371   -1.2153    1.7536 O.2       1 <0>        -0.4947
     15 N3         -0.1872    1.6392   -0.0291 N.am      1 <0>        -0.7381
     16 C11         0.8242    2.5280   -0.0888 C.2       1 <0>         0.5945
     17 O2          1.9707    2.1380   -0.2037 O.2       1 <0>        -0.5003
     18 C12         0.5418    3.9693   -0.0152 C.2       1 <0>         0.0053
     19 C13         1.4725    4.9579   -0.0644 C.2       1 <0>        -0.0898
     20 C14         0.7926    6.1956    0.0377 C.ar      1 <0>        -0.1227
     21 C15         1.2192    7.5301    0.0445 C.ar      1 <0>        -0.0560
     22 C16         0.3032    8.5348    0.1592 C.ar      1 <0>        -0.1482
     23 C17        -1.0517    8.2479    0.2702 C.ar      1 <0>        -0.0808
     24 C18        -1.4957    6.9448    0.2660 C.ar      1 <0>        -0.1359
     25 C19        -0.5804    5.9021    0.1496 C.ar      1 <0>         0.1193
     26 N4         -0.7128    4.5342    0.1092 N.pl3     1 <0>        -0.5801
     27 H2         -1.5493    4.0460    0.1615 H         1 <0>         0.4137
     28 C20        -1.7399   -0.7140   -3.2411 C.ar      1 <0>        -0.0752
     29 C21        -3.0439   -1.0447   -3.6092 C.ar      1 <0>        -0.0874
     30 C22        -3.2939   -1.5578   -4.8655 C.ar      1 <0>        -0.1261
     31 C23        -2.2530   -1.7537   -5.7555 C.ar      1 <0>        -0.0960
     32 C24        -0.9567   -1.4329   -5.3940 C.ar      1 <0>        -0.1261
     33 C25        -0.6947   -0.9143   -4.1425 C.ar      1 <0>        -0.0648
     34 H3         -2.9923   -2.1901    1.5961 H         1 <0>         0.0713
     35 H4         -2.0841   -1.3495    2.8755 H         1 <0>         0.0928
     36 H5         -3.6432   -0.6980    2.3160 H         1 <0>         0.0851
     37 H6         -4.0732    0.9492    1.8047 H         1 <0>         0.1392
     38 H7         -5.5254    2.3825    0.4467 H         1 <0>         0.1387
     39 H8         -5.1076    2.6350   -1.9684 H         1 <0>         0.1383
     40 H9         -3.2347    1.4562   -3.0216 H         1 <0>         0.1399
     41 H10        -1.1017    1.9503    0.0585 H         1 <0>         0.3962
     42 H11         2.5396    4.8237   -0.1636 H         1 <0>         0.1593
     43 H12         2.2703    7.7630   -0.0406 H         1 <0>         0.1279
     44 H13         0.6345    9.5628    0.1642 H         1 <0>         0.1268
     45 H14        -1.7635    9.0550    0.3610 H         1 <0>         0.1295
     46 H15        -2.5509    6.7319    0.3532 H         1 <0>         0.1232
     47 H16        -3.8567   -0.8961   -2.9139 H         1 <0>         0.1271
     48 H17        -4.3037   -1.8104   -5.1533 H         1 <0>         0.1286
     49 H18        -2.4531   -2.1591   -6.7363 H         1 <0>         0.1270
     50 H19        -0.1481   -1.5884   -6.0930 H         1 <0>         0.1294
     51 H20         0.3176   -0.6636   -3.8617 H         1 <0>         0.1352
@<TRIPOS>BOND
     1    1    2 1
     2    1   34 1
     3    1   35 1
     4    1   36 1
     5    2   13 am
     6    2    3 1
     7    3    8 ar
     8    3    4 ar
     9    4    5 ar
    10    4   37 1
    11    5    6 ar
    12    5   38 1
    13    6    7 ar
    14    6   39 1
    15    7    8 ar
    16    7   40 1
    17    8    9 1
    18    9   10 2
    19    9   28 1
    20   10   11 1
    21   11   12 1
    22   11   13 1
    23   11   15 1
    24   13   14 2
    25   15   16 am
    26   15   41 1
    27   16   17 2
    28   16   18 1
    29   18   26 1
    30   18   19 2
    31   19   20 1
    32   19   42 1
    33   20   25 ar
    34   20   21 ar
    35   21   22 ar
    36   21   43 1
    37   22   23 ar
    38   22   44 1
    39   23   24 ar
    40   23   45 1
    41   24   25 ar
    42   24   46 1
    43   25   26 1
    44   26   27 1
    45   28   33 ar
    46   28   29 ar
    47   29   30 ar
    48   29   47 1
    49   30   31 ar
    50   30   48 1
    51   31   32 ar
    52   31   49 1
    53   32   33 ar
    54   32   50 1
    55   33   51 1
@<TRIPOS>MOLECULE
ZINC00004448
   42    45     0     0     0
SMALL
USER_CHARGES

@<TRIPOS>ATOM
      1 C1         -0.4391   -3.3377    1.8722 C.3       1 <0>        -0.1123
      2 C2         -0.1697   -2.2466    0.8683 C.cat     1 <0>         0.2989
      3 N1         -0.0089   -2.4170   -0.4155 N.pl3     1 <0>        -0.4743
      4 C3          0.2118   -1.2278   -0.9953 C.2       1 <0>        -0.0131
      5 C4          0.1869   -0.2847   -0.0343 C.2       1 <0>         0.0706
      6 N2         -0.0604   -0.9298    1.1473 N.pl3     1 <0>        -0.3998
      7 C5         -0.1811   -0.3082    2.4684 C.3       1 <0>         0.1079
      8 C6         -1.6568   -0.2375    2.8660 C.3       1 <0>        -0.1546
      9 H1         -2.1022   -1.2287    2.7806 H         1 <0>         0.1154
     10 C7         -1.7700    0.2464    4.3115 C.3       1 <0>        -0.1029
     11 C8         -3.2416    0.3294    4.7350 C.3       1 <0>        -0.0678
     12 C9         -3.9618    1.2252    3.7555 C.2       1 <0>         0.1597
     13 C10        -3.5215    1.3875    2.4463 C.2       1 <0>        -0.2921
     14 C11        -4.4444    2.3149    1.8134 C.ar      1 <0>        -0.0463
     15 C12        -4.5189    2.8565    0.5307 C.ar      1 <0>        -0.0763
     16 C13        -5.5626    3.7304    0.2795 C.ar      1 <0>        -0.1250
     17 C14        -6.4928    4.0558    1.2516 C.ar      1 <0>        -0.1030
     18 C15        -6.4370    3.5295    2.5307 C.ar      1 <0>        -0.1113
     19 C16        -5.3960    2.6468    2.8098 C.ar      1 <0>         0.0678
     20 N3         -5.0642    1.9669    3.9526 N.pl3     1 <0>        -0.4390
     21 C17        -5.8081    2.0387    5.2127 C.3       1 <0>         0.0582
     22 C18        -2.3800    0.7188    1.9432 C.2       1 <0>         0.4331
     23 O1         -1.9955    0.9054    0.8069 O.2       1 <0>        -0.4805
     24 H2         -1.5134   -3.4249    2.0346 H         1 <0>         0.1174
     25 H3         -0.0509   -4.2834    1.4940 H         1 <0>         0.1154
     26 H4          0.0521   -3.0941    2.8143 H         1 <0>         0.1145
     27 H5          0.3800   -1.0566   -2.0483 H         1 <0>         0.2213
     28 H6          0.3302    0.7771   -0.1704 H         1 <0>         0.2190
     29 H7          0.3645   -0.9030    3.2010 H         1 <0>         0.1257
     30 H8          0.2350    0.6987    2.4355 H         1 <0>         0.1281
     31 H9         -1.2451   -0.4489    4.9665 H         1 <0>         0.0978
     32 H10        -1.3139    1.2326    4.3982 H         1 <0>         0.0859
     33 H11        -3.6859   -0.6659    4.7191 H         1 <0>         0.1031
     34 H12        -3.3127    0.7488    5.7386 H         1 <0>         0.1005
     35 H13        -3.7956    2.6061   -0.2312 H         1 <0>         0.1359
     36 H14        -5.6535    4.1710   -0.7023 H         1 <0>         0.1265
     37 H15        -7.2882    4.7431    1.0040 H         1 <0>         0.1296
     38 H16        -7.1689    3.7920    3.2802 H         1 <0>         0.1330
     39 H17        -5.4075    2.8462    5.8256 H         1 <0>         0.0854
     40 H18        -6.8605    2.2295    5.0030 H         1 <0>         0.0945
     41 H19        -5.7096    1.0938    5.7471 H         1 <0>         0.0927
     42 H20        -0.0436   -3.2691   -0.8775 H         1 <0>         0.4603
@<TRIPOS>BOND
     1    1    2 1
     2    1   24 1
     3    1   25 1
     4    1   26 1
     5    2    6 1
     6    2    3 2
     7    3    4 1
     8    3   42 1
     9    4    5 2
    10    4   27 1
    11    5    6 1
    12    5   28 1
    13    6    7 1
    14    7    8 1
    15    7   29 1
    16    7   30 1
    17    8    9 1
    18    8   22 1
    19    8   10 1
    20   10   11 1
    21   10   31 1
    22   10   32 1
    23   11   12 1
    24   11   33 1
    25   11   34 1
    26   12   20 1
    27   12   13 2
    28   13   14 1
    29   13   22 1
    30   14   19 ar
    31   14   15 ar
    32   15   16 ar
    33   15   35 1
    34   16   17 ar
    35   16   36 1
    36   17   18 ar
    37   17   37 1
    38   18   19 ar
    39   18   38 1
    40   19   20 1
    41   20   21 1
    42   21   39 1
    43   21   40 1
    44   21   41 1
    45   22   23 2
@<TRIPOS>MOLECULE
ZINC00004448
   41    44     0     0     0
SMALL
USER_CHARGES

@<TRIPOS>ATOM
      1 C1         -0.4391   -3.3377    1.8722 C.3       1 <0>        -0.0665
      2 C2         -0.1697   -2.2466    0.8683 C.2       1 <0>         0.1894
      3 N1         -0.0089   -2.4170   -0.4155 N.2       1 <0>        -0.4892
      4 C3          0.2118   -1.2278   -0.9953 C.2       1 <0>        -0.0442
      5 C4          0.1868   -0.2847   -0.0343 C.2       1 <0>        -0.0089
      6 N2         -0.0604   -0.9298    1.1473 N.pl3     1 <0>        -0.4502
      7 C5         -0.1811   -0.3082    2.4684 C.3       1 <0>         0.1208
      8 C6         -1.6568   -0.2375    2.8660 C.3       1 <0>        -0.1505
      9 H1         -2.1022   -1.2287    2.7806 H         1 <0>         0.1106
     10 C7         -1.7700    0.2464    4.3115 C.3       1 <0>        -0.1021
     11 C8         -3.2416    0.3294    4.7350 C.3       1 <0>        -0.0641
     12 C9         -3.9618    1.2252    3.7555 C.2       1 <0>         0.1486
     13 C10        -3.5215    1.3875    2.4463 C.2       1 <0>        -0.2760
     14 C11        -4.4444    2.3149    1.8134 C.ar      1 <0>        -0.0490
     15 C12        -4.5189    2.8565    0.5307 C.ar      1 <0>        -0.0694
     16 C13        -5.5626    3.7304    0.2795 C.ar      1 <0>        -0.1333
     17 C14        -6.4928    4.0558    1.2516 C.ar      1 <0>        -0.1057
     18 C15        -6.4370    3.5295    2.5307 C.ar      1 <0>        -0.1186
     19 C16        -5.3960    2.6468    2.8098 C.ar      1 <0>         0.0711
     20 N3         -5.0642    1.9669    3.9526 N.pl3     1 <0>        -0.4472
     21 C17        -5.8081    2.0387    5.2127 C.3       1 <0>         0.0636
     22 C18        -2.3800    0.7188    1.9432 C.2       1 <0>         0.4253
     23 O1         -1.9955    0.9054    0.8069 O.2       1 <0>        -0.4537
     24 H2         -1.5134   -3.4248    2.0346 H         1 <0>         0.0742
     25 H3         -0.0510   -4.2834    1.4939 H         1 <0>         0.0891
     26 H4          0.0522   -3.0941    2.8143 H         1 <0>         0.0704
     27 H5          0.3800   -1.0566   -2.0483 H         1 <0>         0.1656
     28 H6          0.3302    0.7771   -0.1704 H         1 <0>         0.1690
     29 H7          0.3645   -0.9030    3.2010 H         1 <0>         0.0973
     30 H8          0.2350    0.6987    2.4355 H         1 <0>         0.0958
     31 H9         -1.2451   -0.4489    4.9665 H         1 <0>         0.0916
     32 H10        -1.3139    1.2326    4.3982 H         1 <0>         0.0786
     33 H11        -3.6859   -0.6659    4.7191 H         1 <0>         0.0996
     34 H12        -3.3127    0.7488    5.7386 H         1 <0>         0.0928
     35 H13        -3.7956    2.6061   -0.2312 H         1 <0>         0.1375
     36 H14        -5.6535    4.1710   -0.7023 H         1 <0>         0.1236
     37 H15        -7.2882    4.7431    1.0040 H         1 <0>         0.1251
     38 H16        -7.1689    3.7920    3.2802 H         1 <0>         0.1289
     39 H17        -5.4075    2.8462    5.8256 H         1 <0>         0.0801
     40 H18        -6.8605    2.2295    5.0030 H         1 <0>         0.0900
     41 H19        -5.7096    1.0938    5.7471 H         1 <0>         0.0899
@<TRIPOS>BOND
     1    1    2 1
     2    1   24 1
     3    1   25 1
     4    1   26 1
     5    2    6 1
     6    2    3 2
     7    3    4 1
     8    4    5 2
     9    4   27 1
    10    5    6 1
    11    5   28 1
    12    6    7 1
    13    7    8 1
    14    7   29 1
    15    7   30 1
    16    8    9 1
    17    8   22 1
    18    8   10 1
    19   10   11 1
    20   10   31 1
    21   10   32 1
    22   11   12 1
    23   11   33 1
    24   11   34 1
    25   12   20 1
    26   12   13 2
    27   13   14 1
    28   13   22 1
    29   14   19 ar
    30   14   15 ar
    31   15   16 ar
    32   15   35 1
    33   16   17 ar
    34   16   36 1
    35   17   18 ar
    36   17   37 1
    37   18   19 ar
    38   18   38 1
    39   19   20 1
    40   20   21 1
    41   21   39 1
    42   21   40 1
    43   21   41 1
    44   22   23 2
@<TRIPOS>MOLECULE
ZINC00075126
   42    45     0     0     0
SMALL
USER_CHARGES

@<TRIPOS>ATOM
      1 C1         -0.0184    1.5028    0.0103 C.3       1 <0>        -0.1124
      2 C2          0.0021   -0.0041    0.0020 C.cat     1 <0>         0.2979
      3 N1          0.0080   -0.7588   -1.0626 N.pl3     1 <0>        -0.4737
      4 C3          0.0275   -2.0475   -0.6911 C.2       1 <0>        -0.0205
      5 C4          0.0339   -2.0930    0.6548 C.2       1 <0>         0.0808
      6 N2          0.0232   -0.7970    1.0950 N.pl3     1 <0>        -0.4033
      7 C5          0.0304   -0.3529    2.4910 C.3       1 <0>         0.1075
      8 C6         -1.4059   -0.0982    2.9525 C.3       1 <0>        -0.1549
      9 H1         -1.8841    0.6077    2.2734 H         1 <0>         0.1159
     10 C7         -1.3885    0.4885    4.3640 C.3       1 <0>        -0.1033
     11 C8         -2.8183    0.7509    4.8527 C.3       1 <0>        -0.0678
     12 C9         -3.5900   -0.5440    4.7622 C.2       1 <0>         0.1608
     13 C10        -3.2525   -1.5391    3.8511 C.2       1 <0>        -0.2929
     14 C11        -4.1973   -2.6242    4.0575 C.ar      1 <0>        -0.0457
     15 C12        -4.3599   -3.8715    3.4560 C.ar      1 <0>        -0.0764
     16 C13        -5.3958   -4.6619    3.9235 C.ar      1 <0>        -0.1247
     17 C14        -6.2353   -4.2398    4.9399 C.ar      1 <0>        -0.1031
     18 C15        -6.0913   -3.0056    5.5500 C.ar      1 <0>        -0.1109
     19 C16        -5.0557   -2.1905    5.0985 C.ar      1 <0>         0.0674
     20 N3         -4.6518   -0.9388    5.4840 N.pl3     1 <0>        -0.4386
     21 C17        -5.2885   -0.1432    6.5366 C.3       1 <0>         0.0582
     22 C18        -2.1743   -1.4014    2.9445 C.2       1 <0>         0.4351
     23 O1         -1.8781   -2.2996    2.1833 O.2       1 <0>        -0.4834
     24 H2          1.0042    1.8801    0.0026 H         1 <0>         0.1202
     25 H3         -0.5455    1.8639   -0.8728 H         1 <0>         0.1154
     26 H4         -0.5286    1.8543    0.9071 H         1 <0>         0.1111
     27 H5          0.0365   -2.8993   -1.3550 H         1 <0>         0.2206
     28 H6          0.0489   -2.9814    1.2688 H         1 <0>         0.2208
     29 H7          0.4812   -1.1244    3.1154 H         1 <0>         0.1274
     30 H8          0.6082    0.5674    2.5767 H         1 <0>         0.1264
     31 H9         -0.8997   -0.2132    5.0399 H         1 <0>         0.0860
     32 H10        -0.8320    1.4257    4.3579 H         1 <0>         0.0979
     33 H11        -2.7965    1.0950    5.8867 H         1 <0>         0.1003
     34 H12        -3.2899    1.5053    4.2230 H         1 <0>         0.1037
     35 H13        -3.7083   -4.2053    2.6621 H         1 <0>         0.1362
     36 H14        -5.5535   -5.6351    3.4825 H         1 <0>         0.1266
     37 H15        -7.0290   -4.8948    5.2675 H         1 <0>         0.1297
     38 H16        -6.7537   -2.6880    6.3417 H         1 <0>         0.1330
     39 H17        -6.0755    0.4723    6.1009 H         1 <0>         0.0853
     40 H18        -5.7197   -0.8087    7.2844 H         1 <0>         0.0946
     41 H19        -4.5439    0.4986    7.0075 H         1 <0>         0.0930
     42 H20        -0.0004   -0.4384   -1.9781 H         1 <0>         0.4599
@<TRIPOS>BOND
     1    1    2 1
     2    1   24 1
     3    1   25 1
     4    1   26 1
     5    2    6 1
     6    2    3 2
     7    3    4 1
     8    3   42 1
     9    4    5 2
    10    4   27 1
    11    5    6 1
    12    5   28 1
    13    6    7 1
    14    7    8 1
    15    7   29 1
    16    7   30 1
    17    8    9 1
    18    8   22 1
    19    8   10 1
    20   10   11 1
    21   10   31 1
    22   10   32 1
    23   11   12 1
    24   11   33 1
    25   11   34 1
    26   12   20 1
    27   12   13 2
    28   13   14 1
    29   13   22 1
    30   14   19 ar
    31   14   15 ar
    32   15   16 ar
    33   15   35 1
    34   16   17 ar
    35   16   36 1
    36   17   18 ar
    37   17   37 1
    38   18   19 ar
    39   18   38 1
    40   19   20 1
    41   20   21 1
    42   21   39 1
    43   21   40 1
    44   21   41 1
    45   22   23 2
@<TRIPOS>MOLECULE
ZINC00075126
   41    44     0     0     0
SMALL
USER_CHARGES

@<TRIPOS>ATOM
      1 C1         -0.0184    1.5028    0.0103 C.3       1 <0>        -0.0661
      2 C2          0.0021   -0.0041    0.0020 C.2       1 <0>         0.1869
      3 N1          0.0080   -0.7588   -1.0626 N.2       1 <0>        -0.4889
      4 C3          0.0275   -2.0475   -0.6911 C.2       1 <0>        -0.0505
      5 C4          0.0339   -2.0930    0.6548 C.2       1 <0>         0.0014
      6 N2          0.0232   -0.7970    1.0950 N.pl3     1 <0>        -0.4534
      7 C5          0.0304   -0.3529    2.4910 C.3       1 <0>         0.1206
      8 C6         -1.4059   -0.0982    2.9525 C.3       1 <0>        -0.1509
      9 H1         -1.8841    0.6077    2.2734 H         1 <0>         0.1102
     10 C7         -1.3885    0.4885    4.3640 C.3       1 <0>        -0.1025
     11 C8         -2.8183    0.7509    4.8527 C.3       1 <0>        -0.0640
     12 C9         -3.5900   -0.5440    4.7622 C.2       1 <0>         0.1489
     13 C10        -3.2525   -1.5391    3.8511 C.2       1 <0>        -0.2766
     14 C11        -4.1973   -2.6242    4.0575 C.ar      1 <0>        -0.0486
     15 C12        -4.3599   -3.8715    3.4560 C.ar      1 <0>        -0.0694
     16 C13        -5.3958   -4.6619    3.9235 C.ar      1 <0>        -0.1332
     17 C14        -6.2353   -4.2398    4.9399 C.ar      1 <0>        -0.1059
     18 C15        -6.0913   -3.0056    5.5500 C.ar      1 <0>        -0.1184
     19 C16        -5.0557   -2.1905    5.0985 C.ar      1 <0>         0.0708
     20 N3         -4.6518   -0.9388    5.4840 N.pl3     1 <0>        -0.4469
     21 C17        -5.2885   -0.1432    6.5366 C.3       1 <0>         0.0636
     22 C18        -2.1743   -1.4014    2.9445 C.2       1 <0>         0.4259
     23 O1         -1.8781   -2.2996    2.1833 O.2       1 <0>        -0.4545
     24 H2          1.0042    1.8801    0.0026 H         1 <0>         0.0774
     25 H3         -0.5455    1.8639   -0.8728 H         1 <0>         0.0878
     26 H4         -0.5286    1.8543    0.9071 H         1 <0>         0.0677
     27 H5          0.0365   -2.8993   -1.3550 H         1 <0>         0.1650
     28 H6          0.0489   -2.9814    1.2688 H         1 <0>         0.1714
     29 H7          0.4812   -1.1244    3.1154 H         1 <0>         0.0947
     30 H8          0.6082    0.5674    2.5767 H         1 <0>         0.0991
     31 H9         -0.8997   -0.2132    5.0399 H         1 <0>         0.0787
     32 H10        -0.8320    1.4257    4.3579 H         1 <0>         0.0916
     33 H11        -2.7965    1.0950    5.8867 H         1 <0>         0.0925
     34 H12        -3.2899    1.5053    4.2230 H         1 <0>         0.0998
     35 H13        -3.7083   -4.2053    2.6621 H         1 <0>         0.1378
     36 H14        -5.5535   -5.6351    3.4825 H         1 <0>         0.1237
     37 H15        -7.0290   -4.8948    5.2675 H         1 <0>         0.1251
     38 H16        -6.7537   -2.6880    6.3417 H         1 <0>         0.1289
     39 H17        -6.0755    0.4723    6.1009 H         1 <0>         0.0805
     40 H18        -5.7197   -0.8087    7.2844 H         1 <0>         0.0898
     41 H19        -4.5439    0.4986    7.0075 H         1 <0>         0.0898
@<TRIPOS>BOND
     1    1    2 1
     2    1   24 1
     3    1   25 1
     4    1   26 1
     5    2    6 1
     6    2    3 2
     7    3    4 1
     8    4    5 2
     9    4   27 1
    10    5    6 1
    11    5   28 1
    12    6    7 1
    13    7    8 1
    14    7   29 1
    15    7   30 1
    16    8    9 1
    17    8   22 1
    18    8   10 1
    19   10   11 1
    20   10   31 1
    21   10   32 1
    22   11   12 1
    23   11   33 1
    24   11   34 1
    25   12   20 1
    26   12   13 2
    27   13   14 1
    28   13   22 1
    29   14   19 ar
    30   14   15 ar
    31   15   16 ar
    32   15   35 1
    33   16   17 ar
    34   16   36 1
    35   17   18 ar
    36   17   37 1
    37   18   19 ar
    38   18   38 1
    39   19   20 1
    40   20   21 1
    41   21   39 1
    42   21   40 1
    43   21   41 1
    44   22   23 2
@<TRIPOS>MOLECULE
ZINC03797417
   52    55     0     0     0
SMALL
USER_CHARGES
3-(2-methyl-3-oxo-6-phenyl-2,5-diazabicyclo[5.4.0]undeca-5,8,10,12-tetraen-4-yl)-1-(m-tolyl)urea
@<TRIPOS>ATOM
      1 C1          0.4589    2.9754    1.3209 C.3       1 <0>        -0.1148
      2 C2          1.4028    2.0717    0.5703 C.ar      1 <0>        -0.0662
      3 C3          2.4835    2.6093   -0.1048 C.ar      1 <0>        -0.1373
      4 C4          3.3486    1.7842   -0.7993 C.ar      1 <0>        -0.0954
      5 C5          3.1356    0.4195   -0.8210 C.ar      1 <0>        -0.1267
      6 C6          2.0515   -0.1233   -0.1444 C.ar      1 <0>         0.1685
      7 C7          1.1844    0.7082    0.5524 C.ar      1 <0>        -0.1489
      8 N1          1.8333   -1.5055   -0.1640 N.am      1 <0>        -0.6802
      9 C8          2.8800   -2.3521   -0.2288 C.2       1 <0>         0.7166
     10 O1          4.0153   -1.9205   -0.1744 O.2       1 <0>        -0.5696
     11 N2          2.6681   -3.6773   -0.3539 N.am      1 <0>        -0.7027
     12 C9          3.8058   -4.5975   -0.4243 C.3       1 <0>         0.3054
     13 H1          4.7115   -4.0836   -0.1023 H         1 <0>         0.1294
     14 C10         3.5529   -5.7806    0.4699 C.2       1 <0>         0.5065
     15 O2          2.4935   -5.8635    1.0544 O.2       1 <0>        -0.5075
     16 N3          4.4620   -6.7386    0.6365 N.am      1 <0>        -0.5492
     17 C11         5.7292   -6.7417    0.0747 C.ar      1 <0>         0.1723
     18 C12         6.7842   -7.1865    0.8743 C.ar      1 <0>        -0.1423
     19 C13         8.0709   -7.2204    0.3844 C.ar      1 <0>        -0.0723
     20 C14         8.3316   -6.8111   -0.9131 C.ar      1 <0>        -0.1295
     21 C15         7.3052   -6.3689   -1.7149 C.ar      1 <0>        -0.0580
     22 C16         5.9888   -6.3281   -1.2302 C.ar      1 <0>        -0.1345
     23 C17         4.9415   -5.8397   -2.1409 C.2       1 <0>         0.2836
     24 N4          3.9698   -5.0693   -1.7987 N.2       1 <0>        -0.5089
     25 C18         5.0116   -6.2668   -3.5578 C.ar      1 <0>        -0.0685
     26 C19         4.4138   -5.4933   -4.5526 C.ar      1 <0>        -0.0675
     27 C20         4.4878   -5.8931   -5.8711 C.ar      1 <0>        -0.1268
     28 C21         5.1432   -7.0646   -6.2059 C.ar      1 <0>        -0.0988
     29 C22         5.7329   -7.8392   -5.2230 C.ar      1 <0>        -0.1253
     30 C23         5.6709   -7.4468   -3.9016 C.ar      1 <0>        -0.0876
     31 C24         4.0946   -7.8787    1.4800 C.3       1 <0>         0.0611
     32 H2          0.8055    3.0902    2.3479 H         1 <0>         0.0716
     33 H3          0.4280    3.9514    0.8366 H         1 <0>         0.0684
     34 H4         -0.5396    2.5382    1.3212 H         1 <0>         0.0664
     35 H5          2.6521    3.6760   -0.0893 H         1 <0>         0.1231
     36 H6          4.1916    2.2070   -1.3255 H         1 <0>         0.1258
     37 H7          3.8119   -0.2246   -1.3635 H         1 <0>         0.1359
     38 H8          0.3401    0.2890    1.0794 H         1 <0>         0.1248
     39 H9          0.9288   -1.8542   -0.1310 H         1 <0>         0.4096
     40 H10         1.7623   -4.0216   -0.3973 H         1 <0>         0.4096
     41 H11         6.5890   -7.5075    1.8869 H         1 <0>         0.1356
     42 H12         8.8782   -7.5664    1.0129 H         1 <0>         0.1364
     43 H13         9.3413   -6.8389   -1.2952 H         1 <0>         0.1364
     44 H14         7.5140   -6.0511   -2.7257 H         1 <0>         0.1382
     45 H15         3.8978   -4.5811   -4.2918 H         1 <0>         0.1324
     46 H16         4.0294   -5.2926   -6.6429 H         1 <0>         0.1275
     47 H17         5.1943   -7.3759   -7.2388 H         1 <0>         0.1259
     48 H18         6.2430   -8.7528   -5.4904 H         1 <0>         0.1283
     49 H19         6.1322   -8.0519   -3.1352 H         1 <0>         0.1280
     50 H20         3.0788   -7.7434    1.8515 H         1 <0>         0.1015
     51 H21         4.1479   -8.7963    0.8941 H         1 <0>         0.0744
     52 H22         4.7836   -7.9447    2.3220 H         1 <0>         0.0750
@<TRIPOS>BOND
     1    1    2 1
     2    1   32 1
     3    1   33 1
     4    1   34 1
     5    2    7 ar
     6    2    3 ar
     7    3    4 ar
     8    3   35 1
     9    4    5 ar
    10    4   36 1
    11    5    6 ar
    12    5   37 1
    13    6    7 ar
    14    6    8 1
    15    7   38 1
    16    8    9 am
    17    8   39 1
    18    9   10 2
    19    9   11 am
    20   11   12 1
    21   11   40 1
    22   12   13 1
    23   12   24 1
    24   12   14 1
    25   14   15 2
    26   14   16 am
    27   16   17 1
    28   16   31 1
    29   17   22 ar
    30   17   18 ar
    31   18   19 ar
    32   18   41 1
    33   19   20 ar
    34   19   42 1
    35   20   21 ar
    36   20   43 1
    37   21   22 ar
    38   21   44 1
    39   22   23 1
    40   23   24 2
    41   23   25 1
    42   25   30 ar
    43   25   26 ar
    44   26   27 ar
    45   26   45 1
    46   27   28 ar
    47   27   46 1
    48   28   29 ar
    49   28   47 1
    50   29   30 ar
    51   29   48 1
    52   30   49 1
    53   31   50 1
    54   31   51 1
    55   31   52 1
@<TRIPOS>MOLECULE
ZINC01847292
   51    55     0     0     0
SMALL
USER_CHARGES

@<TRIPOS>ATOM
      1 C1          0.5657    1.4218    0.1931 C.3       1 <0>         0.0609
      2 N1          0.3242   -0.0205    0.1050 N.am      1 <0>        -0.5485
      3 C2         -0.9917   -0.4526    0.1628 C.ar      1 <0>         0.1717
      4 C3         -1.9447    0.2999   -0.5269 C.ar      1 <0>        -0.1421
      5 C4         -3.2724   -0.0664   -0.5140 C.ar      1 <0>        -0.0717
      6 C5         -3.6765   -1.1903    0.1877 C.ar      1 <0>        -0.1290
      7 C6         -2.7517   -1.9440    0.8722 C.ar      1 <0>        -0.0579
      8 C7         -1.3951   -1.5845    0.8680 C.ar      1 <0>        -0.1352
      9 C8         -0.4608   -2.4385    1.6179 C.2       1 <0>         0.2857
     10 N2          0.7148   -2.7713    1.2172 N.2       1 <0>        -0.5096
     11 C9          1.2534   -2.3111   -0.0622 C.3       1 <0>         0.2879
     12 H1          0.5771   -2.5981   -0.8674 H         1 <0>         0.1294
     13 C10         1.3851   -0.8131   -0.0296 C.2       1 <0>         0.5073
     14 O1          2.4867   -0.3146   -0.1240 O.2       1 <0>        -0.5087
     15 N3          2.5685   -2.9162   -0.2870 N.am      1 <0>        -0.6915
     16 C11         2.7051   -3.9213   -1.1744 C.2       1 <0>         0.5979
     17 O2          1.7362   -4.3262   -1.7887 O.2       1 <0>        -0.5174
     18 C12         4.0252   -4.5287   -1.4001 C.2       1 <0>         0.0120
     19 C13         4.2891   -5.5395   -2.2688 C.2       1 <0>        -0.0944
     20 C14         5.6723   -5.8299   -2.1850 C.ar      1 <0>        -0.1229
     21 C15         6.5019   -6.7562   -2.8306 C.ar      1 <0>        -0.0576
     22 C16         7.8323   -6.7999   -2.5311 C.ar      1 <0>        -0.1485
     23 C17         8.3745   -5.9336   -1.5898 C.ar      1 <0>        -0.0827
     24 C18         7.5801   -5.0149   -0.9417 C.ar      1 <0>        -0.1347
     25 C19         6.2196   -4.9503   -1.2307 C.ar      1 <0>         0.1182
     26 N4          5.1959   -4.1585   -0.7670 N.pl3     1 <0>        -0.5778
     27 H2          5.2811   -3.4568   -0.1026 H         1 <0>         0.4182
     28 C20        -0.9077   -2.9531    2.9333 C.ar      1 <0>        -0.0699
     29 C21        -0.3328   -4.1068    3.4658 C.ar      1 <0>        -0.0672
     30 C22        -0.7533   -4.5813    4.6914 C.ar      1 <0>        -0.1267
     31 C23        -1.7433   -3.9152    5.3915 C.ar      1 <0>        -0.0979
     32 C24        -2.3173   -2.7702    4.8686 C.ar      1 <0>        -0.1254
     33 C25        -1.9009   -2.2825    3.6468 C.ar      1 <0>        -0.0873
     34 H3          1.6365    1.6154    0.1298 H         1 <0>         0.1015
     35 H4          0.0562    1.9263   -0.6279 H         1 <0>         0.0755
     36 H5          0.1841    1.7968    1.1427 H         1 <0>         0.0748
     37 H6         -1.6377    1.1780   -1.0755 H         1 <0>         0.1359
     38 H7         -3.9997    0.5238   -1.0517 H         1 <0>         0.1369
     39 H8         -4.7182   -1.4750    0.1971 H         1 <0>         0.1369
     40 H9         -3.0722   -2.8194    1.4176 H         1 <0>         0.1388
     41 H10         3.3410   -2.5934    0.2028 H         1 <0>         0.4075
     42 H11         3.5723   -6.0328   -2.9086 H         1 <0>         0.1580
     43 H12         6.0892   -7.4340   -3.5631 H         1 <0>         0.1271
     44 H13         8.4697   -7.5148   -3.0301 H         1 <0>         0.1261
     45 H14         9.4296   -5.9816   -1.3642 H         1 <0>         0.1290
     46 H15         8.0108   -4.3463   -0.2111 H         1 <0>         0.1237
     47 H16         0.4396   -4.6281    2.9198 H         1 <0>         0.1326
     48 H17        -0.3089   -5.4746    5.1047 H         1 <0>         0.1279
     49 H18        -2.0696   -4.2907    6.3501 H         1 <0>         0.1263
     50 H19        -3.0897   -2.2545    5.4198 H         1 <0>         0.1286
     51 H20        -2.3464   -1.3859    3.2417 H         1 <0>         0.1284
@<TRIPOS>BOND
     1    1    2 1
     2    1   34 1
     3    1   35 1
     4    1   36 1
     5    2   13 am
     6    2    3 1
     7    3    8 ar
     8    3    4 ar
     9    4    5 ar
    10    4   37 1
    11    5    6 ar
    12    5   38 1
    13    6    7 ar
    14    6   39 1
    15    7    8 ar
    16    7   40 1
    17    8    9 1
    18    9   10 2
    19    9   28 1
    20   10   11 1
    21   11   12 1
    22   11   13 1
    23   11   15 1
    24   13   14 2
    25   15   16 am
    26   15   41 1
    27   16   17 2
    28   16   18 1
    29   18   26 1
    30   18   19 2
    31   19   20 1
    32   19   42 1
    33   20   25 ar
    34   20   21 ar
    35   21   22 ar
    36   21   43 1
    37   22   23 ar
    38   22   44 1
    39   23   24 ar
    40   23   45 1
    41   24   25 ar
    42   24   46 1
    43   25   26 1
    44   26   27 1
    45   28   33 ar
    46   28   29 ar
    47   29   30 ar
    48   29   47 1
    49   30   31 ar
    50   30   48 1
    51   31   32 ar
    52   31   49 1
    53   32   33 ar
    54   32   50 1
    55   33   51 1
