@<TRIPOS>MOLECULE
ZINC06507046
   30    32     0     0     0
SMALL
USER_CHARGES

@<TRIPOS>ATOM
      1 C1         -0.0187    1.5258    0.0104 C.3       1 <0>        -0.1516
      2 C2          0.0021   -0.0041    0.0020 C.3       1 <0>         0.0576
      3 O1          0.6932   -0.4774    1.1597 O.3       1 <0>        -0.3290
      4 C3          0.8010   -1.8125    1.3044 C.2       1 <0>         0.5310
      5 O2          0.3215   -2.5545    0.4707 O.2       1 <0>        -0.5021
      6 C4          1.5026   -2.3743    2.4772 C.ar      1 <0>         0.0402
      7 C5          1.6143   -3.7553    2.6160 C.ar      1 <0>        -0.0333
      8 C6          2.2792   -4.2624    3.7284 C.ar      1 <0>        -0.0831
      9 C7          2.5953   -5.6144    4.2150 C.ar      1 <0>        -0.1038
     10 C8          2.3393   -6.8954    3.7304 C.ar      1 <0>        -0.0556
     11 C9          2.7783   -7.9949    4.4350 C.ar      1 <0>        -0.1428
     12 C10         3.4736   -7.8308    5.6237 C.ar      1 <0>        -0.0754
     13 C11         3.7339   -6.5702    6.1150 C.ar      1 <0>        -0.1379
     14 C12         3.2989   -5.4466    5.4180 C.ar      1 <0>         0.1403
     15 N1          3.4169   -4.0919    5.6699 N.pl3     1 <0>        -0.5953
     16 C13         2.8128   -3.3630    4.6699 C.ar      1 <0>         0.1173
     17 C14         2.6538   -1.9943    4.4511 C.ar      1 <0>         0.0980
     18 N2          2.0253   -1.5542    3.3864 N.ar      1 <0>        -0.4039
     19 H1          1.0039    1.9031    0.0027 H         1 <0>         0.0677
     20 H2         -0.5459    1.8868   -0.8726 H         1 <0>         0.0803
     21 H3         -0.5289    1.8773    0.9072 H         1 <0>         0.0677
     22 H4         -1.0205   -0.3814    0.0098 H         1 <0>         0.0690
     23 H5          0.5123   -0.3556   -0.8948 H         1 <0>         0.0690
     24 H6          1.1933   -4.4194    1.8756 H         1 <0>         0.1539
     25 H7          1.7978   -7.0261    2.8052 H         1 <0>         0.1310
     26 H8          2.5801   -8.9882    4.0604 H         1 <0>         0.1325
     27 H9          3.8135   -8.6987    6.1693 H         1 <0>         0.1343
     28 H10         4.2762   -6.4537    7.0417 H         1 <0>         0.1294
     29 H11         3.0568   -1.2892    5.1630 H         1 <0>         0.1699
     30 H12         3.8619   -3.7092    6.4422 H         1 <0>         0.4248
@<TRIPOS>BOND
     1    1    2 1
     2    1   19 1
     3    1   20 1
     4    1   21 1
     5    2    3 1
     6    2   22 1
     7    2   23 1
     8    3    4 1
     9    4    5 2
    10    4    6 1
    11    6   18 ar
    12    6    7 ar
    13    7    8 ar
    14    7   24 1
    15    8   16 ar
    16    8    9 1
    17    9   14 ar
    18    9   10 ar
    19   10   11 ar
    20   10   25 1
    21   11   12 ar
    22   11   26 1
    23   12   13 ar
    24   12   27 1
    25   13   14 ar
    26   13   28 1
    27   14   15 1
    28   15   16 1
    29   15   30 1
    30   16   17 ar
    31   17   18 ar
    32   17   29 1
@<TRIPOS>MOLECULE
ZINC06507046
   31    33     0     0     0
SMALL
USER_CHARGES

@<TRIPOS>ATOM
      1 C1         -0.0187    1.5258    0.0104 C.3       1 <0>        -0.1574
      2 C2          0.0021   -0.0041    0.0020 C.3       1 <0>         0.0635
      3 O1          0.6709   -0.4649   -1.1737 O.3       1 <0>        -0.3539
      4 C3          0.7758   -1.7984   -1.3347 C.2       1 <0>         0.5063
      5 O2          0.3122   -2.5493   -0.5000 O.2       1 <0>        -0.4447
      6 C4          1.4548   -2.3474   -2.5266 C.ar      1 <0>         0.0584
      7 C5          1.5538   -3.7270   -2.6880 C.ar      1 <0>         0.0150
      8 C6          2.1974   -4.2220   -3.8182 C.ar      1 <0>        -0.0128
      9 C7          2.4947   -5.5688   -4.3305 C.ar      1 <0>        -0.1156
     10 C8          2.2352   -6.8550   -3.8620 C.ar      1 <0>        -0.0440
     11 C9          2.6535   -7.9469   -4.5907 C.ar      1 <0>        -0.1219
     12 C10         3.3312   -7.7700   -5.7877 C.ar      1 <0>        -0.0454
     13 C11         3.5947   -6.5040   -6.2632 C.ar      1 <0>        -0.1296
     14 C12         3.1805   -5.3879   -5.5419 C.ar      1 <0>         0.1539
     15 N1          3.3056   -4.0304   -5.7748 N.pl3     1 <0>        -0.5653
     16 C13         2.7234   -3.3124   -4.7542 C.ar      1 <0>         0.1319
     17 C14         2.5790   -1.9460   -4.5119 C.ar      1 <0>         0.1494
     18 N2          1.9602   -1.5175   -3.4368 N.ar      1 <0>        -0.3940
     19 H1          1.0039    1.9031    0.0027 H         1 <0>         0.0711
     20 H2         -0.5459    1.8868   -0.8726 H         1 <0>         0.0710
     21 H3         -0.5289    1.8773    0.9072 H         1 <0>         0.0933
     22 H4          0.5293   -0.3651    0.8851 H         1 <0>         0.0826
     23 H5         -1.0205   -0.3814    0.0098 H         1 <0>         0.0826
     24 H6          1.1398   -4.3991   -1.9509 H         1 <0>         0.1968
     25 H7          1.7080   -6.9958   -2.9300 H         1 <0>         0.1443
     26 H8          2.4532   -8.9444   -4.2283 H         1 <0>         0.1478
     27 H9          3.6554   -8.6320   -6.3518 H         1 <0>         0.1500
     28 H10         4.1232   -6.3775   -7.1965 H         1 <0>         0.1440
     29 H11         2.9763   -1.2332   -5.2193 H         1 <0>         0.2207
     30 H12         3.7422   -3.6394   -6.5476 H         1 <0>         0.4401
     31 H13         1.8718   -0.5616   -3.2980 H         1 <0>         0.4618
@<TRIPOS>BOND
     1    1    2 1
     2    1   19 1
     3    1   20 1
     4    1   21 1
     5    2    3 1
     6    2   22 1
     7    2   23 1
     8    3    4 1
     9    4    5 2
    10    4    6 1
    11    6   18 ar
    12    6    7 ar
    13    7    8 ar
    14    7   24 1
    15    8   16 ar
    16    8    9 1
    17    9   14 ar
    18    9   10 ar
    19   10   11 ar
    20   10   25 1
    21   11   12 ar
    22   11   26 1
    23   12   13 ar
    24   12   27 1
    25   13   14 ar
    26   13   28 1
    27   14   15 1
    28   15   16 1
    29   15   30 1
    30   16   17 ar
    31   17   18 ar
    32   17   29 1
    33   18   31 1
@<TRIPOS>MOLECULE
ZINC00006427
   33    35     0     0     0
SMALL
USER_CHARGES

@<TRIPOS>ATOM
      1 C1          0.5645    1.4220    0.1928 C.3       1 <0>         0.0583
      2 N1          0.3235   -0.0204    0.1049 N.am      1 <0>        -0.5555
      3 C2         -0.9927   -0.4531    0.1626 C.ar      1 <0>         0.1844
      4 C3         -1.9457    0.2992   -0.5272 C.ar      1 <0>        -0.1319
      5 C4         -3.2733   -0.0670   -0.5149 C.ar      1 <0>        -0.0651
      6 C5         -3.6777   -1.1917    0.1872 C.ar      1 <0>        -0.0514
      7 C6         -2.7519   -1.9453    0.8726 C.ar      1 <0>        -0.0516
      8 C7         -1.3954   -1.5853    0.8674 C.ar      1 <0>        -0.1200
      9 C8         -0.4607   -2.4388    1.6175 C.2       1 <0>         0.2679
     10 N2          0.7150   -2.7715    1.2168 N.2       1 <0>        -0.4888
     11 C9          1.2537   -2.3110   -0.0624 C.3       1 <0>         0.0242
     12 C10         1.3847   -0.8126   -0.0296 C.2       1 <0>         0.5094
     13 O1          2.4861   -0.3137   -0.1239 O.2       1 <0>        -0.5107
     14 C11        -0.9076   -2.9538    2.9327 C.ar      1 <0>        -0.0709
     15 C12        -0.3330   -4.1079    3.4647 C.ar      1 <0>        -0.0682
     16 C13        -0.7535   -4.5827    4.6901 C.ar      1 <0>        -0.1263
     17 C14        -1.7429   -3.9163    5.3909 C.ar      1 <0>        -0.0986
     18 C15        -2.3166   -2.7710    4.8684 C.ar      1 <0>        -0.1241
     19 C16        -1.9005   -2.2832    3.6466 C.ar      1 <0>        -0.0904
     20 Cl1        -5.3522   -1.6496    0.2025 Cl        1 <0>        -0.0531
     21 H1          1.6353    1.6160    0.1296 H         1 <0>         0.1025
     22 H2          0.0549    1.9262   -0.6283 H         1 <0>         0.0740
     23 H3          0.1827    1.7970    1.1424 H         1 <0>         0.0729
     24 H4         -1.6385    1.1774   -1.0758 H         1 <0>         0.1452
     25 H5         -4.0004    0.5233   -1.0528 H         1 <0>         0.1468
     26 H6         -3.0719   -2.8206    1.4183 H         1 <0>         0.1484
     27 H7          2.2331   -2.7595   -0.2287 H         1 <0>         0.1343
     28 H8          0.5774   -2.5976   -0.8678 H         1 <0>         0.0942
     29 H9          0.4392   -4.6292    2.9184 H         1 <0>         0.1347
     30 H10        -0.3096   -5.4765    5.1029 H         1 <0>         0.1285
     31 H11        -2.0690   -4.2920    6.3495 H         1 <0>         0.1264
     32 H12        -3.0889   -2.2553    5.4199 H         1 <0>         0.1284
     33 H13        -2.3460   -1.3865    3.2417 H         1 <0>         0.1261
@<TRIPOS>BOND
     1    1    2 1
     2    1   21 1
     3    1   22 1
     4    1   23 1
     5    2   12 am
     6    2    3 1
     7    3    8 ar
     8    3    4 ar
     9    4    5 ar
    10    4   24 1
    11    5    6 ar
    12    5   25 1
    13    6    7 ar
    14    6   20 1
    15    7    8 ar
    16    7   26 1
    17    8    9 1
    18    9   10 2
    19    9   14 1
    20   10   11 1
    21   11   12 1
    22   11   27 1
    23   11   28 1
    24   12   13 2
    25   14   19 ar
    26   14   15 ar
    27   15   16 ar
    28   15   29 1
    29   16   17 ar
    30   16   30 1
    31   17   18 ar
    32   17   31 1
    33   18   19 ar
    34   18   32 1
    35   19   33 1
@<TRIPOS>MOLECULE
ZINC00025301
   27    29     0     0     0
SMALL
USER_CHARGES

@<TRIPOS>ATOM
      1 C1         -0.0173    1.4248    0.0099 C.3       1 <0>         0.0312
      2 O1          0.0021   -0.0041    0.0020 O.3       1 <0>        -0.3302
      3 C2          0.6204   -0.6130    1.0325 C.2       1 <0>         0.5293
      4 O2          1.1292    0.0507    1.9135 O.2       1 <0>        -0.5011
      5 C3          0.6797   -2.0882    1.0910 C.ar      1 <0>         0.0397
      6 C4          1.3159   -2.7095    2.1626 C.ar      1 <0>        -0.0329
      7 C5          1.3598   -4.1000    2.1971 C.ar      1 <0>        -0.0832
      8 C6          1.9195   -5.0927    3.1278 C.ar      1 <0>        -0.1038
      9 C7          2.6185   -4.9977    4.3293 C.ar      1 <0>        -0.0556
     10 C8          3.0181   -6.1435    4.9819 C.ar      1 <0>        -0.1427
     11 C9          2.7270   -7.3895    4.4472 C.ar      1 <0>        -0.0753
     12 C10         2.0365   -7.4987    3.2600 C.ar      1 <0>        -0.1378
     13 C11         1.6241   -6.3532    2.5853 C.ar      1 <0>         0.1402
     14 N1          0.9310   -6.1684    1.4028 N.pl3     1 <0>        -0.5952
     15 H1          0.6094   -6.8838    0.8322 H         1 <0>         0.4248
     16 C12         0.7612   -4.8255    1.1505 C.ar      1 <0>         0.1174
     17 C13         0.1456   -4.1204    0.1158 C.ar      1 <0>         0.0983
     18 N2          0.1196   -2.8083    0.1213 N.ar      1 <0>        -0.4043
     19 H2          1.0053    1.8021    0.0021 H         1 <0>         0.0622
     20 H3         -0.5445    1.7859   -0.8732 H         1 <0>         0.1054
     21 H4         -0.5275    1.7763    0.9067 H         1 <0>         0.0622
     22 H5          1.7663   -2.1243    2.9506 H         1 <0>         0.1540
     23 H6          2.8469   -4.0286    4.7478 H         1 <0>         0.1310
     24 H7          3.5603   -6.0709    5.9131 H         1 <0>         0.1325
     25 H8          3.0446   -8.2820    4.9658 H         1 <0>         0.1343
     26 H9          1.8151   -8.4740    2.8524 H         1 <0>         0.1294
     27 H10        -0.3191   -4.6604   -0.6960 H         1 <0>         0.1702
@<TRIPOS>BOND
     1    1    2 1
     2    1   19 1
     3    1   20 1
     4    1   21 1
     5    2    3 1
     6    3    4 2
     7    3    5 1
     8    5   18 ar
     9    5    6 ar
    10    6    7 ar
    11    6   22 1
    12    7   16 ar
    13    7    8 1
    14    8   13 ar
    15    8    9 ar
    16    9   10 ar
    17    9   23 1
    18   10   11 ar
    19   10   24 1
    20   11   12 ar
    21   11   25 1
    22   12   13 ar
    23   12   26 1
    24   13   14 1
    25   14   15 1
    26   14   16 1
    27   16   17 ar
    28   17   18 ar
    29   17   27 1
@<TRIPOS>MOLECULE
ZINC00025301
   28    30     0     0     0
SMALL
USER_CHARGES

@<TRIPOS>ATOM
      1 C1         -0.0173    1.4248    0.0099 C.3       1 <0>         0.0337
      2 O1          0.0021   -0.0041    0.0020 O.3       1 <0>        -0.3534
      3 C2          0.6204   -0.6130    1.0325 C.2       1 <0>         0.5041
      4 O2          1.1292    0.0507    1.9135 O.2       1 <0>        -0.4436
      5 C3          0.6797   -2.0882    1.0910 C.ar      1 <0>         0.0580
      6 C4          1.3159   -2.7095    2.1626 C.ar      1 <0>         0.0154
      7 C5          1.3598   -4.1000    2.1971 C.ar      1 <0>        -0.0130
      8 C6          1.9195   -5.0927    3.1278 C.ar      1 <0>        -0.1156
      9 C7          2.6185   -4.9977    4.3293 C.ar      1 <0>        -0.0440
     10 C8          3.0181   -6.1435    4.9819 C.ar      1 <0>        -0.1218
     11 C9          2.7270   -7.3895    4.4472 C.ar      1 <0>        -0.0454
     12 C10         2.0365   -7.4987    3.2600 C.ar      1 <0>        -0.1295
     13 C11         1.6241   -6.3532    2.5853 C.ar      1 <0>         0.1537
     14 N1          0.9310   -6.1684    1.4028 N.pl3     1 <0>        -0.5651
     15 H1          0.6094   -6.8838    0.8322 H         1 <0>         0.4401
     16 C12         0.7612   -4.8255    1.1505 C.ar      1 <0>         0.1320
     17 C13         0.1456   -4.1204    0.1158 C.ar      1 <0>         0.1499
     18 N2          0.1196   -2.8083    0.1213 N.ar      1 <0>        -0.3940
     19 H2          1.0053    1.8021    0.0021 H         1 <0>         0.0760
     20 H3         -0.5445    1.7859   -0.8732 H         1 <0>         0.1206
     21 H4         -0.5275    1.7763    0.9067 H         1 <0>         0.0760
     22 H5          1.7663   -2.1243    2.9506 H         1 <0>         0.1968
     23 H6          2.8469   -4.0286    4.7478 H         1 <0>         0.1444
     24 H7          3.5603   -6.0709    5.9131 H         1 <0>         0.1479
     25 H8          3.0446   -8.2820    4.9658 H         1 <0>         0.1500
     26 H9          1.8151   -8.4740    2.8524 H         1 <0>         0.1441
     27 H10        -0.3191   -4.6604   -0.6960 H         1 <0>         0.2209
     28 H11        -0.3196   -2.3463   -0.6098 H         1 <0>         0.4620
@<TRIPOS>BOND
     1    1    2 1
     2    1   19 1
     3    1   20 1
     4    1   21 1
     5    2    3 1
     6    3    4 2
     7    3    5 1
     8    5   18 ar
     9    5    6 ar
    10    6    7 ar
    11    6   22 1
    12    7   16 ar
    13    7    8 1
    14    8   13 ar
    15    8    9 ar
    16    9   10 ar
    17    9   23 1
    18   10   11 ar
    19   10   24 1
    20   11   12 ar
    21   11   25 1
    22   12   13 ar
    23   12   26 1
    24   13   14 1
    25   14   15 1
    26   14   16 1
    27   16   17 ar
    28   17   18 ar
    29   17   27 1
    30   18   28 1
@<TRIPOS>MOLECULE
ZINC00004220
   42    46     0     0     0
SMALL
USER_CHARGES
(5-cyclopropyl-1,2,4-oxadiazol-3-yl)-isopropyl-BLAHone
@<TRIPOS>ATOM
      1 C1          1.4563    1.5106    0.0573 C.3       1 <0>        -0.1720
      2 C2         -0.0127    1.0858    0.0080 C.3       1 <0>         0.1310
      3 C3         -0.6781    1.6934   -1.2285 C.3       1 <0>        -0.1722
      4 N1         -0.6984    1.5583    1.2133 N.am      1 <0>        -0.5384
      5 C4         -1.3014    0.6393    2.0718 C.ar      1 <0>         0.1697
      6 C5         -1.2368   -0.7186    1.7819 C.ar      1 <0>        -0.1435
      7 C6         -1.8261   -1.6353    2.6290 C.ar      1 <0>        -0.0739
      8 C7         -2.4786   -1.2089    3.7727 C.ar      1 <0>        -0.1216
      9 C8         -2.5440    0.1371    4.0734 C.ar      1 <0>        -0.0857
     10 C9         -1.9546    1.0674    3.2278 C.ar      1 <0>         0.0712
     11 N2         -2.0217    2.4283    3.5333 N.pl3     1 <0>        -0.3776
     12 C10        -2.5723    3.1207    4.5466 C.2       1 <0>         0.2311
     13 N3         -2.3577    4.3989    4.3733 N.2       1 <0>        -0.4412
     14 C11        -1.6598    4.5913    3.2422 C.2       1 <0>         0.1722
     15 C12        -1.4325    3.3440    2.6862 C.2       1 <0>        -0.0588
     16 C13        -0.7466    2.8793    1.4818 C.2       1 <0>         0.5822
     17 O1         -0.2235    3.6783    0.7268 O.2       1 <0>        -0.4616
     18 C14        -1.2167    5.8944    2.6921 C.2       1 <0>         0.2316
     19 N4         -1.4436    7.1134    3.2328 N.2       1 <0>        -0.4486
     20 C15        -0.8755    7.9696    2.4209 C.2       1 <0>         0.2042
     21 O2         -0.3347    7.2656    1.4214 O.3       1 <0>         0.0896
     22 N5         -0.5375    6.0817    1.5896 N.2       1 <0>        -0.3230
     23 C16        -0.8428    9.4678    2.5803 C.3       1 <0>        -0.0809
     24 C17        -0.3047   10.2913    1.4084 C.3       1 <0>        -0.1576
     25 C18         0.5290   10.1376    2.6820 C.3       1 <0>        -0.1524
     26 H1          1.5186    2.5977    0.1083 H         1 <0>         0.0825
     27 H2          1.9303    1.0778    0.9383 H         1 <0>         0.0572
     28 H3          1.9665    1.1591   -0.8395 H         1 <0>         0.0763
     29 H4         -0.0750   -0.0012   -0.0430 H         1 <0>         0.1031
     30 H5         -0.1679    1.3419   -2.1253 H         1 <0>         0.0763
     31 H6         -1.7246    1.3907   -1.2637 H         1 <0>         0.0571
     32 H7         -0.6157    2.7804   -1.1775 H         1 <0>         0.0826
     33 H8         -0.7292   -1.0563    0.8905 H         1 <0>         0.1460
     34 H9         -1.7781   -2.6893    2.3983 H         1 <0>         0.1410
     35 H10        -2.9380   -1.9309    4.4315 H         1 <0>         0.1418
     36 H11        -3.0537    0.4664    4.9669 H         1 <0>         0.1420
     37 H12        -3.1096    2.6870    5.3771 H         1 <0>         0.2279
     38 H13        -1.6567    9.8962    3.1652 H         1 <0>         0.1512
     39 H14         0.0256    9.7494    0.5222 H         1 <0>         0.1083
     40 H15        -0.7648   11.2617    1.2221 H         1 <0>         0.1147
     41 H16         0.6175   11.0070    3.3336 H         1 <0>         0.1152
     42 H17         1.4079    9.4947    2.6337 H         1 <0>         0.1031
@<TRIPOS>BOND
     1    1    2 1
     2    1   26 1
     3    1   27 1
     4    1   28 1
     5    2    3 1
     6    2    4 1
     7    2   29 1
     8    3   30 1
     9    3   31 1
    10    3   32 1
    11    4   16 am
    12    4    5 1
    13    5   10 ar
    14    5    6 ar
    15    6    7 ar
    16    6   33 1
    17    7    8 ar
    18    7   34 1
    19    8    9 ar
    20    8   35 1
    21    9   10 ar
    22    9   36 1
    23   10   11 1
    24   11   15 1
    25   11   12 1
    26   12   13 2
    27   12   37 1
    28   13   14 1
    29   14   15 2
    30   14   18 1
    31   15   16 1
    32   16   17 2
    33   18   22 2
    34   18   19 1
    35   19   20 2
    36   20   21 1
    37   20   23 1
    38   21   22 1
    39   23   25 1
    40   23   24 1
    41   23   38 1
    42   24   25 1
    43   24   39 1
    44   24   40 1
    45   25   41 1
    46   25   42 1
@<TRIPOS>MOLECULE
ZINC00004220
   43    47     0     0     0
SMALL
USER_CHARGES
(5-cyclopropyl-1,2,4-oxadiazol-3-yl)-isopropyl-BLAHone
@<TRIPOS>ATOM
      1 C1          1.4563    1.5106    0.0573 C.3       1 <0>        -0.1753
      2 C2         -0.0127    1.0858    0.0080 C.3       1 <0>         0.1269
      3 C3         -0.6781    1.6934   -1.2285 C.3       1 <0>        -0.1756
      4 N1         -0.6984    1.5583    1.2133 N.am      1 <0>        -0.5255
      5 C4         -1.3014    0.6393    2.0718 C.ar      1 <0>         0.1946
      6 C5         -1.2368   -0.7186    1.7819 C.ar      1 <0>        -0.1392
      7 C6         -1.8261   -1.6353    2.6290 C.ar      1 <0>        -0.0390
      8 C7         -2.4786   -1.2089    3.7727 C.ar      1 <0>        -0.1130
      9 C8         -2.5440    0.1371    4.0734 C.ar      1 <0>        -0.0680
     10 C9         -1.9546    1.0674    3.2278 C.ar      1 <0>         0.0265
     11 N2         -2.0217    2.4283    3.5333 N.pl3     1 <0>        -0.3189
     12 C10        -2.5723    3.1207    4.5466 C.cat     1 <0>         0.3146
     13 C11        -1.6598    4.5913    3.2422 C.2       1 <0>         0.2133
     14 C12        -1.4325    3.3440    2.6862 C.2       1 <0>         0.0125
     15 C13        -0.7466    2.8793    1.4818 C.2       1 <0>         0.5755
     16 O1         -0.2235    3.6783    0.7268 O.2       1 <0>        -0.4287
     17 C14        -1.2167    5.8944    2.6921 C.2       1 <0>         0.1786
     18 N3         -1.4436    7.1134    3.2328 N.2       1 <0>        -0.4744
     19 C15        -0.8755    7.9696    2.4209 C.2       1 <0>         0.2517
     20 O2         -0.3347    7.2656    1.4214 O.3       1 <0>         0.1156
     21 N4         -0.5375    6.0817    1.5896 N.2       1 <0>        -0.2883
     22 C16        -0.8428    9.4678    2.5803 C.3       1 <0>        -0.0999
     23 C17        -0.3047   10.2913    1.4084 C.3       1 <0>        -0.1512
     24 C18         0.5290   10.1376    2.6820 C.3       1 <0>        -0.1456
     25 H1          1.5186    2.5977    0.1083 H         1 <0>         0.0818
     26 H2          1.9303    1.0778    0.9383 H         1 <0>         0.0617
     27 H3          1.9665    1.1591   -0.8395 H         1 <0>         0.0870
     28 H4         -0.0750   -0.0012   -0.0430 H         1 <0>         0.1136
     29 H5         -0.1679    1.3419   -2.1253 H         1 <0>         0.0870
     30 H6         -1.7246    1.3907   -1.2637 H         1 <0>         0.0616
     31 H7         -0.6157    2.7804   -1.1775 H         1 <0>         0.0818
     32 H8         -0.7292   -1.0563    0.8905 H         1 <0>         0.1596
     33 H9         -1.7781   -2.6893    2.3983 H         1 <0>         0.1558
     34 H10        -2.9380   -1.9309    4.4315 H         1 <0>         0.1559
     35 H11        -3.0537    0.4664    4.9669 H         1 <0>         0.1506
     36 H12        -3.1096    2.6870    5.3771 H         1 <0>         0.2790
     37 H13        -1.6567    9.8962    3.1652 H         1 <0>         0.1586
     38 H14         0.0256    9.7494    0.5222 H         1 <0>         0.1120
     39 H15        -0.7648   11.2617    1.2221 H         1 <0>         0.1221
     40 H16         0.6175   11.0070    3.3336 H         1 <0>         0.1221
     41 H17         1.4079    9.4947    2.6337 H         1 <0>         0.1063
     42 N5         -2.3581    4.3999    4.3742 N.pl3     1 <0>        -0.4607
     43 H18        -2.6752    5.1437    5.0070 H         1 <0>         0.4968
@<TRIPOS>BOND
     1    1    2 1
     2    1   25 1
     3    1   26 1
     4    1   27 1
     5    2    3 1
     6    2    4 1
     7    2   28 1
     8    3   29 1
     9    3   30 1
    10    3   31 1
    11    4   15 am
    12    4    5 1
    13    5   10 ar
    14    5    6 ar
    15    6    7 ar
    16    6   32 1
    17    7    8 ar
    18    7   33 1
    19    8    9 ar
    20    8   34 1
    21    9   10 ar
    22    9   35 1
    23   10   11 1
    24   11   14 1
    25   11   12 1
    26   12   36 1
    27   12   42 2
    28   13   14 2
    29   13   17 1
    30   13   42 1
    31   14   15 1
    32   15   16 2
    33   17   21 2
    34   17   18 1
    35   18   19 2
    36   19   20 1
    37   19   22 1
    38   20   21 1
    39   22   24 1
    40   22   23 1
    41   22   37 1
    42   23   24 1
    43   23   38 1
    44   23   39 1
    45   24   40 1
    46   24   41 1
    47   42   43 1
@<TRIPOS>MOLECULE
ZINC09227024
   28    30     0     0     0
SMALL
USER_CHARGES

@<TRIPOS>ATOM
      1 C1         -0.0178    1.4608    0.0101 C.3       1 <0>         0.0856
      2 N1          0.0021   -0.0041    0.0020 N.am      1 <0>        -0.7181
      3 C2         -1.1558   -0.6938    0.0094 C.2       1 <0>         0.5778
      4 O1         -2.2166   -0.1004    0.0227 O.2       1 <0>        -0.5353
      5 C3         -1.1358   -2.1723    0.0012 C.ar      1 <0>         0.0270
      6 C4         -2.3364   -2.8766    0.0032 C.ar      1 <0>        -0.0399
      7 C5         -2.2939   -4.2677   -0.0046 C.ar      1 <0>        -0.0794
      8 C6         -3.3100   -5.3319   -0.0055 C.ar      1 <0>        -0.1058
      9 C7         -4.7033   -5.3314    0.0005 C.ar      1 <0>        -0.0549
     10 C8         -5.3888   -6.5264   -0.0033 C.ar      1 <0>        -0.1444
     11 C9         -4.6973   -7.7285   -0.0131 C.ar      1 <0>        -0.0755
     12 C10        -3.3196   -7.7443   -0.0187 C.ar      1 <0>        -0.1397
     13 C11        -2.6085   -6.5477   -0.0154 C.ar      1 <0>         0.1413
     14 N2         -1.2536   -6.2705   -0.0204 N.pl3     1 <0>        -0.5980
     15 C12        -1.0418   -4.9096   -0.0141 C.ar      1 <0>         0.1090
     16 C13         0.1111   -4.1244   -0.0158 C.ar      1 <0>         0.0979
     17 N3          0.0300   -2.8143   -0.0133 N.ar      1 <0>        -0.4295
     18 H1          1.0048    1.8381    0.0023 H         1 <0>         0.0784
     19 H2         -0.5450    1.8219   -0.8730 H         1 <0>         0.0621
     20 H3         -0.5280    1.8123    0.9069 H         1 <0>         0.0622
     21 H4          0.8486   -0.4776   -0.0086 H         1 <0>         0.4122
     22 H5         -3.2817   -2.3543    0.0109 H         1 <0>         0.1516
     23 H6         -5.2444   -4.3967    0.0085 H         1 <0>         0.1307
     24 H7         -6.4688   -6.5271    0.0017 H         1 <0>         0.1320
     25 H8         -5.2434   -8.6602   -0.0160 H         1 <0>         0.1337
     26 H9         -2.7910   -8.6860   -0.0259 H         1 <0>         0.1286
     27 H10         1.0809   -4.5996   -0.0230 H         1 <0>         0.1667
     28 H11        -0.5516   -6.9399   -0.0271 H         1 <0>         0.4235
@<TRIPOS>BOND
     1    1    2 1
     2    1   18 1
     3    1   19 1
     4    1   20 1
     5    2    3 am
     6    2   21 1
     7    3    4 2
     8    3    5 1
     9    5   17 ar
    10    5    6 ar
    11    6    7 ar
    12    6   22 1
    13    7   15 ar
    14    7    8 1
    15    8   13 ar
    16    8    9 ar
    17    9   10 ar
    18    9   23 1
    19   10   11 ar
    20   10   24 1
    21   11   12 ar
    22   11   25 1
    23   12   13 ar
    24   12   26 1
    25   13   14 1
    26   14   15 1
    27   14   28 1
    28   15   16 ar
    29   16   17 ar
    30   16   27 1
@<TRIPOS>MOLECULE
ZINC09227024
   29    31     0     0     0
SMALL
USER_CHARGES

@<TRIPOS>ATOM
      1 C1         -0.0178    1.4608    0.0101 C.3       1 <0>         0.0800
      2 N1          0.0021   -0.0041    0.0020 N.am      1 <0>        -0.7213
      3 C2          0.5851   -0.6645   -1.0180 C.2       1 <0>         0.5560
      4 O1          1.0944   -0.0447   -1.9312 O.2       1 <0>        -0.4749
      5 C3          0.6051   -2.1431   -1.0261 C.ar      1 <0>         0.0435
      6 C4          1.2144   -2.8170   -2.0807 C.ar      1 <0>         0.0088
      7 C5          1.2216   -4.2087   -2.0679 C.ar      1 <0>        -0.0069
      8 C6          1.7467   -5.2470   -2.9684 C.ar      1 <0>        -0.1190
      9 C7          2.4377   -5.2115   -4.1777 C.ar      1 <0>        -0.0422
     10 C8          2.8022   -6.3890   -4.7933 C.ar      1 <0>        -0.1239
     11 C9          2.4839   -7.6080   -4.2137 C.ar      1 <0>        -0.0446
     12 C10         1.8005   -7.6583   -3.0184 C.ar      1 <0>        -0.1316
     13 C11         1.4236   -6.4800   -2.3804 C.ar      1 <0>         0.1560
     14 N2          0.7466   -6.2368   -1.1992 N.pl3     1 <0>        -0.5697
     15 C12         0.6141   -4.8817   -0.9918 C.ar      1 <0>         0.1292
     16 C13         0.0272   -4.1258    0.0229 C.ar      1 <0>         0.1404
     17 N3          0.0452   -2.8140   -0.0223 N.ar      1 <0>        -0.4075
     18 H1          1.0048    1.8381    0.0023 H         1 <0>         0.0768
     19 H2         -0.5450    1.8219   -0.8730 H         1 <0>         0.0768
     20 H3         -0.5280    1.8123    0.9069 H         1 <0>         0.0925
     21 H4         -0.4044   -0.4986    0.7308 H         1 <0>         0.3959
     22 H5          1.6719   -2.2711   -2.8926 H         1 <0>         0.1955
     23 H6          2.6866   -4.2637   -4.6315 H         1 <0>         0.1443
     24 H7          3.3376   -6.3626   -5.7309 H         1 <0>         0.1476
     25 H8          2.7738   -8.5257   -4.7036 H         1 <0>         0.1496
     26 H9          1.5572   -8.6130   -2.5759 H         1 <0>         0.1434
     27 H10        -0.4438   -4.6251    0.8568 H         1 <0>         0.2180
     28 H11         0.4120   -6.9236   -0.6015 H         1 <0>         0.4391
     29 H12        -0.3680   -2.3157    0.7001 H         1 <0>         0.4482
@<TRIPOS>BOND
     1    1    2 1
     2    1   18 1
     3    1   19 1
     4    1   20 1
     5    2    3 am
     6    2   21 1
     7    3    4 2
     8    3    5 1
     9    5   17 ar
    10    5    6 ar
    11    6    7 ar
    12    6   22 1
    13    7   15 ar
    14    7    8 1
    15    8   13 ar
    16    8    9 ar
    17    9   10 ar
    18    9   23 1
    19   10   11 ar
    20   10   24 1
    21   11   12 ar
    22   11   25 1
    23   12   13 ar
    24   12   26 1
    25   13   14 1
    26   14   15 1
    27   14   28 1
    28   15   16 ar
    29   16   17 ar
    30   16   27 1
    31   17   29 1
