@<TRIPOS>MOLECULE
ZINC03977767
   64    67     0     0     0
SMALL
NO_CHARGES

@<TRIPOS>ATOM
      1 C1         -3.2843   -2.1247   -0.9959 C.3       1 <0>        -0.1455
      2 C2         -2.2672   -3.1706   -0.5348 C.3       1 <0>        -0.1190
      3 C3         -1.5859   -2.6895    0.7204 C.2       1 <0>         0.4499
      4 O1         -1.8833   -1.6199    1.1972 O.2       1 <0>        -0.4903
      5 O2         -0.6486   -3.4493    1.3086 O.3       1 <0>        -0.3329
      6 C4          0.0289   -2.8879    2.4346 C.3       1 <0>         0.0977
      7 C5          0.7080   -1.5523    2.0412 C.3       1 <0>        -0.0914
      8 H1          0.4661   -1.2994    1.0089 H         1 <0>         0.0856
      9 C6          2.2373   -1.7780    2.1904 C.3       1 <0>        -0.1097
     10 C7          2.3756   -3.2977    2.0468 C.3       1 <0>        -0.0834
     11 H2          2.2695   -3.5911    1.0024 H         1 <0>         0.0889
     12 C8          1.1657   -3.8032    2.8776 C.3       1 <0>        -0.0399
     13 C9          1.0010   -5.2803    2.5755 C.3       1 <0>        -0.1322
     14 C10         2.2563   -5.9939    3.1021 C.3       1 <0>         0.0895
     15 H3          2.1854   -7.0564    2.8693 H         1 <0>         0.0741
     16 C11         3.5286   -5.4309    2.4759 C.3       1 <0>         0.1583
     17 C12         3.6338   -3.9052    2.6399 C.3       1 <0>        -0.0983
     18 H4          3.6955   -3.6613    3.7004 H         1 <0>         0.1132
     19 C13         4.8643   -3.3797    1.8979 C.3       1 <0>        -0.1148
     20 C14         6.1339   -3.9652    2.5240 C.3       1 <0>        -0.0954
     21 C15         6.0093   -5.4772    2.5187 C.2       1 <0>        -0.0332
     22 C16         6.9948   -6.2016    2.0073 C.2       1 <0>        -0.2202
     23 C17         6.9009   -7.6692    1.9659 C.2       1 <0>         0.4075
     24 O3          7.8197   -8.3396    1.5333 O.2       1 <0>        -0.4555
     25 C18         5.6697   -8.3085    2.4602 C.2       1 <0>        -0.2061
     26 C19         4.7013   -7.5659    2.9731 C.2       1 <0>        -0.0727
     27 C20         4.7482   -6.0870    3.1298 C.3       1 <0>        -0.0265
     28 C21         4.7056   -5.7637    4.6247 C.3       1 <0>        -0.1329
     29 F1          3.5323   -5.7153    1.1061 F         1 <0>        -0.1911
     30 O4          2.3247   -5.8311    4.5202 O.3       1 <0>        -0.5391
     31 C22         1.4410   -3.6034    4.3693 C.3       1 <0>        -0.1690
     32 C23         0.2473   -0.4332    2.9773 C.3       1 <0>        -0.1480
     33 C24        -0.9383   -2.6697    3.5695 C.2       1 <0>         0.3487
     34 O5         -0.5841   -2.0745    4.5587 O.2       1 <0>        -0.3949
     35 C25        -2.3475   -3.1943    3.4699 C.3       1 <0>        -0.1038
     36 Cl1        -3.2922   -2.6562    4.9083 Cl        1 <0>        -0.1363
     37 H5         -2.7720   -1.1841   -1.1982 H         1 <0>         0.0659
     38 H6         -3.7771   -2.4727   -1.9037 H         1 <0>         0.0733
     39 H7         -4.0285   -1.9723   -0.2141 H         1 <0>         0.0653
     40 H8         -2.7796   -4.1112   -0.3325 H         1 <0>         0.1081
     41 H9         -1.5231   -3.3230   -1.3165 H         1 <0>         0.1095
     42 H10         2.7821   -1.2646    1.3981 H         1 <0>         0.0771
     43 H11         2.5816   -1.4504    3.1714 H         1 <0>         0.0814
     44 H12         0.1153   -5.6660    3.0804 H         1 <0>         0.0762
     45 H13         0.9117   -5.4316    1.4997 H         1 <0>         0.0913
     46 H14         4.8084   -3.6730    0.8496 H         1 <0>         0.0753
     47 H15         4.8934   -2.2924    1.9685 H         1 <0>         0.0816
     48 H16         7.0041   -3.6657    1.9399 H         1 <0>         0.0844
     49 H17         6.2373   -3.6081    3.5487 H         1 <0>         0.0883
     50 H18         7.8739   -5.7102    1.6174 H         1 <0>         0.1392
     51 H19         5.5573   -9.3812    2.4048 H         1 <0>         0.1413
     52 H20         3.8089   -8.0657    3.3198 H         1 <0>         0.1246
     53 H21         4.0010   -6.4311    5.1208 H         1 <0>         0.0988
     54 H22         5.6983   -5.8992    5.0541 H         1 <0>         0.0554
     55 H23         4.3873   -4.7306    4.7641 H         1 <0>         0.0761
     56 H24         1.5648   -6.1947    4.9949 H         1 <0>         0.3789
     57 H25         0.6569   -4.0873    4.9515 H         1 <0>         0.0526
     58 H26         2.4056   -4.0430    4.6229 H         1 <0>         0.1139
     59 H27         1.4567   -2.5374    4.5963 H         1 <0>         0.0696
     60 H28         0.7519   -0.5326    3.9383 H         1 <0>         0.0731
     61 H29         0.4922    0.5331    2.5365 H         1 <0>         0.0566
     62 H30        -0.8306   -0.5029    3.1240 H         1 <0>         0.0635
     63 H31        -2.8152   -2.8098    2.5635 H         1 <0>         0.1253
     64 H32        -2.3281   -4.2836    3.4347 H         1 <0>         0.1222
@<TRIPOS>BOND
     1    1    2 1
     2    1   37 1
     3    1   38 1
     4    1   39 1
     5    2    3 1
     6    2   40 1
     7    2   41 1
     8    3    4 2
     9    3    5 1
    10    5    6 1
    11    6   12 1
    12    6    7 1
    13    6   33 1
    14    7    8 1
    15    7    9 1
    16    7   32 1
    17    9   10 1
    18    9   42 1
    19    9   43 1
    20   10   11 1
    21   10   17 1
    22   10   12 1
    23   12   13 1
    24   12   31 1
    25   13   14 1
    26   13   44 1
    27   13   45 1
    28   14   15 1
    29   14   16 1
    30   14   30 1
    31   16   27 1
    32   16   17 1
    33   16   29 1
    34   17   18 1
    35   17   19 1
    36   19   20 1
    37   19   46 1
    38   19   47 1
    39   20   21 1
    40   20   48 1
    41   20   49 1
    42   21   27 1
    43   21   22 2
    44   22   23 1
    45   22   50 1
    46   23   24 2
    47   23   25 1
    48   25   26 2
    49   25   51 1
    50   26   27 1
    51   26   52 1
    52   27   28 1
    53   28   53 1
    54   28   54 1
    55   28   55 1
    56   30   56 1
    57   31   57 1
    58   31   58 1
    59   31   59 1
    60   32   60 1
    61   32   61 1
    62   32   62 1
    63   33   34 2
    64   33   35 1
    65   35   36 1
    66   35   63 1
    67   35   64 1
@<TRIPOS>MOLECULE
ZINC08660419
   67    71     0     0     0
SMALL
USER_CHARGES
11-(4-dimethylaminophenyl)-17-hydroxy-13-methyl-17-prop-1-ynyl-1,2,6,7,8,11,12,14,15,16-decahydrocyclopenta[a]phenanthren-3-one
@<TRIPOS>ATOM
      1 C1          0.7869    0.1155   -4.5240 C.3       1 <0>        -0.0462
      2 C2          0.5900    0.9727   -3.3436 C.1       1 <0>        -0.1645
      3 C3          0.4330    1.6563   -2.4022 C.1       1 <0>        -0.2108
      4 C4          0.2361    2.5134   -1.2218 C.3       1 <0>         0.2516
      5 C5          1.2880    3.6384   -1.2035 C.3       1 <0>        -0.1460
      6 C6          2.1300    3.4350    0.0772 C.3       1 <0>        -0.1158
      7 C7          1.9355    1.9425    0.4012 C.3       1 <0>        -0.0751
      8 H1          2.5427    1.3688   -0.2990 H         1 <0>         0.0756
      9 C8          0.4547    1.6914    0.0764 C.3       1 <0>        -0.0266
     10 C9         -0.4117    2.3256    1.1670 C.3       1 <0>        -0.0878
     11 C10        -0.1997    1.6805    2.5047 C.3       1 <0>        -0.0025
     12 H2         -0.8001    0.7718    2.5494 H         1 <0>         0.0872
     13 C11         1.2316    1.3258    2.7607 C.2       1 <0>        -0.0418
     14 C12         1.5404    0.7472    3.9335 C.2       1 <0>        -0.1294
     15 C13         0.4525    0.4472    4.9374 C.3       1 <0>        -0.0945
     16 C14         0.9498    0.8563    6.3279 C.3       1 <0>        -0.1505
     17 C15         2.3106    0.2641    6.5759 C.2       1 <0>         0.3859
     18 O1          2.6042   -0.0954    7.6983 O.2       1 <0>        -0.4758
     19 C16         3.2491    0.1171    5.5432 C.2       1 <0>        -0.2574
     20 C17         2.9152    0.3774    4.2526 C.2       1 <0>         0.0321
     21 C18         3.9597    0.2695    3.1733 C.3       1 <0>        -0.0979
     22 C19         3.3016    0.3825    1.7969 C.3       1 <0>        -0.1123
     23 C20         2.3424    1.5764    1.7924 C.3       1 <0>        -0.0429
     24 H3          2.9133    2.4186    2.1836 H         1 <0>         0.0813
     25 C21        -0.6667    2.6234    3.5835 C.ar      1 <0>        -0.1252
     26 C22        -1.9173    2.4583    4.1502 C.ar      1 <0>        -0.0698
     27 C23        -2.3460    3.3173    5.1430 C.ar      1 <0>        -0.1952
     28 C24        -1.5241    4.3549    5.5643 C.ar      1 <0>         0.2151
     29 C25        -0.2708    4.5213    4.9889 C.ar      1 <0>        -0.1951
     30 C26         0.1541    3.6553    4.0005 C.ar      1 <0>        -0.0584
     31 N1         -1.9567    5.2286    6.5644 N.pl3     1 <0>        -0.6386
     32 C27        -1.1430    6.3931    6.9220 C.3       1 <0>         0.0924
     33 C28        -3.2242    4.9804    7.2559 C.3       1 <0>         0.0888
     34 C29         0.1462    0.2052   -0.1159 C.3       1 <0>        -0.1349
     35 O2         -1.0793    3.0716   -1.2336 O.3       1 <0>        -0.5403
     36 H4          0.6311    0.7024   -5.4292 H         1 <0>         0.0815
     37 H5          1.8018   -0.2822   -4.5190 H         1 <0>         0.0822
     38 H6          0.0737   -0.7083   -4.4978 H         1 <0>         0.0820
     39 H7          0.7949    4.6101   -1.1758 H         1 <0>         0.0815
     40 H8          1.9256    3.5677   -2.0847 H         1 <0>         0.0725
     41 H9          1.7511    4.0565    0.8885 H         1 <0>         0.0745
     42 H10         3.1806    3.6522   -0.1156 H         1 <0>         0.0724
     43 H11        -0.1669    3.3848    1.2459 H         1 <0>         0.0717
     44 H12        -1.4617    2.2228    0.8931 H         1 <0>         0.0782
     45 H13        -0.4437    1.0149    4.6872 H         1 <0>         0.1092
     46 H14         0.2288   -0.6195    4.9275 H         1 <0>         0.0741
     47 H15         0.3122    0.5216    7.0217 H         1 <0>         0.0807
     48 H16         1.0116    1.9431    6.3847 H         1 <0>         0.0968
     49 H17         4.2520   -0.2074    5.7782 H         1 <0>         0.1316
     50 H18         4.6881    1.0715    3.2931 H         1 <0>         0.0899
     51 H19         4.4649   -0.6930    3.2534 H         1 <0>         0.0896
     52 H20         2.7468   -0.5310    1.5827 H         1 <0>         0.0708
     53 H21         4.0693    0.5294    1.0373 H         1 <0>         0.0770
     54 H22        -2.5577    1.6543    3.8189 H         1 <0>         0.1217
     55 H23        -3.3211    3.1851    5.5883 H         1 <0>         0.1233
     56 H24         0.3706    5.3272    5.3138 H         1 <0>         0.1205
     57 H25         1.1285    3.7839    3.5530 H         1 <0>         0.1167
     58 H26        -1.4355    7.2436    6.3062 H         1 <0>         0.0482
     59 H27        -1.2977    6.6355    7.9734 H         1 <0>         0.0661
     60 H28        -0.0903    6.1667    6.7525 H         1 <0>         0.0686
     61 H29        -3.6391    4.0288    6.9236 H         1 <0>         0.0779
     62 H30        -3.0505    4.9453    8.3314 H         1 <0>         0.0562
     63 H31        -3.9260    5.7824    7.0272 H         1 <0>         0.0519
     64 H32         0.3878   -0.3372    0.7982 H         1 <0>         0.0621
     65 H33        -0.9125    0.0804   -0.3434 H         1 <0>         0.0594
     66 H34         0.7434   -0.1863   -0.9394 H         1 <0>         0.0582
     67 H35        -1.2765    3.5972   -2.0210 H         1 <0>         0.3781
@<TRIPOS>BOND
     1    1    2 1
     2    1   36 1
     3    1   37 1
     4    1   38 1
     5    2    3 3
     6    3    4 1
     7    4    9 1
     8    4    5 1
     9    4   35 1
    10    5    6 1
    11    5   39 1
    12    5   40 1
    13    6    7 1
    14    6   41 1
    15    6   42 1
    16    7    8 1
    17    7   23 1
    18    7    9 1
    19    9   10 1
    20    9   34 1
    21   10   11 1
    22   10   43 1
    23   10   44 1
    24   11   12 1
    25   11   13 1
    26   11   25 1
    27   13   23 1
    28   13   14 2
    29   14   20 1
    30   14   15 1
    31   15   16 1
    32   15   45 1
    33   15   46 1
    34   16   17 1
    35   16   47 1
    36   16   48 1
    37   17   18 2
    38   17   19 1
    39   19   20 2
    40   19   49 1
    41   20   21 1
    42   21   22 1
    43   21   50 1
    44   21   51 1
    45   22   23 1
    46   22   52 1
    47   22   53 1
    48   23   24 1
    49   25   30 ar
    50   25   26 ar
    51   26   27 ar
    52   26   54 1
    53   27   28 ar
    54   27   55 1
    55   28   29 ar
    56   28   31 1
    57   29   30 ar
    58   29   56 1
    59   30   57 1
    60   31   32 1
    61   31   33 1
    62   32   58 1
    63   32   59 1
    64   32   60 1
    65   33   61 1
    66   33   62 1
    67   33   63 1
    68   34   64 1
    69   34   65 1
    70   34   66 1
    71   35   67 1
@<TRIPOS>MOLECULE
ZINC03938751
   65    69     0     0     0
SMALL
USER_CHARGES

@<TRIPOS>ATOM
      1 C1         -0.8858    1.3108   -2.5678 C.3       1 <0>        -0.1525
      2 C2         -0.8138   -0.2172   -2.5389 C.3       1 <0>        -0.1213
      3 C3          0.4588   -0.6813   -3.2503 C.3       1 <0>        -0.1132
      4 C4          0.5309   -2.2093   -3.2215 C.3       1 <0>         0.2186
      5 H1         -0.3811   -2.6400   -3.6348 H         1 <0>         0.0735
      6 O1          0.7424   -2.6778   -1.8732 O.3       1 <0>        -0.3602
      7 C5          1.3067   -3.9970   -2.0202 C.3       1 <0>         0.0643
      8 H2          0.5639   -4.7836   -1.8870 H         1 <0>         0.0962
      9 C6          2.4890   -4.1257   -1.0213 C.3       1 <0>        -0.1131
     10 C7          3.6801   -3.5873   -1.8210 C.3       1 <0>        -0.0782
     11 H3          3.6371   -2.4997   -1.8798 H         1 <0>         0.0838
     12 C8          5.0500   -4.0361   -1.3448 C.3       1 <0>        -0.0773
     13 H4          5.1039   -5.1248   -1.3531 H         1 <0>         0.1027
     14 C9          5.3022   -3.5177    0.0724 C.3       1 <0>        -0.1132
     15 C10         6.6696   -4.0029    0.5641 C.3       1 <0>        -0.0946
     16 C11         7.7151   -3.5688   -0.4461 C.2       1 <0>        -0.0242
     17 C12         8.7843   -2.9099   -0.0217 C.2       1 <0>        -0.2314
     18 C13         9.8089   -2.4543   -0.9740 C.2       1 <0>         0.4077
     19 O2         10.8100   -1.8825   -0.5847 O.2       1 <0>        -0.4611
     20 C14         9.5951   -2.7054   -2.4093 C.2       1 <0>        -0.2209
     21 C15         8.5236   -3.3716   -2.8096 C.2       1 <0>        -0.0632
     22 C16         7.4850   -3.9127   -1.8881 C.3       1 <0>        -0.0106
     23 C17         6.0883   -3.4580   -2.3193 C.3       1 <0>        -0.0502
     24 H5          6.0527   -2.3694   -2.2770 H         1 <0>         0.0829
     25 C18         5.8159   -3.8939   -3.7558 C.3       1 <0>         0.1123
     26 H6          6.5181   -3.3899   -4.4198 H         1 <0>         0.0605
     27 C19         4.3817   -3.5518   -4.1896 C.3       1 <0>        -0.1290
     28 C20         3.4313   -4.2161   -3.2179 C.3       1 <0>        -0.0411
     29 C21         1.9274   -4.0003   -3.4486 C.3       1 <0>         0.0451
     30 O3          1.6844   -2.6730   -3.9557 O.3       1 <0>        -0.3477
     31 C22         1.3237   -5.0693   -4.3226 C.2       1 <0>         0.3505
     32 O4          1.7673   -6.1922   -4.2967 O.2       1 <0>        -0.3945
     33 C23         0.1665   -4.7371   -5.2289 C.3       1 <0>         0.0258
     34 O5         -0.2252   -5.9071   -5.9498 O.3       1 <0>        -0.5527
     35 C24         3.7345   -5.7151   -3.1729 C.3       1 <0>        -0.1460
     36 O6          6.0085   -5.3061   -3.8591 O.3       1 <0>        -0.5450
     37 C25         7.4958   -5.4375   -2.0130 C.3       1 <0>        -0.1341
     38 H7         -0.0145    1.7253   -2.0608 H         1 <0>         0.0563
     39 H8         -0.9019    1.6543   -3.6021 H         1 <0>         0.0551
     40 H9         -1.7925    1.6414   -2.0609 H         1 <0>         0.0580
     41 H10        -0.7977   -0.5608   -1.5046 H         1 <0>         0.0715
     42 H11        -1.6851   -0.6317   -3.0459 H         1 <0>         0.0625
     43 H12         0.4427   -0.3378   -4.2846 H         1 <0>         0.0857
     44 H13         1.3302   -0.2668   -2.7433 H         1 <0>         0.0817
     45 H14         2.3127   -3.5157   -0.1353 H         1 <0>         0.0892
     46 H15         2.6493   -5.1682   -0.7466 H         1 <0>         0.0878
     47 H16         5.2840   -2.4278    0.0684 H         1 <0>         0.0670
     48 H17         4.5241   -3.8902    0.7386 H         1 <0>         0.0755
     49 H18         6.8899   -3.5599    1.5353 H         1 <0>         0.0803
     50 H19         6.6666   -5.0897    0.6467 H         1 <0>         0.0866
     51 H20         8.9041   -2.7057    1.0320 H         1 <0>         0.1356
     52 H21        10.3114   -2.3470   -3.1338 H         1 <0>         0.1375
     53 H22         8.3940   -3.5329   -3.8696 H         1 <0>         0.1253
     54 H23         4.2318   -2.4727   -4.1576 H         1 <0>         0.0806
     55 H24         4.2005   -3.9229   -5.1983 H         1 <0>         0.0689
     56 H25        -0.6725   -4.3808   -4.6312 H         1 <0>         0.0761
     57 H26         0.4671   -3.9606   -5.9323 H         1 <0>         0.0878
     58 H27        -0.9669   -5.7669   -6.5542 H         1 <0>         0.3880
     59 H28         2.9488   -6.2283   -2.6185 H         1 <0>         0.0495
     60 H29         3.7780   -6.1076   -4.1889 H         1 <0>         0.0617
     61 H30         4.6928   -5.8773   -2.6794 H         1 <0>         0.1001
     62 H31         5.8535   -5.6604   -4.7454 H         1 <0>         0.3699
     63 H32         6.5423   -5.8371   -1.6678 H         1 <0>         0.0756
     64 H33         7.6503   -5.7156   -3.0556 H         1 <0>         0.0943
     65 H34         8.3026   -5.8462   -1.4046 H         1 <0>         0.0432
@<TRIPOS>BOND
     1    1    2 1
     2    1   38 1
     3    1   39 1
     4    1   40 1
     5    2    3 1
     6    2   41 1
     7    2   42 1
     8    3    4 1
     9    3   43 1
    10    3   44 1
    11    4    5 1
    12    4   30 1
    13    4    6 1
    14    6    7 1
    15    7    8 1
    16    7   29 1
    17    7    9 1
    18    9   10 1
    19    9   45 1
    20    9   46 1
    21   10   11 1
    22   10   28 1
    23   10   12 1
    24   12   13 1
    25   12   23 1
    26   12   14 1
    27   14   15 1
    28   14   47 1
    29   14   48 1
    30   15   16 1
    31   15   49 1
    32   15   50 1
    33   16   22 1
    34   16   17 2
    35   17   18 1
    36   17   51 1
    37   18   19 2
    38   18   20 1
    39   20   21 2
    40   20   52 1
    41   21   22 1
    42   21   53 1
    43   22   23 1
    44   22   37 1
    45   23   24 1
    46   23   25 1
    47   25   26 1
    48   25   27 1
    49   25   36 1
    50   27   28 1
    51   27   54 1
    52   27   55 1
    53   28   29 1
    54   28   35 1
    55   29   30 1
    56   29   31 1
    57   31   32 2
    58   31   33 1
    59   33   34 1
    60   33   56 1
    61   33   57 1
    62   34   58 1
    63   35   59 1
    64   35   60 1
    65   35   61 1
    66   36   62 1
    67   37   63 1
    68   37   64 1
    69   37   65 1
@<TRIPOS>MOLECULE
ZINC04097286
   65    69     0     0     0
SMALL
USER_CHARGES

@<TRIPOS>ATOM
      1 C1          2.2830    2.0087   -2.6783 C.3       1 <0>        -0.1526
      2 C2          1.6861    0.6415   -2.3385 C.3       1 <0>        -0.1210
      3 C3          2.4675   -0.4521   -3.0695 C.3       1 <0>        -0.1200
      4 C4          1.8706   -1.8192   -2.7297 C.3       1 <0>         0.2267
      5 H1          1.8348   -1.9541   -1.6487 H         1 <0>         0.0806
      6 O1          0.5454   -1.9348   -3.2884 O.3       1 <0>        -0.3618
      7 C5          0.3272   -3.3633   -3.3524 C.3       1 <0>         0.0653
      8 H2         -0.4354   -3.6428   -4.0793 H         1 <0>         0.1279
      9 C6          0.0051   -3.8660   -1.9243 C.3       1 <0>        -0.1365
     10 C7          1.2711   -4.5689   -1.4462 C.3       1 <0>        -0.0870
     11 H3          1.9438   -3.8445   -0.9869 H         1 <0>         0.0774
     12 C8          1.0766   -5.7499   -0.5151 C.3       1 <0>        -0.0767
     13 H4          0.4834   -6.5166   -1.0135 H         1 <0>         0.1035
     14 C9          0.3661   -5.2978    0.7621 C.3       1 <0>        -0.1139
     15 C10         0.1315   -6.5053    1.6755 C.3       1 <0>        -0.0943
     16 C11         1.4686   -7.1798    1.9188 C.2       1 <0>        -0.0253
     17 C12         1.8423   -7.4333    3.1653 C.2       1 <0>        -0.2307
     18 C13         3.1406   -8.0669    3.4428 C.2       1 <0>         0.4075
     19 O2          3.4703   -8.3369    4.5826 O.2       1 <0>        -0.4605
     20 C14         4.0320   -8.3674    2.3098 C.2       1 <0>        -0.2209
     21 C15         3.6353   -8.1122    1.0729 C.2       1 <0>        -0.0632
     22 C16         2.3071   -7.5324    0.7259 C.3       1 <0>        -0.0101
     23 C17         2.4688   -6.3088   -0.1796 C.3       1 <0>        -0.0499
     24 H5          3.0391   -5.5521    0.3591 H         1 <0>         0.0825
     25 C18         3.2401   -6.6907   -1.4394 C.3       1 <0>         0.1113
     26 H6          4.2499   -6.9916   -1.1605 H         1 <0>         0.0597
     27 C19         3.3220   -5.5206   -2.4322 C.3       1 <0>        -0.1304
     28 C20         1.8979   -5.1082   -2.7589 C.3       1 <0>        -0.0483
     29 C21         1.7449   -3.9088   -3.7174 C.3       1 <0>         0.0456
     30 O3          2.6524   -2.8635   -3.3325 O.3       1 <0>        -0.3561
     31 C22         1.8662   -4.2896   -5.1704 C.2       1 <0>         0.3721
     32 O4          1.6445   -5.4247   -5.5177 O.2       1 <0>        -0.4021
     33 C23         2.2641   -3.2537   -6.1901 C.3       1 <0>         0.0303
     34 O5          2.3097   -3.8540   -7.4861 O.3       1 <0>        -0.5558
     35 C24         1.1030   -6.3091   -3.2753 C.3       1 <0>        -0.1455
     36 O6          2.5840   -7.7915   -2.0718 O.3       1 <0>        -0.5453
     37 C25         1.5412   -8.5740   -0.0922 C.3       1 <0>        -0.1343
     38 H7          3.3268    2.0372   -2.3656 H         1 <0>         0.0551
     39 H8          2.2212    2.1750   -3.7537 H         1 <0>         0.0555
     40 H9          1.7263    2.7878   -2.1575 H         1 <0>         0.0578
     41 H10         1.7479    0.4752   -1.2631 H         1 <0>         0.0631
     42 H11         0.6423    0.6130   -2.6512 H         1 <0>         0.0708
     43 H12         2.4057   -0.2857   -4.1449 H         1 <0>         0.0777
     44 H13         3.5113   -0.4235   -2.7568 H         1 <0>         0.0859
     45 H14        -0.2286   -3.0246   -1.2720 H         1 <0>         0.0873
     46 H15        -0.8289   -4.5672   -1.9504 H         1 <0>         0.0874
     47 H16         0.9839   -4.5649    1.2810 H         1 <0>         0.0663
     48 H17        -0.5919   -4.8465    0.5040 H         1 <0>         0.0751
     49 H18        -0.2910   -6.1729    2.6237 H         1 <0>         0.0804
     50 H19        -0.5511   -7.2047    1.1928 H         1 <0>         0.0867
     51 H20         1.1881   -7.1722    3.9840 H         1 <0>         0.1356
     52 H21         5.0077   -8.7949    2.4877 H         1 <0>         0.1377
     53 H22         4.3165   -8.3374    0.2656 H         1 <0>         0.1257
     54 H23         3.8555   -4.6854   -1.9784 H         1 <0>         0.0803
     55 H24         3.8336   -5.8395   -3.3404 H         1 <0>         0.0704
     56 H25         1.5338   -2.4445   -6.1900 H         1 <0>         0.0821
     57 H26         3.2474   -2.8558   -5.9392 H         1 <0>         0.0874
     58 H27         2.5597   -3.2440   -8.1935 H         1 <0>         0.3874
     59 H28         0.1498   -5.9675   -3.6789 H         1 <0>         0.0384
     60 H29         1.6706   -6.8108   -4.0590 H         1 <0>         0.0732
     61 H30         0.9221   -7.0047   -2.4557 H         1 <0>         0.0998
     62 H31         3.0157   -8.0936   -2.8826 H         1 <0>         0.3709
     63 H32         0.7606   -8.0796   -0.6704 H         1 <0>         0.0753
     64 H33         2.2285   -9.0815   -0.7691 H         1 <0>         0.0953
     65 H34         1.0888   -9.3031    0.5801 H         1 <0>         0.0432
@<TRIPOS>BOND
     1    1    2 1
     2    1   38 1
     3    1   39 1
     4    1   40 1
     5    2    3 1
     6    2   41 1
     7    2   42 1
     8    3    4 1
     9    3   43 1
    10    3   44 1
    11    4    5 1
    12    4   30 1
    13    4    6 1
    14    6    7 1
    15    7    8 1
    16    7   29 1
    17    7    9 1
    18    9   10 1
    19    9   45 1
    20    9   46 1
    21   10   11 1
    22   10   28 1
    23   10   12 1
    24   12   13 1
    25   12   23 1
    26   12   14 1
    27   14   15 1
    28   14   47 1
    29   14   48 1
    30   15   16 1
    31   15   49 1
    32   15   50 1
    33   16   22 1
    34   16   17 2
    35   17   18 1
    36   17   51 1
    37   18   19 2
    38   18   20 1
    39   20   21 2
    40   20   52 1
    41   21   22 1
    42   21   53 1
    43   22   23 1
    44   22   37 1
    45   23   24 1
    46   23   25 1
    47   25   26 1
    48   25   27 1
    49   25   36 1
    50   27   28 1
    51   27   54 1
    52   27   55 1
    53   28   29 1
    54   28   35 1
    55   29   30 1
    56   29   31 1
    57   31   32 2
    58   31   33 1
    59   33   34 1
    60   33   56 1
    61   33   57 1
    62   34   58 1
    63   35   59 1
    64   35   60 1
    65   35   61 1
    66   36   62 1
    67   37   63 1
    68   37   64 1
    69   37   65 1
@<TRIPOS>MOLECULE
ZINC04164578
   73    76     0     0     0
SMALL
USER_CHARGES

@<TRIPOS>ATOM
      1 C1         -0.0866    1.2262   -0.1099 C.3       1 <0>        -0.1440
      2 C2         -0.3817   -0.2408    0.2091 C.3       1 <0>        -0.1152
      3 C3          0.5825   -0.7304    1.2587 C.2       1 <0>         0.4585
      4 O1          1.4199    0.0173    1.7056 O.2       1 <0>        -0.5038
      5 O2          0.5111   -1.9971    1.6970 O.3       1 <0>        -0.3338
      6 C4          1.4564   -2.3933    2.6927 C.3       1 <0>         0.0098
      7 C5          1.2250   -3.8366    3.0590 C.2       1 <0>         0.3528
      8 O3          0.2810   -4.4326    2.5986 O.2       1 <0>        -0.3927
      9 C6          2.1701   -4.5352    3.9983 C.3       1 <0>         0.0907
     10 C7          1.3839   -5.2517    5.1264 C.3       1 <0>        -0.0917
     11 H1          1.6408   -4.8118    6.0918 H         1 <0>         0.0894
     12 C8          1.8351   -6.7419    5.0956 C.3       1 <0>        -0.1086
     13 C9          3.2099   -6.6228    4.4268 C.3       1 <0>        -0.0803
     14 H2          3.8620   -6.0713    5.1447 H         1 <0>         0.0839
     15 C10         2.9019   -5.6697    3.2552 C.3       1 <0>        -0.0240
     16 C11         4.1865   -5.2881    2.5638 C.3       1 <0>        -0.1403
     17 C12         4.9420   -6.5512    2.1032 C.3       1 <0>         0.1058
     18 H3          5.9067   -6.1939    1.7041 H         1 <0>         0.0673
     19 C13         5.2128   -7.4895    3.2589 C.3       1 <0>         0.1676
     20 C14         3.9333   -7.8613    4.0253 C.3       1 <0>        -0.0803
     21 H4          4.2650   -8.3753    4.9558 H         1 <0>         0.0848
     22 C15         3.1426   -8.8762    3.2111 C.3       1 <0>        -0.1203
     23 C16         3.8760  -10.2170    3.3388 C.3       1 <0>        -0.0939
     24 C17         5.3654  -10.0256    3.2052 C.2       1 <0>        -0.0210
     25 C18         6.1109  -11.1459    3.2791 C.2       1 <0>        -0.2374
     26 C19         7.5836  -11.0280    3.2412 C.2       1 <0>         0.4071
     27 O4          8.3022  -11.9578    2.9011 O.2       1 <0>        -0.4545
     28 C20         8.1560   -9.7329    3.6811 C.2       1 <0>        -0.2203
     29 C21         7.4001   -8.6325    3.5842 C.2       1 <0>        -0.0778
     30 C22         6.0307   -8.7154    2.9617 C.3       1 <0>        -0.0254
     31 C23         6.3470   -8.7276    1.4664 C.3       1 <0>        -0.1527
     32 F1          5.9836   -6.7394    4.1858 F         1 <0>        -0.2068
     33 O5          4.2203   -7.1538    1.0373 O.3       1 <0>        -0.5443
     34 C24         1.9002   -6.2590    2.2601 C.3       1 <0>        -0.1672
     35 C25        -0.1210   -5.1448    4.8874 C.3       1 <0>        -0.1582
     36 O6          3.1131   -3.6181    4.5460 O.3       1 <0>        -0.3304
     37 C26         2.6323   -2.6576    5.3511 C.2       1 <0>         0.4512
     38 O7          1.4622   -2.6516    5.6523 O.2       1 <0>        -0.4923
     39 C27         3.5518   -1.5869    5.8792 C.3       1 <0>        -0.1196
     40 C28         2.7582   -0.6245    6.7651 C.3       1 <0>        -0.1443
     41 H5          0.9337    1.3189   -0.4823 H         1 <0>         0.0647
     42 H6         -0.7840    1.5804   -0.8691 H         1 <0>         0.0734
     43 H7         -0.1991    1.8245    0.7943 H         1 <0>         0.0648
     44 H8         -1.4019   -0.3335    0.5815 H         1 <0>         0.1087
     45 H9         -0.2692   -0.8390   -0.6950 H         1 <0>         0.1085
     46 H10         2.4670   -2.2751    2.3018 H         1 <0>         0.0999
     47 H11         1.3343   -1.7696    3.5783 H         1 <0>         0.1012
     48 H12         1.9413   -7.1226    6.1144 H         1 <0>         0.0746
     49 H13         1.1497   -7.3565    4.5281 H         1 <0>         0.0846
     50 H14         3.9722   -4.6650    1.6902 H         1 <0>         0.0746
     51 H15         4.8289   -4.7234    3.2466 H         1 <0>         0.0926
     52 H16         2.1329   -8.9837    3.6177 H         1 <0>         0.0785
     53 H17         3.0853   -8.6071    2.1614 H         1 <0>         0.1011
     54 H18         3.6619  -10.6505    4.3149 H         1 <0>         0.0875
     55 H19         3.5324  -10.8911    2.5564 H         1 <0>         0.0891
     56 H20         5.6283  -12.1232    3.3651 H         1 <0>         0.1464
     57 H21         9.1730   -9.6794    4.0768 H         1 <0>         0.1466
     58 H22         7.7728   -7.6774    3.9505 H         1 <0>         0.1500
     59 H23         6.9088   -7.8304    1.2066 H         1 <0>         0.0653
     60 H24         6.9408   -9.6100    1.2278 H         1 <0>         0.0592
     61 H25         5.4169   -8.7510    0.8985 H         1 <0>         0.0995
     62 H26         4.1097   -6.5827    0.2649 H         1 <0>         0.3869
     63 H27         1.6856   -5.5254    1.4831 H         1 <0>         0.0566
     64 H28         2.3232   -7.1554    1.8065 H         1 <0>         0.0985
     65 H29         0.9783   -6.5162    2.7817 H         1 <0>         0.0737
     66 H30        -0.3713   -5.6094    3.9337 H         1 <0>         0.0860
     67 H31        -0.6535   -5.6542    5.6906 H         1 <0>         0.0594
     68 H32        -0.4120   -4.0946    4.8674 H         1 <0>         0.0590
     69 H33         4.3473   -2.0476    6.4650 H         1 <0>         0.1097
     70 H34         3.9869   -1.0374    5.0445 H         1 <0>         0.1085
     71 H35         1.9627   -0.1637    6.1794 H         1 <0>         0.0640
     72 H36         2.3231   -1.1740    7.5999 H         1 <0>         0.0657
     73 H37         3.4233    0.1500    7.1471 H         1 <0>         0.0734
@<TRIPOS>BOND
     1    1    2 1
     2    1   41 1
     3    1   42 1
     4    1   43 1
     5    2    3 1
     6    2   44 1
     7    2   45 1
     8    3    4 2
     9    3    5 1
    10    5    6 1
    11    6    7 1
    12    6   46 1
    13    6   47 1
    14    7    8 2
    15    7    9 1
    16    9   15 1
    17    9   10 1
    18    9   36 1
    19   10   11 1
    20   10   12 1
    21   10   35 1
    22   12   13 1
    23   12   48 1
    24   12   49 1
    25   13   14 1
    26   13   20 1
    27   13   15 1
    28   15   16 1
    29   15   34 1
    30   16   17 1
    31   16   50 1
    32   16   51 1
    33   17   18 1
    34   17   19 1
    35   17   33 1
    36   19   30 1
    37   19   20 1
    38   19   32 1
    39   20   21 1
    40   20   22 1
    41   22   23 1
    42   22   52 1
    43   22   53 1
    44   23   24 1
    45   23   54 1
    46   23   55 1
    47   24   30 1
    48   24   25 2
    49   25   26 1
    50   25   56 1
    51   26   27 2
    52   26   28 1
    53   28   29 2
    54   28   57 1
    55   29   30 1
    56   29   58 1
    57   30   31 1
    58   31   59 1
    59   31   60 1
    60   31   61 1
    61   33   62 1
    62   34   63 1
    63   34   64 1
    64   34   65 1
    65   35   66 1
    66   35   67 1
    67   35   68 1
    68   36   37 1
    69   37   38 2
    70   37   39 1
    71   39   40 1
    72   39   69 1
    73   39   70 1
    74   40   71 1
    75   40   72 1
    76   40   73 1
@<TRIPOS>MOLECULE
ZINC04164588
   73    76     0     0     0
SMALL
USER_CHARGES

@<TRIPOS>ATOM
      1 C1          1.6486    2.0442    1.2810 C.3       1 <0>        -0.1438
      2 C2          1.1629    0.5952    1.3551 C.3       1 <0>        -0.1153
      3 C3          1.9634   -0.1505    2.3915 C.2       1 <0>         0.4585
      4 O1          2.8332    0.4186    3.0076 O.2       1 <0>        -0.5039
      5 O2          1.7102   -1.4469    2.6302 O.3       1 <0>        -0.3338
      6 C4          2.5075   -2.0910    3.6259 C.3       1 <0>         0.0014
      7 C5          2.0831   -3.5312    3.7550 C.2       1 <0>         0.3628
      8 O3          1.1254   -3.9359    3.1407 O.2       1 <0>        -0.4035
      9 C6          2.8538   -4.4665    4.6508 C.3       1 <0>         0.0892
     10 C7          1.9443   -4.9872    5.7793 C.3       1 <0>        -0.0906
     11 H1          2.3806   -4.7505    6.7497 H         1 <0>         0.0888
     12 C8          1.8519   -6.5199    5.5998 C.3       1 <0>        -0.1351
     13 C9          2.1859   -6.7284    4.1109 C.3       1 <0>        -0.0709
     14 H2          1.3175   -6.4594    3.5096 H         1 <0>         0.0922
     15 C10         3.3130   -5.7136    3.8499 C.3       1 <0>        -0.0141
     16 C11         4.6211   -6.1897    4.4869 C.3       1 <0>        -0.1374
     17 C12         4.9774   -7.5918    4.0008 C.3       1 <0>         0.0806
     18 H3          5.9320   -7.8959    4.4301 H         1 <0>         0.0870
     19 C13         3.8791   -8.5624    4.4500 C.3       1 <0>         0.1659
     20 C14         2.5838   -8.1475    3.7977 C.3       1 <0>        -0.0890
     21 H4          1.8028   -8.8169    4.1581 H         1 <0>         0.0810
     22 C15         2.7186   -8.3546    2.2832 C.3       1 <0>        -0.1547
     23 C16         2.6876   -9.8617    2.0208 C.3       1 <0>        -0.0848
     24 C17         3.6453  -10.5716    2.9320 C.2       1 <0>        -0.0231
     25 C18         3.9309  -11.8691    2.6736 C.2       1 <0>        -0.2383
     26 C19         4.8455  -12.5142    3.6550 C.2       1 <0>         0.4145
     27 O4          5.7424  -13.2651    3.3197 O.2       1 <0>        -0.4486
     28 C20         4.5777  -12.1699    5.0789 C.2       1 <0>        -0.2186
     29 C21         4.2883  -10.8702    5.3070 C.2       1 <0>        -0.0873
     30 C22         4.2614   -9.9783    4.1120 C.3       1 <0>        -0.0326
     31 C23         5.7423   -9.9036    3.7351 C.3       1 <0>        -0.1761
     32 F1          3.7242   -8.4562    5.8364 F         1 <0>        -0.1891
     33 O5          5.0704   -7.5954    2.5748 O.3       1 <0>        -0.5277
     34 C24         3.4729   -5.4100    2.3589 C.3       1 <0>        -0.1768
     35 C25         0.5536   -4.3600    5.6632 C.3       1 <0>        -0.1638
     36 O6          3.9869   -3.7935    5.2033 O.3       1 <0>        -0.3333
     37 C26         3.7414   -2.7832    6.0523 C.2       1 <0>         0.4509
     38 O7          2.6078   -2.5446    6.3957 O.2       1 <0>        -0.4915
     39 C27         4.8797   -1.9466    6.5772 C.3       1 <0>        -0.1186
     40 C28         4.3312   -0.8722    7.5183 C.3       1 <0>        -0.1446
     41 H5          2.7032    2.0603    1.0062 H         1 <0>         0.0647
     42 H6          1.0695    2.5836    0.5314 H         1 <0>         0.0732
     43 H7          1.5189    2.5210    2.2526 H         1 <0>         0.0648
     44 H8          0.1082    0.5792    1.6299 H         1 <0>         0.1086
     45 H9          1.2926    0.1184    0.3836 H         1 <0>         0.1085
     46 H10         3.5572   -2.0462    3.3358 H         1 <0>         0.0985
     47 H11         2.3729   -1.5854    4.5822 H         1 <0>         0.1117
     48 H12         2.5825   -7.0251    6.2315 H         1 <0>         0.0976
     49 H13         0.8441   -6.8720    5.8200 H         1 <0>         0.0763
     50 H14         5.4227   -5.5018    4.2181 H         1 <0>         0.0845
     51 H15         4.5087   -6.2032    5.5710 H         1 <0>         0.0873
     52 H16         1.8880   -7.8720    1.7682 H         1 <0>         0.0714
     53 H17         3.6636   -7.9377    1.9352 H         1 <0>         0.1448
     54 H18         1.6791  -10.2371    2.1946 H         1 <0>         0.0823
     55 H19         2.9668  -10.0529    0.9847 H         1 <0>         0.0846
     56 H20         3.5268  -12.3955    1.8215 H         1 <0>         0.1516
     57 H21         4.6119  -12.9044    5.8699 H         1 <0>         0.1519
     58 H22         4.0573  -10.5081    6.2979 H         1 <0>         0.1510
     59 H23         6.3026   -9.4485    4.5519 H         1 <0>         0.0675
     60 H24         6.1214  -10.9087    3.5502 H         1 <0>         0.0610
     61 H25         5.8581   -9.3002    2.8347 H         1 <0>         0.1042
     62 H26         5.7406   -6.9937    2.2229 H         1 <0>         0.3763
     63 H27         4.1649   -4.5778    2.2297 H         1 <0>         0.0536
     64 H28         3.8640   -6.2903    1.8488 H         1 <0>         0.1073
     65 H29         2.5037   -5.1457    1.9360 H         1 <0>         0.0676
     66 H30         0.1158   -4.6227    4.7002 H         1 <0>         0.0743
     67 H31        -0.0820   -4.7345    6.4656 H         1 <0>         0.0619
     68 H32         0.6363   -3.2759    5.7411 H         1 <0>         0.0663
     69 H33         5.5781   -2.5832    7.1204 H         1 <0>         0.1090
     70 H34         5.3953   -1.4704    5.7432 H         1 <0>         0.1081
     71 H35         3.6328   -0.2356    6.9751 H         1 <0>         0.0649
     72 H36         3.8156   -1.3484    8.3522 H         1 <0>         0.0657
     73 H37         5.1545   -0.2671    7.8979 H         1 <0>         0.0731
@<TRIPOS>BOND
     1    1    2 1
     2    1   41 1
     3    1   42 1
     4    1   43 1
     5    2    3 1
     6    2   44 1
     7    2   45 1
     8    3    4 2
     9    3    5 1
    10    5    6 1
    11    6    7 1
    12    6   46 1
    13    6   47 1
    14    7    8 2
    15    7    9 1
    16    9   15 1
    17    9   10 1
    18    9   36 1
    19   10   11 1
    20   10   12 1
    21   10   35 1
    22   12   13 1
    23   12   48 1
    24   12   49 1
    25   13   14 1
    26   13   20 1
    27   13   15 1
    28   15   16 1
    29   15   34 1
    30   16   17 1
    31   16   50 1
    32   16   51 1
    33   17   18 1
    34   17   19 1
    35   17   33 1
    36   19   30 1
    37   19   20 1
    38   19   32 1
    39   20   21 1
    40   20   22 1
    41   22   23 1
    42   22   52 1
    43   22   53 1
    44   23   24 1
    45   23   54 1
    46   23   55 1
    47   24   30 1
    48   24   25 2
    49   25   26 1
    50   25   56 1
    51   26   27 2
    52   26   28 1
    53   28   29 2
    54   28   57 1
    55   29   30 1
    56   29   58 1
    57   30   31 1
    58   31   59 1
    59   31   60 1
    60   31   61 1
    61   33   62 1
    62   34   63 1
    63   34   64 1
    64   34   65 1
    65   35   66 1
    66   35   67 1
    67   35   68 1
    68   36   37 1
    69   37   38 2
    70   37   39 1
    71   39   40 1
    72   39   69 1
    73   39   70 1
    74   40   71 1
    75   40   72 1
    76   40   73 1
@<TRIPOS>MOLECULE
ZINC03875332
   57    60     0     0     0
SMALL
USER_CHARGES

@<TRIPOS>ATOM
      1 C1          1.7167    1.2309    1.5187 C.3       1 <0>        -0.1455
      2 C2          1.3454   -0.1868    1.0794 C.3       1 <0>        -0.1160
      3 H1          2.1316   -0.6004    0.4477 H         1 <0>         0.0891
      4 C3         -0.0035   -0.1703    0.3097 C.3       1 <0>        -0.1065
      5 C4         -1.0253   -0.5076    1.4012 C.3       1 <0>        -0.0810
      6 H2         -1.1939    0.3572    2.0429 H         1 <0>         0.0898
      7 C5         -2.3489   -1.0698    0.9157 C.3       1 <0>        -0.1006
      8 H3         -2.1727   -1.9725    0.3308 H         1 <0>         0.1130
      9 C6         -3.0706   -0.0302    0.0559 C.3       1 <0>        -0.1154
     10 C7         -4.3873   -0.6154   -0.4645 C.3       1 <0>        -0.0951
     11 C8         -5.1933   -1.0974    0.7271 C.2       1 <0>        -0.0294
     12 C9         -6.4507   -0.6977    0.8564 C.2       1 <0>        -0.2208
     13 C10        -7.2574   -1.1277    2.0090 C.2       1 <0>         0.4077
     14 O1         -8.4233   -0.7949    2.1114 O.2       1 <0>        -0.4562
     15 C11        -6.6219   -1.9706    3.0360 C.2       1 <0>        -0.2091
     16 C12        -5.3670   -2.3631    2.8829 C.2       1 <0>        -0.0691
     17 C13        -4.5212   -2.0131    1.7070 C.3       1 <0>        -0.0316
     18 C14        -3.1875   -1.4118    2.1576 C.3       1 <0>         0.1617
     19 C15        -2.4590   -2.3846    3.0797 C.3       1 <0>         0.0883
     20 H4         -3.0477   -2.5237    3.9864 H         1 <0>         0.0725
     21 C16        -1.0633   -1.8673    3.4626 C.3       1 <0>        -0.1275
     22 C17        -0.2906   -1.6287    2.1842 C.3       1 <0>        -0.0389
     23 C18         1.1308   -1.0889    2.3202 C.3       1 <0>         0.1101
     24 C19         2.1234   -2.2228    2.3194 C.2       1 <0>         0.3354
     25 O2          2.5416   -2.6584    1.2736 O.2       1 <0>        -0.4125
     26 C20         2.5942   -2.8131    3.6236 C.3       1 <0>         0.0292
     27 O3          3.5247   -3.8656    3.3618 O.3       1 <0>        -0.5557
     28 O4          1.2564   -0.3206    3.5186 O.3       1 <0>        -0.5365
     29 C21        -0.2826   -2.9176    1.3599 C.3       1 <0>        -0.1713
     30 O5         -2.3223   -3.6426    2.4156 O.3       1 <0>        -0.5409
     31 F1         -3.4514   -0.2383    2.8722 F         1 <0>        -0.1921
     32 C22        -4.1781   -3.3115    0.9740 C.3       1 <0>        -0.1371
     33 H5          2.6440    1.2029    2.0910 H         1 <0>         0.0522
     34 H6          1.8515    1.8603    0.6390 H         1 <0>         0.0629
     35 H7          0.9191    1.6397    2.1391 H         1 <0>         0.0692
     36 H8         -0.1972    0.8177   -0.1080 H         1 <0>         0.0758
     37 H9         -0.0104   -0.9291   -0.4728 H         1 <0>         0.0749
     38 H10        -3.2795    0.8552    0.6564 H         1 <0>         0.0744
     39 H11        -2.4377    0.2454   -0.7876 H         1 <0>         0.0816
     40 H12        -4.9453    0.1528   -0.9998 H         1 <0>         0.0846
     41 H13        -4.1799   -1.4524   -1.1313 H         1 <0>         0.0881
     42 H14        -6.8864   -0.0507    0.1094 H         1 <0>         0.1389
     43 H15        -7.1785   -2.2675    3.9126 H         1 <0>         0.1407
     44 H16        -4.9291   -2.9744    3.6581 H         1 <0>         0.1272
     45 H17        -1.1524   -0.9285    4.0092 H         1 <0>         0.0906
     46 H18        -0.5482   -2.6072    4.0751 H         1 <0>         0.0741
     47 H19         3.0790   -2.0392    4.2187 H         1 <0>         0.0812
     48 H20         1.7401   -3.2112    4.1715 H         1 <0>         0.0812
     49 H21         3.8701   -4.2922    4.1579 H         1 <0>         0.3864
     50 H22         2.1272    0.0825    3.6379 H         1 <0>         0.3793
     51 H23         0.3951   -2.8035    0.5138 H         1 <0>         0.0588
     52 H24         0.0519   -3.7461    1.9842 H         1 <0>         0.0516
     53 H25        -1.2891   -3.1213    0.9944 H         1 <0>         0.1113
     54 H26        -1.8675   -4.3164    2.9393 H         1 <0>         0.3771
     55 H27        -3.2905   -3.1585    0.3600 H         1 <0>         0.0769
     56 H28        -3.9848   -4.0995    1.7019 H         1 <0>         0.0989
     57 H29        -5.0143   -3.6016    0.3379 H         1 <0>         0.0541
@<TRIPOS>BOND
     1    1    2 1
     2    1   33 1
     3    1   34 1
     4    1   35 1
     5    2    3 1
     6    2   23 1
     7    2    4 1
     8    4    5 1
     9    4   36 1
    10    4   37 1
    11    5    6 1
    12    5   22 1
    13    5    7 1
    14    7    8 1
    15    7   18 1
    16    7    9 1
    17    9   10 1
    18    9   38 1
    19    9   39 1
    20   10   11 1
    21   10   40 1
    22   10   41 1
    23   11   17 1
    24   11   12 2
    25   12   13 1
    26   12   42 1
    27   13   14 2
    28   13   15 1
    29   15   16 2
    30   15   43 1
    31   16   17 1
    32   16   44 1
    33   17   18 1
    34   17   32 1
    35   18   19 1
    36   18   31 1
    37   19   20 1
    38   19   21 1
    39   19   30 1
    40   21   22 1
    41   21   45 1
    42   21   46 1
    43   22   23 1
    44   22   29 1
    45   23   24 1
    46   23   28 1
    47   24   25 2
    48   24   26 1
    49   26   27 1
    50   26   47 1
    51   26   48 1
    52   27   49 1
    53   28   50 1
    54   29   51 1
    55   29   52 1
    56   29   53 1
    57   30   54 1
    58   32   55 1
    59   32   56 1
    60   32   57 1
@<TRIPOS>MOLECULE
ZINC28383270
   53    56     0     0     0
SMALL
USER_CHARGES
(8S,9R,10S,11S,13S,14S,16R,17R)-9-fluoro-11,17-dihydroxy-10,13,16-trimethyl-3-oxo-6,7,8,11,12,14,15,16-octahydrocyclopenta[a]phenanthrene-17-carboxylic acid
@<TRIPOS>ATOM
      1 C1          4.3663   -0.1304   -4.0203 C.3       1 <0>        -0.1265
      2 C2          3.8261    1.2750   -3.7484 C.3       1 <0>        -0.0801
      3 H1          4.5238    1.9834   -4.2190 H         1 <0>         0.0892
      4 C3          3.7071    1.5149   -2.2186 C.3       1 <0>        -0.1059
      5 C4          2.2426    1.1670   -1.9293 C.3       1 <0>        -0.0776
      6 H2          2.1399    0.0844   -1.7638 H         1 <0>         0.0772
      7 C5          1.6532    1.7852   -0.6746 C.3       1 <0>        -0.1033
      8 H3          1.7695    2.8787   -0.7028 H         1 <0>         0.1083
      9 C6          2.3805    1.2496    0.5602 C.3       1 <0>        -0.1200
     10 C7          1.8103    1.9089    1.8202 C.3       1 <0>        -0.0967
     11 C8          0.3113    1.6750    1.8378 C.2       1 <0>        -0.0174
     12 C9         -0.2465    1.1651    2.9271 C.2       1 <0>        -0.2371
     13 C10        -1.6936    0.9043    2.9742 C.2       1 <0>         0.4136
     14 O1         -2.2156    0.4732    3.9853 O.2       1 <0>        -0.4692
     15 C11        -2.4961    1.1765    1.7697 C.2       1 <0>        -0.2229
     16 C12        -1.9192    1.6925    0.6958 C.2       1 <0>        -0.0605
     17 C13        -0.4722    2.0387    0.6114 C.3       1 <0>        -0.0362
     18 C14         0.1710    1.3834   -0.6146 C.3       1 <0>         0.1649
     19 C15        -0.5871    1.8346   -1.8593 C.3       1 <0>         0.0945
     20 H4         -1.6372    1.5123   -1.8009 H         1 <0>         0.0615
     21 C16         0.0969    1.2917   -3.1461 C.3       1 <0>        -0.1282
     22 C17         1.5206    1.8144   -3.1414 C.3       1 <0>        -0.0497
     23 C18         2.3955    1.4156   -4.3254 C.3       1 <0>         0.1179
     24 C19         2.3623    2.4878   -5.3837 C.2       1 <0>         0.4577
     25 O2          3.2338    3.3238   -5.4244 O.co2     1 <0>        -0.6349
     26 O3          1.3646    2.5143   -6.2813 O.co2     1 <0>        -0.7702
     27 O4          1.9545    0.1700   -4.8695 O.3       1 <0>        -0.5767
     28 C20         1.5132    3.3366   -2.9880 C.3       1 <0>        -0.1755
     29 O5         -0.6150    3.2628   -1.8959 O.3       1 <0>        -0.5545
     30 F1          0.0755   -0.0074   -0.4963 F         1 <0>        -0.1938
     31 C21        -0.3811    3.5552    0.4307 C.3       1 <0>        -0.1705
     32 H5          5.3817   -0.2192   -3.6068 H         1 <0>         0.0371
     33 H6          4.3954   -0.3084   -5.1054 H         1 <0>         0.0529
     34 H7          3.7101   -0.8739   -3.5442 H         1 <0>         0.0515
     35 H8          4.4111    0.8567   -1.6884 H         1 <0>         0.0592
     36 H9          3.9453    2.5647   -1.9924 H         1 <0>         0.0660
     37 H10         2.2419    0.1602    0.6236 H         1 <0>         0.0704
     38 H11         3.4535    1.4788    0.4819 H         1 <0>         0.0799
     39 H12         2.2743    1.4601    2.7109 H         1 <0>         0.0802
     40 H13         2.0252    2.9875    1.7990 H         1 <0>         0.0875
     41 H14         0.3736    0.9334    3.8056 H         1 <0>         0.1378
     42 H15        -3.5729    0.9519    1.7613 H         1 <0>         0.1408
     43 H16        -2.5153    1.8906   -0.2072 H         1 <0>         0.1315
     44 H17         0.0853    0.1919   -3.1314 H         1 <0>         0.0762
     45 H18        -0.4480    1.6523   -4.0310 H         1 <0>         0.0801
     46 H19         0.9554    0.0908   -5.3229 H         1 <0>         0.3939
     47 H20         1.0005    3.7894   -3.8495 H         1 <0>         0.0543
     48 H21         2.5485    3.7055   -2.9420 H         1 <0>         0.0459
     49 H22         0.9853    3.6092   -2.0623 H         1 <0>         0.1136
     50 H23        -1.1201    3.7820   -2.7237 H         1 <0>         0.4048
     51 H24        -0.9480    3.8526   -0.4638 H         1 <0>         0.1418
     52 H25         0.6726    3.8475    0.3110 H         1 <0>         0.0686
     53 H26        -0.8023    4.0558    1.3150 H         1 <0>         0.0484
@<TRIPOS>BOND
     1    1    2 1
     2    1   32 1
     3    1   33 1
     4    1   34 1
     5    2    3 1
     6    2   23 1
     7    2    4 1
     8    4    5 1
     9    4   35 1
    10    4   36 1
    11    5    6 1
    12    5   22 1
    13    5    7 1
    14    7    8 1
    15    7   18 1
    16    7    9 1
    17    9   10 1
    18    9   37 1
    19    9   38 1
    20   10   11 1
    21   10   39 1
    22   10   40 1
    23   11   17 1
    24   11   12 2
    25   12   13 1
    26   12   41 1
    27   13   14 2
    28   13   15 1
    29   15   16 2
    30   15   42 1
    31   16   17 1
    32   16   43 1
    33   17   18 1
    34   17   31 1
    35   18   19 1
    36   18   30 1
    37   19   20 1
    38   19   21 1
    39   19   29 1
    40   21   22 1
    41   21   44 1
    42   21   45 1
    43   22   23 1
    44   22   28 1
    45   23   24 1
    46   23   27 1
    47   24   25 2
    48   24   26 1
    49   27   46 1
    50   28   47 1
    51   28   48 1
    52   28   49 1
    53   29   50 1
    54   31   51 1
    55   31   52 1
    56   31   53 1
