@<TRIPOS>MOLECULE
ZINC04245665
   72    75     0     0     0
SMALL
USER_CHARGES
N-[(7S)-1,2-dimethoxy-10-methylsulfanyl-9-oxo-3-[(2S,3R,4S,5S,6R)-3,4,5-trihydroxy-6-(hydroxymethyl)tetrahydropyran-2-yl]oxy-6,7-dihydro-5H-benzo[a]heptalen-7-yl]acetamide
@<TRIPOS>ATOM
      1 C1          4.2601    7.2954   -1.7079 C.3       1 <0>        -0.1738
      2 C2          4.8266    5.9422   -1.3630 C.2       1 <0>         0.5141
      3 O1          5.1346    5.1706   -2.2466 O.2       1 <0>        -0.5417
      4 N1          4.9911    5.5894   -0.0727 N.am      1 <0>        -0.7390
      5 C3          5.5419    4.2739    0.2626 C.3       1 <0>         0.1725
      6 H1          6.2779    3.9877   -0.5031 H         1 <0>         0.1076
      7 C4          6.2356    4.3568    1.6071 C.3       1 <0>        -0.1144
      8 C5          6.5100    2.9648    2.1698 C.3       1 <0>        -0.0800
      9 C6          7.0542    2.0761    1.0810 C.ar      1 <0>        -0.0216
     10 C7          8.3996    1.7737    1.0413 C.ar      1 <0>        -0.1736
     11 C8          8.8971    0.9466    0.0424 C.ar      1 <0>         0.1346
     12 C9          8.0452    0.4179   -0.9213 C.ar      1 <0>         0.0486
     13 C10         6.6904    0.7209   -0.8894 C.ar      1 <0>         0.1358
     14 C11         6.1970    1.5583    0.1158 C.ar      1 <0>        -0.1037
     15 C12         4.7448    1.9074    0.1401 C.2       1 <0>        -0.0099
     16 C13         4.4194    3.2564    0.2725 C.2       1 <0>         0.0101
     17 C14         3.1725    3.7457    0.4027 C.2       1 <0>        -0.1889
     18 C15         1.9418    3.1579    0.4296 C.2       1 <0>         0.4001
     19 O2          0.9986    3.9084    0.6412 O.2       1 <0>        -0.5023
     20 C16         1.6177    1.8147    0.2471 C.2       1 <0>        -0.1481
     21 C17         2.5155    0.8025    0.0719 C.2       1 <0>        -0.0876
     22 C18         3.8574    0.8657    0.0347 C.2       1 <0>        -0.0512
     23 S1         -0.0918    1.3879    0.2499 S.3       1 <0>        -0.0189
     24 C19         0.0299   -0.3987   -0.0137 C.3       1 <0>        -0.1863
     25 O3          5.8511    0.2077   -1.8270 O.3       1 <0>        -0.3251
     26 C20         5.7403    0.9225   -3.0594 C.3       1 <0>         0.0344
     27 O4          8.5386   -0.3960   -1.8941 O.3       1 <0>        -0.3175
     28 C21         8.5593   -1.7979   -1.6184 C.3       1 <0>         0.0346
     29 O5         10.2237    0.6524    0.0067 O.3       1 <0>        -0.2689
     30 C22        11.0435    1.2279    1.0258 C.3       1 <0>         0.2671
     31 H2         10.5776    0.9974    1.9952 H         1 <0>         0.0773
     32 C23        12.4708    0.6892    0.8978 C.3       1 <0>         0.1181
     33 H3         12.8690    0.8419   -0.1162 H         1 <0>         0.0851
     34 C24        13.3567    1.3560    1.9546 C.3       1 <0>         0.1017
     35 H4         13.0667    1.0560    2.9724 H         1 <0>         0.0752
     36 C25        13.2905    2.8758    1.7757 C.3       1 <0>         0.0628
     37 H5         13.7490    3.1901    0.8265 H         1 <0>         0.0787
     38 C26        11.8315    3.3299    1.8700 C.3       1 <0>         0.0702
     39 H6         11.3889    3.0552    2.8388 H         1 <0>         0.0799
     40 O6         11.0573    2.6494    0.8802 O.3       1 <0>        -0.3786
     41 C27        11.7505    4.8392    1.6325 C.3       1 <0>         0.0956
     42 O7         10.4067    5.2816    1.8338 O.3       1 <0>        -0.5888
     43 O8         14.0557    3.5113    2.8017 O.3       1 <0>        -0.5896
     44 O9         14.7063    0.9142    1.7950 O.3       1 <0>        -0.5905
     45 O10        12.4673   -0.7253    1.1007 O.3       1 <0>        -0.5796
     46 H7          4.0432    7.8488   -0.7823 H         1 <0>         0.0782
     47 H8          3.3323    7.1682   -2.2850 H         1 <0>         0.0966
     48 H9          4.9912    7.8568   -2.3081 H         1 <0>         0.0959
     49 H10         4.7118    6.2892    0.7287 H         1 <0>         0.4253
     50 H11         7.1934    4.8857    1.4935 H         1 <0>         0.0899
     51 H12         5.5967    4.9035    2.3163 H         1 <0>         0.0817
     52 H13         7.2461    3.0370    2.9840 H         1 <0>         0.0888
     53 H14         5.5747    2.5353    2.5581 H         1 <0>         0.0824
     54 H15         9.0665    2.1804    1.7872 H         1 <0>         0.1430
     55 H16         3.1396    4.8202    0.5066 H         1 <0>         0.1356
     56 H17         2.0903   -0.1816   -0.0595 H         1 <0>         0.1329
     57 H18         4.3321   -0.0950   -0.1004 H         1 <0>         0.1281
     58 H19        -0.9795   -0.8352   -0.0388 H         1 <0>         0.1145
     59 H20         0.6052   -0.8521    0.8070 H         1 <0>         0.0915
     60 H21         0.5380   -0.5945   -0.9695 H         1 <0>         0.0916
     61 H22         5.0340    0.4020   -3.7229 H         1 <0>         0.0973
     62 H23         6.7270    0.9749   -3.5429 H         1 <0>         0.0558
     63 H24         5.3746    1.9408   -2.8610 H         1 <0>         0.0531
     64 H25         8.9790   -2.3352   -2.4817 H         1 <0>         0.0953
     65 H26         7.5342   -2.1498   -1.4305 H         1 <0>         0.0488
     66 H27         9.1807   -1.9879   -0.7308 H         1 <0>         0.0487
     67 H28        12.4168    5.3576    2.3377 H         1 <0>         0.0618
     68 H29        12.0605    5.0653    0.6016 H         1 <0>         0.0569
     69 H30        10.1527    6.3443    1.7070 H         1 <0>         0.4142
     70 H31        14.1256    4.6085    2.8360 H         1 <0>         0.4152
     71 H32        15.4910    1.2888    2.4688 H         1 <0>         0.4262
     72 H33        13.4091   -1.2911    1.0463 H         1 <0>         0.4262
@<TRIPOS>BOND
     1    1    2 1
     2    1   46 1
     3    1   47 1
     4    1   48 1
     5    2    3 2
     6    2    4 am
     7    4    5 1
     8    4   49 1
     9    5    6 1
    10    5   16 1
    11    5    7 1
    12    7    8 1
    13    7   50 1
    14    7   51 1
    15    8    9 1
    16    8   52 1
    17    8   53 1
    18    9   14 ar
    19    9   10 ar
    20   10   11 ar
    21   10   54 1
    22   11   12 ar
    23   11   29 1
    24   12   13 ar
    25   12   27 1
    26   13   14 ar
    27   13   25 1
    28   14   15 1
    29   15   22 2
    30   15   16 1
    31   16   17 2
    32   17   18 1
    33   17   55 1
    34   18   19 2
    35   18   20 1
    36   20   21 2
    37   20   23 1
    38   21   22 1
    39   21   56 1
    40   22   57 1
    41   23   24 1
    42   24   58 1
    43   24   59 1
    44   24   60 1
    45   25   26 1
    46   26   61 1
    47   26   62 1
    48   26   63 1
    49   27   28 1
    50   28   64 1
    51   28   65 1
    52   28   66 1
    53   29   30 1
    54   30   31 1
    55   30   40 1
    56   30   32 1
    57   32   33 1
    58   32   34 1
    59   32   45 1
    60   34   35 1
    61   34   36 1
    62   34   44 1
    63   36   37 1
    64   36   38 1
    65   36   43 1
    66   38   39 1
    67   38   40 1
    68   38   41 1
    69   41   42 1
    70   41   67 1
    71   41   68 1
    72   42   69 1
    73   43   70 1
    74   44   71 1
    75   45   72 1
@<TRIPOS>MOLECULE
ZINC04098166
   37    41     0     0     0
SMALL
USER_CHARGES

@<TRIPOS>ATOM
      1 C1         -1.6685   -0.5271   -2.2952 C.3       1 <0>        -0.1082
      2 C2         -0.4727    0.2804   -1.8606 C.2       1 <0>        -0.1347
      3 C3         -0.6399    1.3661   -1.1468 C.2       1 <0>        -0.2612
      4 C4          0.9154   -0.1610   -2.2470 C.3       1 <0>        -0.0679
      5 H1          0.9193   -1.1859   -2.6179 H         1 <0>         0.1198
      6 C5          1.9238    0.0325   -1.0841 C.3       1 <0>         0.0592
      7 H2          1.9069   -0.8056   -0.3873 H         1 <0>         0.1575
      8 C6          1.5799    1.3539   -0.3928 C.3       1 <0>         0.0777
      9 H3          0.6693    1.2547    0.1979 H         1 <0>         0.1731
     10 C7          1.4708    2.5270   -1.3624 C.3       1 <0>        -0.0626
     11 C8          1.1234    2.2296   -2.8086 C.3       1 <0>         0.1638
     12 C9          1.5701    0.8205   -3.2608 C.3       1 <0>        -0.1788
     13 H4          1.3000    0.6045   -4.2945 H         1 <0>         0.1456
     14 C10         3.0535    0.6506   -2.9747 C.2       1 <0>         0.4805
     15 O1          3.9519    0.9083   -3.7404 O.2       1 <0>        -0.4263
     16 O2          3.2007    0.1667   -1.7300 O.3       1 <0>        -0.3219
     17 C11         1.9514    3.2566   -3.6227 C.3       1 <0>        -0.1521
     18 C12         3.2555    3.4242   -2.8128 C.3       1 <0>         0.0159
     19 H5          4.1868    3.0909   -3.2708 H         1 <0>         0.1641
     20 C13         2.8997    3.1132   -1.3544 C.3       1 <0>        -0.0882
     21 O3          3.2808    4.4276   -1.7916 O.3       1 <0>        -0.2574
     22 C14         3.6558    2.2164   -0.4027 C.2       1 <0>         0.5247
     23 O4          4.8439    1.9969   -0.3930 O.2       1 <0>        -0.3929
     24 O5          2.7110    1.7008    0.4533 O.3       1 <0>        -0.3226
     25 O6         -0.2769    2.4158   -3.0241 O.3       1 <0>        -0.5087
     26 C15         0.4882    3.5619   -0.8106 C.3       1 <0>        -0.1562
     27 H6         -1.9844   -0.2036   -3.2870 H         1 <0>         0.0745
     28 H7         -1.4020   -1.5836   -2.3255 H         1 <0>         0.0533
     29 H8         -2.4842   -0.3783   -1.5876 H         1 <0>         0.0659
     30 H9         -1.2443    1.3365   -0.2523 H         1 <0>         0.1030
     31 H10        -0.1733    2.2908   -1.4529 H         1 <0>         0.2102
     32 H11         2.1681    2.8682   -4.6178 H         1 <0>         0.1105
     33 H12         1.4204    4.2061   -3.6906 H         1 <0>         0.1086
     34 H13        -0.5619    2.2407   -3.9314 H         1 <0>         0.3748
     35 H14         1.0314    4.3002   -0.2207 H         1 <0>         0.0707
     36 H15        -0.0184    4.0591   -1.6377 H         1 <0>         0.0918
     37 H16        -0.2483    3.0636   -0.1801 H         1 <0>         0.0941
@<TRIPOS>BOND
     1    1    2 1
     2    1   27 1
     3    1   28 1
     4    1   29 1
     5    2    3 2
     6    2    4 1
     7    3   30 1
     8    3   31 1
     9    4    5 1
    10    4   12 1
    11    4    6 1
    12    6    7 1
    13    6   16 1
    14    6    8 1
    15    8    9 1
    16    8   24 1
    17    8   10 1
    18   10   20 1
    19   10   11 1
    20   10   26 1
    21   11   12 1
    22   11   17 1
    23   11   25 1
    24   12   13 1
    25   12   14 1
    26   14   15 2
    27   14   16 1
    28   17   18 1
    29   17   32 1
    30   17   33 1
    31   18   19 1
    32   18   21 1
    33   18   20 1
    34   20   21 1
    35   20   22 1
    36   22   23 2
    37   22   24 1
    38   25   34 1
    39   26   35 1
    40   26   36 1
    41   26   37 1
@<TRIPOS>MOLECULE
ZINC19796130
   20    21     0     0     0
SMALL
USER_CHARGES

@<TRIPOS>ATOM
      1 C1         -0.0168    1.3873    0.0097 C.ar      1 <0>        -0.1736
      2 C2          1.1692    2.0908    0.0021 C.ar      1 <0>         0.0367
      3 C3          2.3892    1.4254   -0.0135 C.ar      1 <0>        -0.1663
      4 C4          2.4321    0.0486   -0.0218 C.ar      1 <0>         0.0638
      5 C5          1.2385   -0.6785   -0.0139 C.ar      1 <0>        -0.2058
      6 C6          0.0021   -0.0041    0.0020 C.ar      1 <0>         0.2316
      7 N1         -1.1676   -0.7266    0.0088 N.pl3     1 <0>        -0.5818
      8 H1         -2.0149   -0.2546    0.0194 H         1 <0>         0.4278
      9 C7         -1.1664   -2.0925    0.0006 C.2       1 <0>         0.1417
     10 C8         -0.0188   -2.8151   -0.0138 C.2       1 <0>        -0.2806
     11 C9          1.2392   -2.1492   -0.0222 C.2       1 <0>         0.4127
     12 O1          2.2837   -2.7778   -0.0360 O.2       1 <0>        -0.4868
     13 C10        -2.4631   -2.8092    0.0081 C.2       1 <0>         0.5240
     14 O2         -2.4860   -4.0311    0.0010 O.co2     1 <0>        -0.6455
     15 O3         -3.5098   -2.1784    0.0215 O.co2     1 <0>        -0.6718
     16 Cl1         3.9586   -0.7779   -0.0425 Cl        1 <0>        -0.0235
     17 Cl2         1.1379    3.8265    0.0117 Cl        1 <0>        -0.0561
     18 H2         -0.9588    1.9154    0.0260 H         1 <0>         0.1482
     19 H3          3.3091    1.9912   -0.0196 H         1 <0>         0.1458
     20 H4         -0.0593   -3.8944   -0.0192 H         1 <0>         0.1596
@<TRIPOS>BOND
     1    1    6 ar
     2    1    2 ar
     3    1   18 1
     4    2    3 ar
     5    2   17 1
     6    3    4 ar
     7    3   19 1
     8    4    5 ar
     9    4   16 1
    10    5   11 1
    11    5    6 ar
    12    6    7 1
    13    7    8 1
    14    7    9 1
    15    9   10 2
    16    9   13 1
    17   10   11 1
    18   10   20 1
    19   11   12 2
    20   13   14 2
    21   13   15 1
@<TRIPOS>MOLECULE
ZINC04658552
   10     9     0     0     0
SMALL
USER_CHARGES

@<TRIPOS>ATOM
      1 C1         -0.0184    1.5028    0.0103 C.3       1 <0>        -0.0856
      2 C2          0.0021   -0.0041    0.0020 C.2       1 <0>         0.4796
      3 O1          1.0661   -0.5992   -0.0113 O.co2     1 <0>        -0.6772
      4 O2         -1.0454   -0.6280    0.0087 O.co2     1 <0>        -0.6399
      5 N1          1.3598    2.0112   -0.0001 N.4       1 <0>        -0.6124
      6 H1         -0.5455    1.8639   -0.8728 H         1 <0>         0.1272
      7 H2         -0.5286    1.8543    0.9071 H         1 <0>         0.1272
      8 H3          1.8478    1.6770    0.8173 H         1 <0>         0.4322
      9 H4          1.8321    1.6858   -0.8303 H         1 <0>         0.4322
     10 H5          1.3461    3.0201    0.0054 H         1 <0>         0.4167
@<TRIPOS>BOND
     1    1    2 1
     2    1    5 1
     3    1    6 1
     4    1    7 1
     5    2    3 2
     6    2    4 1
     7    5    8 1
     8    5    9 1
     9    5   10 1
