@<TRIPOS>MOLECULE
ZINC04097406
   53    54     0     0     0
SMALL
USER_CHARGES
2-(6-isopropenyl-3-methyl-1-cyclohex-2-enyl)-5-pentyl-benzene-1,3-diol
@<TRIPOS>ATOM
      1 C1         -1.4906   -2.6859   10.5600 C.3       1 <0>        -0.1542
      2 C2         -2.1649   -2.1025    9.3167 C.3       1 <0>        -0.1258
      3 C3         -1.1034   -1.7896    8.2602 C.3       1 <0>        -0.1210
      4 C4         -1.7776   -1.2062    7.0169 C.3       1 <0>        -0.1139
      5 C5         -0.7161   -0.8934    5.9604 C.3       1 <0>        -0.0814
      6 C6         -1.3802   -0.3186    4.7357 C.ar      1 <0>        -0.0518
      7 C7         -1.5608    1.0468    4.6257 C.ar      1 <0>        -0.1500
      8 C8         -2.1725    1.5785    3.4992 C.ar      1 <0>         0.1285
      9 C9         -2.6026    0.7383    2.4838 C.ar      1 <0>        -0.1233
     10 C10        -2.4254   -0.6318    2.5991 C.ar      1 <0>         0.1325
     11 C11        -1.8080   -1.1581    3.7250 C.ar      1 <0>        -0.1513
     12 O1         -2.8514   -1.4584    1.6081 O.3       1 <0>        -0.4853
     13 C12        -3.2671    1.3130    1.2593 C.3       1 <0>         0.0017
     14 H1         -3.3137    2.3981    1.3517 H         1 <0>         0.0949
     15 C13        -4.6587    0.7633    1.1444 C.2       1 <0>        -0.1403
     16 C14        -5.1912    0.3635    0.0343 C.2       1 <0>        -0.1173
     17 C15        -4.4878    0.3845   -1.2911 C.3       1 <0>        -0.0824
     18 C16        -3.2691    1.3077   -1.2265 C.3       1 <0>        -0.1100
     19 C17        -2.4506    0.9442    0.0188 C.3       1 <0>        -0.0425
     20 H2         -2.2400   -0.1253    0.0195 H         1 <0>         0.0756
     21 C18        -1.1558    1.7153    0.0169 C.2       1 <0>        -0.1095
     22 C19        -0.0126    1.0758    0.0080 C.2       1 <0>        -0.2004
     23 C20        -1.1763    3.2222    0.0251 C.3       1 <0>        -0.1176
     24 C21        -6.6053   -0.1557    0.0757 C.3       1 <0>        -0.1207
     25 O2         -2.3502    2.9215    3.3917 O.3       1 <0>        -0.4919
     26 H3         -0.9641   -3.6018   10.2917 H         1 <0>         0.0536
     27 H4         -0.7806   -1.9629   10.9613 H         1 <0>         0.0536
     28 H5         -2.2469   -2.9088   11.3126 H         1 <0>         0.0537
     29 H6         -2.6915   -1.1866    9.5849 H         1 <0>         0.0606
     30 H7         -2.8750   -2.8255    8.9153 H         1 <0>         0.0608
     31 H8         -0.5768   -2.7055    7.9919 H         1 <0>         0.0624
     32 H9         -0.3933   -1.0666    8.6615 H         1 <0>         0.0624
     33 H10        -2.3042   -0.2903    7.2851 H         1 <0>         0.0633
     34 H11        -2.4877   -1.9292    6.6155 H         1 <0>         0.0638
     35 H12        -0.1895   -1.8092    5.6921 H         1 <0>         0.0743
     36 H13        -0.0060   -0.1703    6.3617 H         1 <0>         0.0745
     37 H14        -1.2252    1.7010    5.4169 H         1 <0>         0.1290
     38 H15        -1.6658   -2.2250    3.8133 H         1 <0>         0.1285
     39 H16        -2.1877   -1.6292    0.9259 H         1 <0>         0.3841
     40 H17        -5.2528    0.6967    2.0438 H         1 <0>         0.0989
     41 H18        -5.1734    0.7443   -2.0583 H         1 <0>         0.0714
     42 H19        -4.1634   -0.6249   -1.5440 H         1 <0>         0.0730
     43 H20        -3.5982    2.3446   -1.1588 H         1 <0>         0.0672
     44 H21        -2.6585    1.1714   -2.1190 H         1 <0>         0.0683
     45 H22         0.0021   -0.0041    0.0020 H         1 <0>         0.0909
     46 H23         0.9153    1.6285    0.0021 H         1 <0>         0.0967
     47 H24        -1.1861    3.5910   -1.0005 H         1 <0>         0.0642
     48 H25        -2.0687    3.5706    0.5451 H         1 <0>         0.0666
     49 H26        -0.2889    3.5948    0.5368 H         1 <0>         0.0617
     50 H27        -6.5926   -1.2302    0.2583 H         1 <0>         0.0653
     51 H28        -7.1520    0.3425    0.8763 H         1 <0>         0.0592
     52 H29        -7.0941    0.0451   -0.8776 H         1 <0>         0.0600
     53 H30        -3.1891    3.2375    3.7543 H         1 <0>         0.3896
@<TRIPOS>BOND
     1    1    2 1
     2    1   26 1
     3    1   27 1
     4    1   28 1
     5    2    3 1
     6    2   29 1
     7    2   30 1
     8    3    4 1
     9    3   31 1
    10    3   32 1
    11    4    5 1
    12    4   33 1
    13    4   34 1
    14    5    6 1
    15    5   35 1
    16    5   36 1
    17    6   11 ar
    18    6    7 ar
    19    7    8 ar
    20    7   37 1
    21    8    9 ar
    22    8   25 1
    23    9   10 ar
    24    9   13 1
    25   10   11 ar
    26   10   12 1
    27   11   38 1
    28   12   39 1
    29   13   14 1
    30   13   19 1
    31   13   15 1
    32   15   16 2
    33   15   40 1
    34   16   17 1
    35   16   24 1
    36   17   18 1
    37   17   41 1
    38   17   42 1
    39   18   19 1
    40   18   43 1
    41   18   44 1
    42   19   20 1
    43   19   21 1
    44   21   22 2
    45   21   23 1
    46   22   45 1
    47   22   46 1
    48   23   47 1
    49   23   48 1
    50   23   49 1
    51   24   50 1
    52   24   51 1
    53   24   52 1
    54   25   53 1
