@<TRIPOS>MOLECULE
ZINC26840904
   48    49     0     0     0
SMALL
USER_CHARGES
2,2,2-trifluoro-N-(3-isobutoxyphenyl)-N-(3-pyridylmethyl)ethanesulfonamide
@<TRIPOS>ATOM
      1 C1         -5.8510    0.3257    1.0776 C.3       1 <0>        -0.1498
      2 C2         -4.7136   -0.2736    1.9071 C.3       1 <0>        -0.0951
      3 C3         -4.9061   -1.7874    2.0179 C.3       1 <0>        -0.1493
      4 C4         -3.3755    0.0219    1.2266 C.3       1 <0>         0.0597
      5 O1         -3.1418    1.4317    1.2275 O.3       1 <0>        -0.3085
      6 C5         -1.9877    1.8660    0.6564 C.ar      1 <0>         0.1563
      7 C6         -1.0984    0.9530    0.1064 C.ar      1 <0>        -0.2100
      8 C7          0.0727    1.3934   -0.4797 C.ar      1 <0>        -0.0482
      9 C8          0.3653    2.7431   -0.5158 C.ar      1 <0>        -0.1799
     10 C9         -0.5180    3.6611    0.0386 C.ar      1 <0>         0.1892
     11 C10        -1.6950    3.2202    0.6283 C.ar      1 <0>        -0.1545
     12 N1         -0.2225    5.0257    0.0022 N.pl3     1 <0>        -0.9320
     13 C11        -1.1772    5.9665   -0.5891 C.3       1 <0>         0.1461
     14 C12        -0.9767    6.0138   -2.0820 C.ar      1 <0>        -0.1744
     15 C13        -0.1974    7.0077   -2.6546 C.ar      1 <0>        -0.0773
     16 C14        -0.0371    7.0092   -4.0315 C.ar      1 <0>        -0.1700
     17 C15        -0.6629    6.0328   -4.7836 C.ar      1 <0>         0.1086
     18 N2         -1.4008    5.1057   -4.2053 N.ar      1 <0>        -0.4804
     19 C16        -1.5717    5.0707   -2.8981 C.ar      1 <0>         0.1286
     20 S1          1.2071    5.5803    0.6276 S.o2      1 <0>         2.6104
     21 O2          0.9435    6.9271    0.9961 O.2       1 <0>        -0.9136
     22 O3          1.5709    4.6188    1.6087 O.2       1 <0>        -0.9015
     23 C17         2.3741    5.5292   -0.7602 C.3       1 <0>        -0.7248
     24 C18         3.7838    5.8392   -0.2528 C.3       1 <0>         0.4784
     25 F1          4.1548    4.8881    0.7037 F         1 <0>        -0.1625
     26 F2          4.6838    5.7998   -1.3232 F         1 <0>        -0.1633
     27 F3          3.8018    7.1132    0.3249 F         1 <0>        -0.1690
     28 H1         -5.7126    1.4141    0.9979 H         1 <0>         0.0628
     29 H2         -6.8130    0.1132    1.5669 H         1 <0>         0.0585
     30 H3         -5.8451   -0.1193    0.0717 H         1 <0>         0.0549
     31 H4         -4.7195    0.1714    2.9130 H         1 <0>         0.0831
     32 H5         -4.0884   -2.2183    2.6143 H         1 <0>         0.0591
     33 H6         -4.9002   -2.2324    1.0119 H         1 <0>         0.0590
     34 H7         -5.8681   -1.9998    2.5072 H         1 <0>         0.0668
     35 H8         -2.5664   -0.4843    1.7735 H         1 <0>         0.0661
     36 H9         -3.4025   -0.3447    0.1898 H         1 <0>         0.0662
     37 H10        -1.3245   -0.1028    0.1328 H         1 <0>         0.1340
     38 H11         0.7607    0.6811   -0.9108 H         1 <0>         0.1350
     39 H12         1.2812    3.0848   -0.9748 H         1 <0>         0.1169
     40 H13        -2.3836    3.9317    1.0596 H         1 <0>         0.1402
     41 H14        -2.2027    5.6363   -0.3671 H         1 <0>         0.1126
     42 H15        -1.0149    6.9685   -0.1654 H         1 <0>         0.1197
     43 H16         0.2765    7.7604   -2.0420 H         1 <0>         0.1393
     44 H17         0.5659    7.7662   -4.5110 H         1 <0>         0.1408
     45 H18        -0.5463    6.0294   -5.8573 H         1 <0>         0.1595
     46 H19        -2.1834    4.2958   -2.4603 H         1 <0>         0.1563
     47 H20         2.3599    4.5275   -1.2145 H         1 <0>         0.1788
     48 H21         2.0824    6.2770   -1.5123 H         1 <0>         0.1768
@<TRIPOS>BOND
     1    1    2 1
     2    1   28 1
     3    1   29 1
     4    1   30 1
     5    2    3 1
     6    2    4 1
     7    2   31 1
     8    3   32 1
     9    3   33 1
    10    3   34 1
    11    4    5 1
    12    4   35 1
    13    4   36 1
    14    5    6 1
    15    6   11 ar
    16    6    7 ar
    17    7    8 ar
    18    7   37 1
    19    8    9 ar
    20    8   38 1
    21    9   10 ar
    22    9   39 1
    23   10   11 ar
    24   10   12 1
    25   11   40 1
    26   12   13 1
    27   12   20 1
    28   13   14 1
    29   13   41 1
    30   13   42 1
    31   14   19 ar
    32   14   15 ar
    33   15   16 ar
    34   15   43 1
    35   16   17 ar
    36   16   44 1
    37   17   18 ar
    38   17   45 1
    39   18   19 ar
    40   19   46 1
    41   20   21 2
    42   20   22 2
    43   20   23 1
    44   23   24 1
    45   23   47 1
    46   23   48 1
    47   24   25 1
    48   24   26 1
    49   24   27 1
@<TRIPOS>MOLECULE
ZINC13719854
   21    21     0     0     0
SMALL
USER_CHARGES

@<TRIPOS>ATOM
      1 C1          0.3172    1.7951    0.1034 C.3       1 <0>        -0.1476
      2 H1         -0.1287    0.8010    0.0703 H         1 <0>         0.0892
      3 C2          0.3339    2.6054   -1.1943 C.3       1 <0>        -0.1537
      4 H2         -0.1010    2.1444   -2.0812 H         1 <0>         0.0829
      5 C3          1.6319    2.0051   -0.6505 C.3       1 <0>        -0.2167
      6 H3          2.0509    1.1491   -1.1796 H         1 <0>         0.0826
      7 C4          2.6369    2.9517   -0.0465 C.2       1 <0>         0.5079
      8 O1          3.8212    2.6623   -0.0425 O.co2     1 <0>        -0.7175
      9 O2          2.2656    4.0071    0.4382 O.co2     1 <0>        -0.6487
     10 C5          0.1577    4.0980   -1.0850 C.2       1 <0>         0.5339
     11 O3          0.9446    4.8469   -1.6387 O.co2     1 <0>        -0.6879
     12 O4         -0.7717    4.5568   -0.4429 O.co2     1 <0>        -0.6788
     13 C6          0.1237    2.5620    1.4131 C.3       1 <0>        -0.0124
     14 H4          0.2435    3.6298    1.2301 H         1 <0>         0.1745
     15 C7         -1.2589    2.2966    1.9510 C.2       1 <0>         0.4999
     16 O5         -1.4116    1.5346    2.8905 O.co2     1 <0>        -0.7232
     17 O6         -2.2246    2.8439    1.4467 O.co2     1 <0>        -0.6186
     18 N1          1.1239    2.1178    2.3930 N.4       1 <0>        -0.6049
     19 H5          2.0495    2.2954    2.0329 H         1 <0>         0.4183
     20 H6          0.9963    2.6235    3.2567 H         1 <0>         0.4132
     21 H7          1.0129    1.1293    2.5624 H         1 <0>         0.4075
@<TRIPOS>BOND
     1    1    2 1
     2    1    5 1
     3    1    3 1
     4    1   13 1
     5    3    4 1
     6    3    5 1
     7    3   10 1
     8    5    6 1
     9    5    7 1
    10    7    8 2
    11    7    9 1
    12   10   11 2
    13   10   12 1
    14   13   14 1
    15   13   15 1
    16   13   18 1
    17   15   16 2
    18   15   17 1
    19   18   19 1
    20   18   20 1
    21   18   21 1
@<TRIPOS>MOLECULE
ZINC38145309
   21    21     0     0     0
SMALL
USER_CHARGES

@<TRIPOS>ATOM
      1 C1         -1.1097    2.0192   -0.9979 C.3       1 <0>        -0.1893
      2 H1         -1.5271    1.6019   -1.9143 H         1 <0>         0.0930
      3 C2          0.4145    2.0775   -0.8783 C.3       1 <0>        -0.1523
      4 H2          0.8457    2.9276   -0.3496 H         1 <0>         0.0922
      5 C3         -0.3792    1.0618   -0.0543 C.3       1 <0>        -0.1502
      6 C4         -0.2904   -0.4082   -0.4691 C.3       1 <0>        -0.0130
      7 H3          0.1504   -0.4792   -1.4635 H         1 <0>         0.1312
      8 C5          0.5694   -1.1572    0.5162 C.2       1 <0>         0.5003
      9 O1          0.0520   -1.8805    1.3503 O.co2     1 <0>        -0.7074
     10 O2          1.7824   -1.0399    0.4792 O.co2     1 <0>        -0.6180
     11 N1         -1.6375   -0.9940   -0.4878 N.4       1 <0>        -0.6058
     12 C6          1.2238    1.5541   -2.0368 C.2       1 <0>         0.5156
     13 O3          0.7723    1.6047   -3.1682 O.co2     1 <0>        -0.7068
     14 O4          2.3302    1.0799   -1.8426 O.co2     1 <0>        -0.6734
     15 C7         -1.9004    3.1412   -0.3756 C.2       1 <0>         0.5202
     16 O5         -2.0343    4.1963   -0.9717 O.co2     1 <0>        -0.6934
     17 O6         -2.4061    2.9938    0.7239 O.co2     1 <0>        -0.7060
     18 H4         -0.4702    1.2436    1.0166 H         1 <0>         0.1092
     19 H5         -2.2132   -0.4925   -1.1475 H         1 <0>         0.4124
     20 H6         -1.5789   -1.9634   -0.7614 H         1 <0>         0.4151
     21 H7         -2.0456   -0.9283    0.4327 H         1 <0>         0.4266
@<TRIPOS>BOND
     1    1    2 1
     2    1    5 1
     3    1    3 1
     4    1   15 1
     5    3    4 1
     6    3    5 1
     7    3   12 1
     8    5    6 1
     9    5   18 1
    10    6    7 1
    11    6    8 1
    12    6   11 1
    13    8    9 2
    14    8   10 1
    15   11   19 1
    16   11   20 1
    17   11   21 1
    18   12   13 2
    19   12   14 1
    20   15   16 2
    21   15   17 1
@<TRIPOS>MOLECULE
ZINC01494188
   50    52     0     0     0
SMALL
USER_CHARGES
2,2,2-trifluoro-N-[4-(2-methoxyphenoxy)phenyl]-N-(3-pyridylmethyl)ethanesulfonamide
@<TRIPOS>ATOM
      1 C1         -4.2722    4.0955    0.3214 C.3       1 <0>         0.0243
      2 O1         -3.5140    3.5469    1.4013 O.3       1 <0>        -0.3050
      3 C2         -3.3992    2.1927    1.4497 C.ar      1 <0>         0.1212
      4 C3         -4.0030    1.4095    0.4791 C.ar      1 <0>        -0.2000
      5 C4         -3.8849    0.0331    0.5295 C.ar      1 <0>        -0.0722
      6 C5         -3.1651   -0.5655    1.5470 C.ar      1 <0>        -0.1433
      7 C6         -2.5602    0.2097    2.5185 C.ar      1 <0>        -0.0819
      8 C7         -2.6701    1.5906    2.4710 C.ar      1 <0>         0.0432
      9 O2         -2.0711    2.3550    3.4226 O.3       1 <0>        -0.2425
     10 C8         -2.8368    2.8135    4.4484 C.ar      1 <0>         0.1404
     11 C9         -4.1585    2.4077    4.5622 C.ar      1 <0>        -0.1798
     12 C10        -4.9354    2.8692    5.6065 C.ar      1 <0>        -0.0554
     13 C11        -4.3962    3.7477    6.5372 C.ar      1 <0>         0.0811
     14 C12        -3.0746    4.1576    6.4196 C.ar      1 <0>        -0.0784
     15 C13        -2.2976    3.6915    5.3775 C.ar      1 <0>        -0.1374
     16 N1         -5.1841    4.2192    7.5930 N.pl3     1 <0>        -0.9300
     17 C14        -5.4359    5.6554    7.7344 C.3       1 <0>         0.1640
     18 C15        -6.6100    6.0466    6.8745 C.ar      1 <0>        -0.1719
     19 C16        -6.4151    6.4542    5.5634 C.ar      1 <0>        -0.0495
     20 C17        -7.5249    6.8003    4.8082 C.ar      1 <0>        -0.1784
     21 C18        -8.7790    6.7376    5.3860 C.ar      1 <0>         0.1058
     22 N2         -8.9263    6.3500    6.6377 N.ar      1 <0>        -0.4849
     23 C19        -7.8938    6.0091    7.3842 C.ar      1 <0>         0.1195
     24 S1         -5.8317    3.1537    8.6828 S.o2      1 <0>         2.6061
     25 O3         -6.9166    3.8551    9.2747 O.2       1 <0>        -0.9144
     26 O4         -6.0579    1.9652    7.9375 O.2       1 <0>        -0.9121
     27 C20        -4.5203    2.8837    9.9066 C.3       1 <0>        -0.7171
     28 C21        -5.0724    2.0615   11.0728 C.3       1 <0>         0.4765
     29 F1         -5.5287    0.8271   10.5983 F         1 <0>        -0.1694
     30 F2         -4.0609    1.8532   12.0167 F         1 <0>        -0.1647
     31 F3         -6.1323    2.7523   11.6699 F         1 <0>        -0.1637
     32 H1         -3.8172    3.8061   -0.6258 H         1 <0>         0.0586
     33 H2         -4.2845    5.1825    0.4015 H         1 <0>         0.1034
     34 H3         -5.2932    3.7164    0.3648 H         1 <0>         0.0576
     35 H4         -4.5656    1.8745   -0.3169 H         1 <0>         0.1368
     36 H5         -4.3558   -0.5761   -0.2279 H         1 <0>         0.1331
     37 H6         -3.0749   -1.6411    1.5825 H         1 <0>         0.1354
     38 H7         -1.9985   -0.2603    3.3122 H         1 <0>         0.1408
     39 H8         -4.5789    1.7277    3.8361 H         1 <0>         0.1317
     40 H9         -5.9630    2.5496    5.6976 H         1 <0>         0.1377
     41 H10        -2.6545    4.8405    7.1432 H         1 <0>         0.1384
     42 H11        -1.2697    4.0102    5.2859 H         1 <0>         0.1400
     43 H12        -5.6568    5.8847    8.7769 H         1 <0>         0.1045
     44 H13        -4.5533    6.2119    7.4192 H         1 <0>         0.1007
     45 H14        -5.4227    6.4972    5.1395 H         1 <0>         0.1338
     46 H15        -7.4107    7.1188    3.7825 H         1 <0>         0.1355
     47 H16        -9.6483    7.0095    4.8057 H         1 <0>         0.1565
     48 H17        -8.0537    5.6968    8.4056 H         1 <0>         0.1702
     49 H18        -3.6944    2.3455    9.4414 H         1 <0>         0.1775
     50 H19        -4.1647    3.8454   10.2764 H         1 <0>         0.1776
@<TRIPOS>BOND
     1    1    2 1
     2    1   32 1
     3    1   33 1
     4    1   34 1
     5    2    3 1
     6    3    8 ar
     7    3    4 ar
     8    4    5 ar
     9    4   35 1
    10    5    6 ar
    11    5   36 1
    12    6    7 ar
    13    6   37 1
    14    7    8 ar
    15    7   38 1
    16    8    9 1
    17    9   10 1
    18   10   15 ar
    19   10   11 ar
    20   11   12 ar
    21   11   39 1
    22   12   13 ar
    23   12   40 1
    24   13   14 ar
    25   13   16 1
    26   14   15 ar
    27   14   41 1
    28   15   42 1
    29   16   17 1
    30   16   24 1
    31   17   18 1
    32   17   43 1
    33   17   44 1
    34   18   23 ar
    35   18   19 ar
    36   19   20 ar
    37   19   45 1
    38   20   21 ar
    39   20   46 1
    40   21   22 ar
    41   21   47 1
    42   22   23 ar
    43   23   48 1
    44   24   25 2
    45   24   26 2
    46   24   27 1
    47   27   28 1
    48   27   49 1
    49   27   50 1
    50   28   29 1
    51   28   30 1
    52   28   31 1
@<TRIPOS>MOLECULE
ZINC00177585
   35    37     0     0     0
SMALL
USER_CHARGES
5-(phenoxymethyl)-3-phenyl-oxazolidin-2-one
@<TRIPOS>ATOM
      1 C1          0.1646    0.9673   -5.1500 C.ar      1 <0>        -0.1406
      2 C2         -0.9484    1.7150   -4.8117 C.ar      1 <0>        -0.0878
      3 C3         -1.2628    1.9259   -3.4835 C.ar      1 <0>        -0.1528
      4 C4         -0.4599    1.3862   -2.4873 C.ar      1 <0>         0.1772
      5 C5          0.6600    0.6403   -2.8302 C.ar      1 <0>        -0.1558
      6 C6          0.9664    0.4289   -4.1603 C.ar      1 <0>        -0.0909
      7 N1         -0.7755    1.5985   -1.1404 N.am      1 <0>        -0.5702
      8 C7         -0.0127    1.0858    0.0080 C.3       1 <0>         0.0686
      9 C8         -0.7886    1.6099    1.2318 C.3       1 <0>         0.0748
     10 H1         -1.1582    0.7799    1.8340 H         1 <0>         0.1364
     11 O1         -1.9006    2.3550    0.6477 O.3       1 <0>        -0.3047
     12 C9         -1.8219    2.3020   -0.6867 C.2       1 <0>         0.6424
     13 O2         -2.6256    2.8427   -1.4204 O.2       1 <0>        -0.4949
     14 C10         0.0959    2.5324    2.0729 C.3       1 <0>         0.0524
     15 O3         -0.6042    2.9118    3.2595 O.3       1 <0>        -0.3054
     16 C11         0.0458    3.7364    4.1223 C.ar      1 <0>         0.1263
     17 C12         1.3331    4.1668    3.8357 C.ar      1 <0>        -0.2101
     18 C13         1.9893    5.0099    4.7114 C.ar      1 <0>        -0.0798
     19 C14         1.3689    5.4149    5.8788 C.ar      1 <0>        -0.1556
     20 C15         0.0881    4.9828    6.1695 C.ar      1 <0>        -0.0791
     21 C16        -0.5748    4.1445    5.2941 C.ar      1 <0>        -0.1482
     22 H2          0.4083    0.8038   -6.1893 H         1 <0>         0.1262
     23 H3         -1.5722    2.1347   -5.5870 H         1 <0>         0.1301
     24 H4         -2.1324    2.5096   -3.2199 H         1 <0>         0.1568
     25 H5          1.2887    0.2227   -2.0577 H         1 <0>         0.1257
     26 H6          1.8354   -0.1540   -4.4277 H         1 <0>         0.1295
     27 H7          0.0021   -0.0041    0.0020 H         1 <0>         0.1125
     28 H8          1.0029    1.4815    0.0004 H         1 <0>         0.1052
     29 H9          1.0128    2.0089    2.3437 H         1 <0>         0.0932
     30 H10         0.3432    3.4237    1.4962 H         1 <0>         0.0770
     31 H11         1.8200    3.8468    2.9263 H         1 <0>         0.1259
     32 H12         2.9896    5.3494    4.4862 H         1 <0>         0.1262
     33 H13         1.8854    6.0702    6.5645 H         1 <0>         0.1256
     34 H14        -0.3947    5.3011    7.0817 H         1 <0>         0.1315
     35 H15        -1.5753    3.8076    5.5215 H         1 <0>         0.1326
@<TRIPOS>BOND
     1    1    6 ar
     2    1    2 ar
     3    1   22 1
     4    2    3 ar
     5    2   23 1
     6    3    4 ar
     7    3   24 1
     8    4    5 ar
     9    4    7 1
    10    5    6 ar
    11    5   25 1
    12    6   26 1
    13    7   12 am
    14    7    8 1
    15    8    9 1
    16    8   27 1
    17    8   28 1
    18    9   10 1
    19    9   11 1
    20    9   14 1
    21   11   12 1
    22   12   13 2
    23   14   15 1
    24   14   29 1
    25   14   30 1
    26   15   16 1
    27   16   21 ar
    28   16   17 ar
    29   17   18 ar
    30   17   31 1
    31   18   19 ar
    32   18   32 1
    33   19   20 ar
    34   19   33 1
    35   20   21 ar
    36   20   34 1
    37   21   35 1
@<TRIPOS>MOLECULE
ZINC04128450
   35    37     0     0     0
SMALL
USER_CHARGES
5-(phenoxymethyl)-3-phenyl-oxazolidin-2-one
@<TRIPOS>ATOM
      1 C1          6.6833    9.6724   -2.3537 C.ar      1 <0>        -0.1405
      2 C2          5.5676    9.5220   -3.1566 C.ar      1 <0>        -0.0878
      3 C3          4.5406    8.6857   -2.7647 C.ar      1 <0>        -0.1529
      4 C4          4.6291    7.9960   -1.5627 C.ar      1 <0>         0.1770
      5 C5          5.7481    8.1540   -0.7557 C.ar      1 <0>        -0.1557
      6 C6          6.7744    8.9870   -1.1562 C.ar      1 <0>        -0.0909
      7 N1          3.5902    7.1478   -1.1628 N.am      1 <0>        -0.5697
      8 C7          3.5577    6.3625    0.0805 C.3       1 <0>         0.0692
      9 C8          2.2077    5.6228    0.0121 C.3       1 <0>         0.0734
     10 H1          1.5716    5.9103    0.8493 H         1 <0>         0.1356
     11 O1          1.6238    6.0637   -1.2479 O.3       1 <0>        -0.3032
     12 C9          2.4629    6.9187   -1.8501 C.2       1 <0>         0.6417
     13 O2          2.2221    7.4391   -2.9214 O.2       1 <0>        -0.4943
     14 C10         2.4257    4.1084    0.0014 C.3       1 <0>         0.0521
     15 O3          1.1601    3.4449    0.0099 O.3       1 <0>        -0.3050
     16 C11         1.1759    2.0860    0.0020 C.ar      1 <0>         0.1263
     17 C12        -0.0167    1.3772    0.0096 C.ar      1 <0>        -0.1482
     18 C13         0.0021   -0.0041    0.0020 C.ar      1 <0>        -0.0791
     19 C14         1.2080   -0.6802   -0.0131 C.ar      1 <0>        -0.1556
     20 C15         2.3980    0.0239   -0.0207 C.ar      1 <0>        -0.0799
     21 C16         2.3846    1.4052   -0.0127 C.ar      1 <0>        -0.2102
     22 H2          7.4853   10.3264   -2.6626 H         1 <0>         0.1262
     23 H3          5.4993   10.0587   -4.0913 H         1 <0>         0.1302
     24 H4          3.6698    8.5681   -3.3926 H         1 <0>         0.1567
     25 H5          5.8177    7.6226    0.1820 H         1 <0>         0.1258
     26 H6          7.6471    9.1066   -0.5312 H         1 <0>         0.1296
     27 H7          3.5906    7.0197    0.9495 H         1 <0>         0.1127
     28 H8          4.3832    5.6511    0.1057 H         1 <0>         0.1054
     29 H9          2.9947    3.8170    0.8842 H         1 <0>         0.0929
     30 H10         2.9774    3.8272   -0.8956 H         1 <0>         0.0764
     31 H11        -0.9589    1.9049    0.0169 H         1 <0>         0.1326
     32 H12        -0.9261   -0.5563    0.0076 H         1 <0>         0.1315
     33 H13         1.2206   -1.7601   -0.0187 H         1 <0>         0.1256
     34 H14         3.3387   -0.5065   -0.0325 H         1 <0>         0.1261
     35 H15         3.3144    1.9547   -0.0186 H         1 <0>         0.1259
@<TRIPOS>BOND
     1    1    6 ar
     2    1    2 ar
     3    1   22 1
     4    2    3 ar
     5    2   23 1
     6    3    4 ar
     7    3   24 1
     8    4    5 ar
     9    4    7 1
    10    5    6 ar
    11    5   25 1
    12    6   26 1
    13    7   12 am
    14    7    8 1
    15    8    9 1
    16    8   27 1
    17    8   28 1
    18    9   10 1
    19    9   11 1
    20    9   14 1
    21   11   12 1
    22   12   13 2
    23   14   15 1
    24   14   29 1
    25   14   30 1
    26   15   16 1
    27   16   21 ar
    28   16   17 ar
    29   17   18 ar
    30   17   31 1
    31   18   19 ar
    32   18   32 1
    33   19   20 ar
    34   19   33 1
    35   20   21 ar
    36   20   34 1
    37   21   35 1
@<TRIPOS>MOLECULE
ZINC06744956
   54    57     0     0     0
SMALL
USER_CHARGES
6,7-dichloro-2-propyl-5-[[3-(4-pyridylsulfanylmethyl)phenyl]methoxy]indan-1-one
@<TRIPOS>ATOM
      1 C1         -0.9891    1.5380   -3.6890 C.3       1 <0>        -0.1519
      2 C2         -0.2100    1.0127   -2.4816 C.3       1 <0>        -0.1365
      3 C3         -0.7919    1.6112   -1.1994 C.3       1 <0>        -0.1053
      4 C4         -0.0127    1.0858    0.0080 C.3       1 <0>        -0.1270
      5 H1         -0.0067    0.0860   -0.0086 H         1 <0>         0.1061
      6 C5         -0.6370    1.6020    1.3117 C.3       1 <0>        -0.0837
      7 C6          0.4323    2.4179    1.9982 C.ar      1 <0>         0.0146
      8 C7          0.4046    3.1035    3.1943 C.ar      1 <0>        -0.2039
      9 C8          1.5272    3.7953    3.6329 C.ar      1 <0>         0.1944
     10 C9          2.6873    3.7999    2.8655 C.ar      1 <0>        -0.0886
     11 C10         2.7262    3.1192    1.6695 C.ar      1 <0>         0.0688
     12 C11         1.5926    2.4165    1.2204 C.ar      1 <0>        -0.2169
     13 C12         1.3959    1.6279   -0.0025 C.2       1 <0>         0.4125
     14 O1          2.2224    1.4442   -0.8712 O.2       1 <0>        -0.4158
     15 Cl1         4.1758    3.1272    0.7143 Cl        1 <0>        -0.0142
     16 Cl2         4.0877    4.6656    3.4162 Cl        1 <0>        -0.0239
     17 O2          1.4917    4.4666    4.8115 O.3       1 <0>        -0.2850
     18 C13         0.2683    4.4196    5.5484 C.3       1 <0>         0.0974
     19 C14         0.4163    5.2159    6.8192 C.ar      1 <0>        -0.0992
     20 C15         0.8602    4.5986    7.9740 C.ar      1 <0>        -0.0811
     21 C16         0.9997    5.3298    9.1386 C.ar      1 <0>        -0.1192
     22 C17         0.6876    6.6766    9.1507 C.ar      1 <0>        -0.0834
     23 C18         0.2389    7.2925    7.9976 C.ar      1 <0>        -0.0828
     24 C19         0.1031    6.5620    6.8317 C.ar      1 <0>        -0.0707
     25 C20        -0.1017    8.7605    8.0110 C.3       1 <0>        -0.0700
     26 S1         -1.8513    8.9713    8.4413 S.3       1 <0>        -0.0821
     27 C21        -2.0893   10.7170    8.4152 C.ar      1 <0>        -0.0467
     28 C22        -1.0344   11.5790    8.1130 C.ar      1 <0>        -0.1905
     29 C23        -1.2637   12.9384    8.0981 C.ar      1 <0>         0.1209
     30 N1         -2.4586   13.4264    8.3750 N.ar      1 <0>        -0.4905
     31 C24        -3.4806   12.6447    8.6705 C.ar      1 <0>         0.1191
     32 C25        -3.3363   11.2740    8.7018 C.ar      1 <0>        -0.1559
     33 H2         -0.5746    1.1116   -4.6025 H         1 <0>         0.0560
     34 H3         -2.0370    1.2522   -3.5976 H         1 <0>         0.0534
     35 H4         -0.9109    2.6246   -3.7271 H         1 <0>         0.0532
     36 H5          0.8379    1.2985   -2.5730 H         1 <0>         0.0778
     37 H6         -0.2882   -0.0739   -2.4435 H         1 <0>         0.0638
     38 H7         -1.8397    1.3253   -1.1080 H         1 <0>         0.0794
     39 H8         -0.7136    2.6977   -1.2375 H         1 <0>         0.0683
     40 H9         -1.5017    2.2278    1.0909 H         1 <0>         0.1042
     41 H10        -0.9320    0.7639    1.9432 H         1 <0>         0.1026
     42 H11        -0.4938    3.1024    3.7936 H         1 <0>         0.1505
     43 H12        -0.5353    4.8430    4.9458 H         1 <0>         0.0809
     44 H13         0.0315    3.3843    5.7938 H         1 <0>         0.0817
     45 H14         1.1007    3.5458    7.9653 H         1 <0>         0.1289
     46 H15         1.3499    4.8485   10.0397 H         1 <0>         0.1320
     47 H16         0.7941    7.2474   10.0614 H         1 <0>         0.1295
     48 H17        -0.2475    7.0432    5.9307 H         1 <0>         0.1285
     49 H18         0.5179    9.2705    8.7486 H         1 <0>         0.1016
     50 H19         0.0836    9.1855    7.0246 H         1 <0>         0.1009
     51 H20        -0.0532   11.1866    7.8899 H         1 <0>         0.1346
     52 H21        -0.4542   13.6129    7.8612 H         1 <0>         0.1597
     53 H22        -4.4419   13.0846    8.8910 H         1 <0>         0.1626
     54 H23        -4.1763   10.6403    8.9451 H         1 <0>         0.1408
@<TRIPOS>BOND
     1    1    2 1
     2    1   33 1
     3    1   34 1
     4    1   35 1
     5    2    3 1
     6    2   36 1
     7    2   37 1
     8    3    4 1
     9    3   38 1
    10    3   39 1
    11    4    5 1
    12    4   13 1
    13    4    6 1
    14    6    7 1
    15    6   40 1
    16    6   41 1
    17    7   12 ar
    18    7    8 ar
    19    8    9 ar
    20    8   42 1
    21    9   10 ar
    22    9   17 1
    23   10   11 ar
    24   10   16 1
    25   11   12 ar
    26   11   15 1
    27   12   13 1
    28   13   14 2
    29   17   18 1
    30   18   19 1
    31   18   43 1
    32   18   44 1
    33   19   24 ar
    34   19   20 ar
    35   20   21 ar
    36   20   45 1
    37   21   22 ar
    38   21   46 1
    39   22   23 ar
    40   22   47 1
    41   23   24 ar
    42   23   25 1
    43   24   48 1
    44   25   26 1
    45   25   49 1
    46   25   50 1
    47   26   27 1
    48   27   32 ar
    49   27   28 ar
    50   28   29 ar
    51   28   51 1
    52   29   30 ar
    53   29   52 1
    54   30   31 ar
    55   31   32 ar
    56   31   53 1
    57   32   54 1
@<TRIPOS>MOLECULE
ZINC13979107
   54    57     0     0     0
SMALL
USER_CHARGES
(2S)-6,7-dichloro-2-propyl-5-[[3-(4-pyridylsulfanylmethyl)phenyl]methoxy]indan-1-one
@<TRIPOS>ATOM
      1 C1        -14.3488   -1.9548    9.5212 C.3       1 <0>        -0.1519
      2 C2        -13.1121   -1.0573    9.4440 C.3       1 <0>        -0.1362
      3 C3        -12.2722   -1.4497    8.2268 C.3       1 <0>        -0.1053
      4 C4        -11.0355   -0.5522    8.1497 C.3       1 <0>        -0.1271
      5 H1        -10.5516   -0.5757    9.0245 H         1 <0>         0.1061
      6 C5        -10.1167   -1.0098    7.0086 C.3       1 <0>        -0.0837
      7 C6        -10.0240    0.1524    6.0488 C.ar      1 <0>         0.0146
      8 C7         -9.3387    0.2773    4.8588 C.ar      1 <0>        -0.2039
      9 C8         -9.3987    1.4623    4.1354 C.ar      1 <0>         0.1943
     10 C9        -10.1609    2.5274    4.6039 C.ar      1 <0>        -0.0886
     11 C10       -10.8538    2.4118    5.7878 C.ar      1 <0>         0.0688
     12 C11       -10.7925    1.2161    6.5275 C.ar      1 <0>        -0.2169
     13 C12       -11.4356    0.8602    7.7987 C.2       1 <0>         0.4126
     14 O1        -12.1625    1.5773    8.4535 O.2       1 <0>        -0.4159
     15 Cl1       -11.8050    3.7427    6.3689 Cl        1 <0>        -0.0142
     16 Cl2       -10.2390    4.0039    3.6942 Cl        1 <0>        -0.0238
     17 O2         -8.7175    1.5785    2.9677 O.3       1 <0>        -0.2851
     18 C13        -7.9549    0.4459    2.5460 C.3       1 <0>         0.0974
     19 C14        -7.2726    0.7582    1.2391 C.ar      1 <0>        -0.0993
     20 C15        -7.9103    0.4838    0.0435 C.ar      1 <0>        -0.0810
     21 C16        -7.2844    0.7702   -1.1551 C.ar      1 <0>        -0.1193
     22 C17        -6.0232    1.3367   -1.1584 C.ar      1 <0>        -0.0834
     23 C18        -5.3836    1.6061    0.0369 C.ar      1 <0>        -0.0828
     24 C19        -6.0094    1.3192    1.2358 C.ar      1 <0>        -0.0707
     25 C20        -4.0065    2.2182    0.0333 C.3       1 <0>        -0.0701
     26 S1         -2.7593    0.9011    0.0205 S.3       1 <0>        -0.0819
     27 C21        -1.2248    1.7670    0.0174 C.ar      1 <0>        -0.0468
     28 C22        -0.0126    1.0758    0.0080 C.ar      1 <0>        -0.1559
     29 C23         1.1660    1.7910    0.0005 C.ar      1 <0>         0.1191
     30 N1          1.1569    3.1111    0.0073 N.ar      1 <0>        -0.4905
     31 C24         0.0316    3.8013    0.0212 C.ar      1 <0>         0.1208
     32 C25        -1.1898    3.1620    0.0290 C.ar      1 <0>        -0.1904
     33 H2        -14.9429   -1.8334    8.6154 H         1 <0>         0.0533
     34 H3        -14.0374   -2.9952    9.6147 H         1 <0>         0.0534
     35 H4        -14.9471   -1.6752   10.3883 H         1 <0>         0.0560
     36 H5        -12.5180   -1.1787   10.3498 H         1 <0>         0.0638
     37 H6        -13.4234   -0.0169    9.3505 H         1 <0>         0.0774
     38 H7        -12.8663   -1.3283    7.3211 H         1 <0>         0.0682
     39 H8        -11.9609   -2.4901    8.3204 H         1 <0>         0.0794
     40 H9        -10.5463   -1.8768    6.5066 H         1 <0>         0.1042
     41 H10        -9.1284   -1.2536    7.3983 H         1 <0>         0.1026
     42 H11        -8.7489   -0.5485    4.4892 H         1 <0>         0.1505
     43 H12        -8.6174   -0.4096    2.4147 H         1 <0>         0.0818
     44 H13        -7.2044    0.2118    3.3009 H         1 <0>         0.0810
     45 H14        -8.8973    0.0454    0.0460 H         1 <0>         0.1289
     46 H15        -7.7824    0.5556   -2.0891 H         1 <0>         0.1320
     47 H16        -5.5362    1.5649   -2.0949 H         1 <0>         0.1295
     48 H17        -5.5114    1.5338    2.1698 H         1 <0>         0.1285
     49 H18        -3.8789    2.8308    0.9257 H         1 <0>         0.1008
     50 H19        -3.8876    2.8399   -0.8542 H         1 <0>         0.1016
     51 H20         0.0021   -0.0041    0.0020 H         1 <0>         0.1408
     52 H21         2.1089    1.2645   -0.0113 H         1 <0>         0.1626
     53 H22         0.0684    4.8807    0.0263 H         1 <0>         0.1598
     54 H23        -2.1066    3.7328    0.0401 H         1 <0>         0.1346
@<TRIPOS>BOND
     1    1    2 1
     2    1   33 1
     3    1   34 1
     4    1   35 1
     5    2    3 1
     6    2   36 1
     7    2   37 1
     8    3    4 1
     9    3   38 1
    10    3   39 1
    11    4    5 1
    12    4   13 1
    13    4    6 1
    14    6    7 1
    15    6   40 1
    16    6   41 1
    17    7   12 ar
    18    7    8 ar
    19    8    9 ar
    20    8   42 1
    21    9   10 ar
    22    9   17 1
    23   10   11 ar
    24   10   16 1
    25   11   12 ar
    26   11   15 1
    27   12   13 1
    28   13   14 2
    29   17   18 1
    30   18   19 1
    31   18   43 1
    32   18   44 1
    33   19   24 ar
    34   19   20 ar
    35   20   21 ar
    36   20   45 1
    37   21   22 ar
    38   21   46 1
    39   22   23 ar
    40   22   47 1
    41   23   24 ar
    42   23   25 1
    43   24   48 1
    44   25   26 1
    45   25   49 1
    46   25   50 1
    47   26   27 1
    48   27   32 ar
    49   27   28 ar
    50   28   29 ar
    51   28   51 1
    52   29   30 ar
    53   29   52 1
    54   30   31 ar
    55   31   32 ar
    56   31   53 1
    57   32   54 1
@<TRIPOS>MOLECULE
ZINC13644423
   26    27     0     0     0
SMALL
USER_CHARGES
(1S,2S,4R,5R,6S)-2-amino-4-methyl-bicyclo[3.1.0]hexane-2,6-dicarboxylic acid
@<TRIPOS>ATOM
      1 C1          1.6400    1.6255   -2.3681 C.3       1 <0>        -0.1466
      2 C2          1.9883    0.5185   -1.3711 C.3       1 <0>        -0.0830
      3 H1          3.0692    0.4348   -1.2576 H         1 <0>         0.0991
      4 C3          1.3851   -0.8327   -1.8287 C.3       1 <0>        -0.1094
      5 C4         -0.0867   -0.7268   -1.3580 C.3       1 <0>         0.0392
      6 C5          0.0021   -0.0041    0.0020 C.3       1 <0>        -0.1543
      7 H2         -0.3420   -0.5470    0.8823 H         1 <0>         0.1524
      8 C6          1.3214    0.7877   -0.0063 C.3       1 <0>        -0.1364
      9 H3          1.9637    0.8282    0.8734 H         1 <0>         0.1216
     10 C7         -0.0187    1.5258    0.0104 C.3       1 <0>        -0.1532
     11 H4         -0.3267    2.0293   -0.9059 H         1 <0>         0.0880
     12 C8         -0.4202    2.2083    1.2926 C.2       1 <0>         0.4853
     13 O1         -0.7100    1.5491    2.2628 O.co2     1 <0>        -0.6182
     14 C9         -0.6861   -2.0990   -1.1879 C.2       1 <0>         0.4705
     15 O2         -0.6051   -2.6660   -0.1240 O.co2     1 <0>        -0.5727
     16 H5          0.5566    1.7085   -2.4550 H         1 <0>         0.0356
     17 H6          2.0500    2.5726   -2.0174 H         1 <0>         0.0841
     18 H7          2.0652    1.3840   -3.3423 H         1 <0>         0.0698
     19 H8          1.8884   -1.6662   -1.3386 H         1 <0>         0.1077
     20 H9          1.4376   -0.9351   -2.9126 H         1 <0>         0.0849
     21 H10        -0.9412   -0.4018   -3.2026 H         1 <0>         0.4287
     22 H11        -1.7957    0.2628   -1.9400 H         1 <0>         0.4291
     23 O3         -0.4558    3.5486    1.3569 O.co2     1 <0>        -0.7577
     24 O4         -1.3099   -2.6913   -2.2182 O.co2     1 <0>        -0.7470
     25 N1         -0.8638    0.0850   -2.3111 N.4       1 <0>        -0.6288
     26 H12        -0.3856    0.9814   -2.4593 H         1 <0>         0.4112
@<TRIPOS>BOND
     1    1    2 1
     2    1   16 1
     3    1   17 1
     4    1   18 1
     5    2    3 1
     6    2    8 1
     7    2    4 1
     8    4    5 1
     9    4   19 1
    10    4   20 1
    11    5    6 1
    12    5   14 1
    13    5   25 1
    14    6    7 1
    15    6   10 1
    16    6    8 1
    17    8    9 1
    18    8   10 1
    19   10   11 1
    20   10   12 1
    21   12   13 2
    22   12   23 1
    23   14   15 2
    24   14   24 1
    25   21   25 1
    26   22   25 1
    27   25   26 1
@<TRIPOS>MOLECULE
ZINC03952369
   21    22     0     0     0
SMALL
USER_CHARGES

@<TRIPOS>ATOM
      1 C1         -0.0175    1.4395    0.0100 C.3       1 <0>         0.0569
      2 C2          1.4845    1.8218   -0.0023 C.3       1 <0>        -0.0309
      3 C3          2.1057    0.7278    0.8987 C.3       1 <0>        -0.1665
      4 H1          2.5986    1.0456    1.8176 H         1 <0>         0.1501
      5 C4          2.4853   -0.6071    0.2569 C.3       1 <0>        -0.1714
      6 H2          2.5720   -0.6357   -0.8293 H         1 <0>         0.0913
      7 C5          1.0707   -0.4136    0.8730 C.3       1 <0>         0.0195
      8 H3          0.8073   -0.9529    1.7829 H         1 <0>         0.1451
      9 O1          0.0021   -0.0041    0.0020 O.3       1 <0>        -0.3536
     10 C6          3.4472   -1.4908    1.0085 C.2       1 <0>         0.5190
     11 O2          3.3834   -2.7024    0.8879 O.co2     1 <0>        -0.6779
     12 O3          4.2892   -0.9941    1.7371 O.co2     1 <0>        -0.6728
     13 C7          1.6951    3.1905    0.5922 C.2       1 <0>         0.5139
     14 O4          1.3389    3.4199    1.7354 O.co2     1 <0>        -0.6287
     15 O5          2.2216    4.0684   -0.0701 O.co2     1 <0>        -0.6757
     16 N1          2.0314    1.7512   -1.3639 N.4       1 <0>        -0.6034
     17 H4         -0.5009    1.8118    0.9132 H         1 <0>         0.1073
     18 H5         -0.5180    1.8215   -0.8798 H         1 <0>         0.1024
     19 H6          1.5449    2.4074   -1.9562 H         1 <0>         0.4251
     20 H7          3.0138    1.9804   -1.3441 H         1 <0>         0.4352
     21 H8          1.9111    0.8174   -1.7267 H         1 <0>         0.4151
@<TRIPOS>BOND
     1    1    9 1
     2    1    2 1
     3    1   17 1
     4    1   18 1
     5    2    3 1
     6    2   13 1
     7    2   16 1
     8    3    4 1
     9    3    7 1
    10    3    5 1
    11    5    6 1
    12    5    7 1
    13    5   10 1
    14    7    8 1
    15    7    9 1
    16   10   11 2
    17   10   12 1
    18   13   14 2
    19   13   15 1
    20   16   19 1
    21   16   20 1
    22   16   21 1
@<TRIPOS>MOLECULE
ZINC02568218
   19    19     0     0     0
SMALL
USER_CHARGES

@<TRIPOS>ATOM
      1 C1         -0.0187    1.5258    0.0104 C.3       1 <0>        -0.1511
      2 C2          1.3165    0.7789   -0.0063 C.3       1 <0>        -0.1797
      3 H1          1.9064    0.7818    0.9103 H         1 <0>         0.1189
      4 C3          0.0021   -0.0041    0.0020 C.3       1 <0>        -0.1676
      5 H2         -0.2904   -0.5063   -0.9201 H         1 <0>         0.1108
      6 C4         -0.3780   -0.7121    1.2769 C.2       1 <0>         0.5163
      7 O1         -1.4157   -1.3497    1.3340 O.co2     1 <0>        -0.6874
      8 O2          0.3522   -0.6474    2.2511 O.co2     1 <0>        -0.7014
      9 C5          2.1201    0.7974   -1.3082 C.3       1 <0>        -0.0198
     10 H3          2.3141   -0.2258   -1.6300 H         1 <0>         0.1277
     11 C6          1.3346    1.5185   -2.3731 C.2       1 <0>         0.4973
     12 O3          1.7040    2.6111   -2.7685 O.co2     1 <0>        -0.6872
     13 O4          0.3296    1.0093   -2.8393 O.co2     1 <0>        -0.6316
     14 N1          3.3958    1.4912   -1.0865 N.4       1 <0>        -0.6073
     15 H4         -0.3072    2.0201    0.9381 H         1 <0>         0.0879
     16 H5         -0.3248    2.0300   -0.9061 H         1 <0>         0.1060
     17 H6          3.2162    2.4384   -0.7886 H         1 <0>         0.4297
     18 H7          3.9217    1.0084   -0.3735 H         1 <0>         0.4144
     19 H8          3.9257    1.5034   -1.9450 H         1 <0>         0.4241
@<TRIPOS>BOND
     1    1    4 1
     2    1    2 1
     3    1   15 1
     4    1   16 1
     5    2    3 1
     6    2    4 1
     7    2    9 1
     8    4    5 1
     9    4    6 1
    10    6    7 2
    11    6    8 1
    12    9   10 1
    13    9   11 1
    14    9   14 1
    15   11   12 2
    16   11   13 1
    17   14   17 1
    18   14   18 1
    19   14   19 1
@<TRIPOS>MOLECULE
ZINC04391801
   23    24     0     0     0
SMALL
USER_CHARGES
3-aminobicyclo[2.1.1]hexane-3,5-dicarboxylic acid
@<TRIPOS>ATOM
      1 C1         -0.1932    1.8486    1.3557 C.3       1 <0>        -0.1075
      2 C2         -0.0127    1.0858    0.0080 C.3       1 <0>        -0.1190
      3 H1          0.0021   -0.0041    0.0020 H         1 <0>         0.1102
      4 C3         -0.8680    1.8164   -1.0830 C.3       1 <0>        -0.1018
      5 C4         -0.5567    3.3008   -0.6708 C.3       1 <0>         0.0043
      6 C5          0.4072    3.0300    0.5346 C.3       1 <0>        -0.1028
      7 H2          0.8428    3.8891    1.0448 H         1 <0>         0.1136
      8 C6          1.3119    1.8907   -0.0003 C.3       1 <0>        -0.1477
      9 H3          1.7207    2.0692   -0.9949 H         1 <0>         0.0572
     10 C7          2.3393    1.4013    0.9875 C.2       1 <0>         0.4810
     11 O1          2.4893    1.9777    2.0388 O.co2     1 <0>        -0.6253
     12 C8         -1.7980    4.0331   -0.2304 C.2       1 <0>         0.4745
     13 O2         -2.1775    3.9453    0.9133 O.co2     1 <0>        -0.5698
     14 H4         -1.2312    1.9915    1.6558 H         1 <0>         0.0810
     15 H5          0.4460    1.4918    2.1633 H         1 <0>         0.1155
     16 H6         -0.5164    1.5826   -2.0879 H         1 <0>         0.0842
     17 H7         -1.9293    1.5935   -0.9730 H         1 <0>         0.0957
     18 H8         -0.4992    4.1875   -2.5280 H         1 <0>         0.4340
     19 H9          0.5323    4.8784   -1.4215 H         1 <0>         0.4272
     20 O3          3.0880    0.3250    0.6995 O.co2     1 <0>        -0.7600
     21 O4         -2.4821    4.7830   -1.1088 O.co2     1 <0>        -0.7509
     22 N1          0.1452    3.9998   -1.7617 N.4       1 <0>        -0.6124
     23 H10         0.9103    3.4072   -2.1050 H         1 <0>         0.4190
@<TRIPOS>BOND
     1    1    6 1
     2    1    2 1
     3    1   14 1
     4    1   15 1
     5    2    3 1
     6    2    8 1
     7    2    4 1
     8    4    5 1
     9    4   16 1
    10    4   17 1
    11    5    6 1
    12    5   12 1
    13    5   22 1
    14    6    7 1
    15    6    8 1
    16    8    9 1
    17    8   10 1
    18   10   11 2
    19   10   20 1
    20   12   13 2
    21   12   21 1
    22   18   22 1
    23   19   22 1
    24   22   23 1
@<TRIPOS>MOLECULE
ZINC26578840
   47    50     0     0     0
SMALL
USER_CHARGES
(1S,2S,3R)-2-[(1S)-1-amino-2-hydroxy-2-oxo-ethyl]-3-[2-(9H-xanthen-9-yl)ethyl]cyclopropane-1-carboxylic acid
@<TRIPOS>ATOM
      1 C1          1.1670    2.0921    0.0022 C.ar      1 <0>        -0.1399
      2 C2          2.3772    1.4229   -0.0138 C.ar      1 <0>        -0.0882
      3 C3          2.4021    0.0431   -0.0225 C.ar      1 <0>        -0.1360
      4 C4          1.2124   -0.6770   -0.0150 C.ar      1 <0>         0.1181
      5 C5          0.0021   -0.0041    0.0020 C.ar      1 <0>        -0.1420
      6 C6         -0.0167    1.3799    0.0096 C.ar      1 <0>        -0.0796
      7 C7         -1.2992   -0.7586    0.0149 C.3       1 <0>         0.0010
      8 C8         -1.0880   -2.1845   -0.4158 C.ar      1 <0>        -0.1391
      9 C9         -2.1762   -2.9395   -0.8178 C.ar      1 <0>        -0.0878
     10 C10        -2.0044   -4.2512   -1.2157 C.ar      1 <0>        -0.1395
     11 C11        -0.7417   -4.8153   -1.2134 C.ar      1 <0>        -0.0868
     12 C12         0.3470   -4.0674   -0.8136 C.ar      1 <0>        -0.1327
     13 C13         0.1777   -2.7466   -0.4126 C.ar      1 <0>         0.1192
     14 O1          1.2593   -2.0306   -0.0227 O.3       1 <0>        -0.2448
     15 C14        -1.8794   -0.7398    1.4305 C.3       1 <0>        -0.1047
     16 C15        -3.2610   -1.3970    1.4242 C.3       1 <0>        -0.1248
     17 C16        -3.8412   -1.3783    2.8398 C.3       1 <0>        -0.1014
     18 H1         -2.8473   -1.4166    3.3096 H         1 <0>         0.1291
     19 C17        -5.1739   -2.0947    3.0667 C.3       1 <0>        -0.1029
     20 H2         -5.5361   -2.8616    3.7671 H         1 <0>         0.1486
     21 C18        -5.1166   -0.5651    3.0699 C.3       1 <0>        -0.2172
     22 H3         -5.6402    0.2404    2.5341 H         1 <0>         0.1555
     23 C19        -5.2663    0.1340    4.3966 C.2       1 <0>         0.4696
     24 O2         -4.3970    0.0398    5.2305 O.co2     1 <0>        -0.6283
     25 O3         -6.3653    0.8611    4.6518 O.co2     1 <0>        -0.7618
     26 C20        -5.8244   -2.7751    1.8605 C.3       1 <0>         0.0034
     27 H4         -5.1557   -3.5341    1.4284 H         1 <0>         0.1257
     28 C21        -7.1188   -3.4197    2.2851 C.2       1 <0>         0.4608
     29 O4         -8.1699   -2.8653    2.0666 O.co2     1 <0>        -0.6141
     30 O5         -7.1040   -4.6096    2.9060 O.co2     1 <0>        -0.7166
     31 N1         -6.0942   -1.7738    0.8201 N.4       1 <0>        -0.6756
     32 H5          1.1474    3.1719    0.0083 H         1 <0>         0.1286
     33 H6          3.3024    1.9799   -0.0194 H         1 <0>         0.1324
     34 H7          3.3477   -0.4786   -0.0347 H         1 <0>         0.1332
     35 H8         -0.9604    1.9050    0.0170 H         1 <0>         0.1303
     36 H9         -1.9844   -0.2789   -0.6995 H         1 <0>         0.0937
     37 H10        -3.1633   -2.5013   -0.8208 H         1 <0>         0.1225
     38 H11        -2.8565   -4.8365   -1.5284 H         1 <0>         0.1292
     39 H12        -0.6076   -5.8408   -1.5247 H         1 <0>         0.1334
     40 H13         1.3328   -4.5086   -0.8127 H         1 <0>         0.1338
     41 H14        -1.2127   -1.2942    2.1074 H         1 <0>         0.0770
     42 H15        -1.9698    0.3006    1.7759 H         1 <0>         0.0843
     43 H16        -3.9277   -0.8425    0.7474 H         1 <0>         0.0434
     44 H17        -3.1706   -2.4374    1.0787 H         1 <0>         0.0826
     45 H18        -6.5619   -2.2630   -0.0471 H         1 <0>         0.4337
     46 H19        -5.1494   -1.3033    0.5103 H         1 <0>         0.4198
     47 H20        -6.7733   -1.0054    1.2181 H         1 <0>         0.4550
@<TRIPOS>BOND
     1    1    6 ar
     2    1    2 ar
     3    1   32 1
     4    2    3 ar
     5    2   33 1
     6    3    4 ar
     7    3   34 1
     8    4   14 1
     9    4    5 ar
    10    5    6 ar
    11    5    7 1
    12    6   35 1
    13    7    8 1
    14    7   15 1
    15    7   36 1
    16    8   13 ar
    17    8    9 ar
    18    9   10 ar
    19    9   37 1
    20   10   11 ar
    21   10   38 1
    22   11   12 ar
    23   11   39 1
    24   12   13 ar
    25   12   40 1
    26   13   14 1
    27   15   16 1
    28   15   41 1
    29   15   42 1
    30   16   17 1
    31   16   43 1
    32   16   44 1
    33   17   18 1
    34   17   21 1
    35   17   19 1
    36   19   20 1
    37   19   21 1
    38   19   26 1
    39   21   22 1
    40   21   23 1
    41   23   24 2
    42   23   25 1
    43   26   27 1
    44   26   28 1
    45   26   31 1
    46   28   29 2
    47   28   30 1
    48   31   45 1
    49   31   46 1
    50   31   47 1
@<TRIPOS>MOLECULE
ZINC02004213
   22    22     0     0     0
SMALL
USER_CHARGES

@<TRIPOS>ATOM
      1 C1         -0.0189    1.5447    0.0105 C.3       1 <0>        -0.0986
      2 C2          1.4713    1.9433   -0.0016 C.3       1 <0>        -0.1173
      3 C3          2.2394    0.7548   -0.6059 C.3       1 <0>        -0.0300
      4 C4          1.1891   -0.3246   -0.9400 C.3       1 <0>        -0.0872
      5 C5          0.0021   -0.0041    0.0020 C.3       1 <0>        -0.1481
      6 H1          0.1874   -0.3934    1.0031 H         1 <0>         0.0877
      7 C6         -1.2858   -0.5526   -0.5561 C.2       1 <0>         0.4983
      8 O1         -2.1746    0.2083   -0.8991 O.co2     1 <0>        -0.6973
      9 O2         -1.4391   -1.7573   -0.6645 O.co2     1 <0>        -0.6962
     10 C7          3.2307    0.2184    0.3944 C.2       1 <0>         0.5052
     11 O3          2.8455   -0.1825    1.4795 O.co2     1 <0>        -0.6273
     12 O4          4.4178    0.1853    0.1186 O.co2     1 <0>        -0.6905
     13 N1          2.9355    1.1752   -1.8293 N.4       1 <0>        -0.6069
     14 H2         -0.5055    1.9146    0.9130 H         1 <0>         0.0668
     15 H3         -0.5226    1.9242   -0.8785 H         1 <0>         0.0752
     16 H4          1.6151    2.8321   -0.6160 H         1 <0>         0.0625
     17 H5          1.8155    2.1321    1.0153 H         1 <0>         0.0904
     18 H6          0.8805   -0.2469   -1.9825 H         1 <0>         0.0658
     19 H7          1.5841   -1.3188   -0.7312 H         1 <0>         0.0838
     20 H8          3.6040    1.8968   -1.6047 H         1 <0>         0.4237
     21 H9          3.4164    0.3845   -2.2312 H         1 <0>         0.4272
     22 H10         2.2642    1.5331   -2.4921 H         1 <0>         0.4125
@<TRIPOS>BOND
     1    1    5 1
     2    1    2 1
     3    1   14 1
     4    1   15 1
     5    2    3 1
     6    2   16 1
     7    2   17 1
     8    3    4 1
     9    3   10 1
    10    3   13 1
    11    4    5 1
    12    4   18 1
    13    4   19 1
    14    5    6 1
    15    5    7 1
    16    7    8 2
    17    7    9 1
    18   10   11 2
    19   10   12 1
    20   13   20 1
    21   13   21 1
    22   13   22 1
@<TRIPOS>MOLECULE
ZINC13910898
   23    24     0     0     0
SMALL
USER_CHARGES
(1S,2S,5R,6S)-2-amino-4,4-dioxo-4$l^{6}-thiabicyclo[3.1.0]hexane-2,6-dicarboxylic acid
@<TRIPOS>ATOM
      1 C1          1.3623    2.9422   -1.5545 C.3       1 <0>        -0.5662
      2 C2         -0.1732    3.1723   -1.4825 C.3       1 <0>         0.0343
      3 C3         -0.8712    1.9109   -0.9706 C.3       1 <0>        -0.1480
      4 H1         -1.5211    1.3987   -1.6801 H         1 <0>         0.1823
      5 C4         -1.2341    1.8283    0.5469 C.3       1 <0>        -0.0988
      6 H2         -1.0552    2.7172    1.1517 H         1 <0>         0.1113
      7 C5         -0.0127    1.0858    0.0080 C.3       1 <0>        -0.5759
      8 H3          0.0021   -0.0041    0.0020 H         1 <0>         0.1841
      9 S1          1.6009    1.9701   -0.0026 S.o2      1 <0>         2.3722
     10 O1          1.6525    2.8610    1.1032 O.2       1 <0>        -0.9340
     11 O2          2.6479    1.0291   -0.1962 O.2       1 <0>        -0.9134
     12 C6         -2.4293    1.0017    0.9459 C.2       1 <0>         0.4880
     13 O3         -3.0756    0.4273    0.1019 O.co2     1 <0>        -0.6052
     14 C7         -0.6931    3.5061   -2.8571 C.2       1 <0>         0.4801
     15 O4         -1.1223    2.6300   -3.5699 O.co2     1 <0>        -0.5589
     16 H4          1.9074    3.8855   -1.5202 H         1 <0>         0.1600
     17 H5          1.6368    2.3601   -2.4342 H         1 <0>         0.1771
     18 H6         -0.0349    5.1433   -0.9042 H         1 <0>         0.4423
     19 H7         -1.4494    4.4039   -0.4369 H         1 <0>         0.4447
     20 O5         -2.7760    0.9035    2.2390 O.co2     1 <0>        -0.7394
     21 O6         -0.6794    4.7768   -3.2895 O.co2     1 <0>        -0.7273
     22 N1         -0.4445    4.2805   -0.5500 N.4       1 <0>        -0.6293
     23 H8         -0.0289    4.0626    0.3633 H         1 <0>         0.4202
@<TRIPOS>BOND
     1    1    9 1
     2    1    2 1
     3    1   16 1
     4    1   17 1
     5    2    3 1
     6    2   14 1
     7    2   22 1
     8    3    4 1
     9    3    7 1
    10    3    5 1
    11    5    6 1
    12    5    7 1
    13    5   12 1
    14    7    8 1
    15    7    9 1
    16    9   10 2
    17    9   11 2
    18   12   13 2
    19   12   20 1
    20   14   15 2
    21   14   21 1
    22   18   22 1
    23   19   22 1
    24   22   23 1
@<TRIPOS>MOLECULE
ZINC03826602
   44    47     0     0     0
SMALL
USER_CHARGES

@<TRIPOS>ATOM
      1 C1         -2.0652   -0.8598    0.6816 C.ar      1 <0>        -0.1307
      2 C2         -1.4521   -0.1116   -0.3067 C.ar      1 <0>        -0.0780
      3 C3         -0.2478   -0.5258   -0.8385 C.ar      1 <0>        -0.1082
      4 C4          0.3518   -1.6944   -0.3817 C.ar      1 <0>         0.1485
      5 C5         -0.2642   -2.4413    0.6088 C.ar      1 <0>        -0.1566
      6 C6         -1.4726   -2.0216    1.1374 C.ar      1 <0>        -0.0298
      7 C7          0.3651   -3.7076    1.1223 C.3       1 <0>        -0.0043
      8 C8          1.4114   -4.2062    0.1633 C.ar      1 <0>        -0.1792
      9 C9          1.8465   -5.5168    0.2561 C.ar      1 <0>        -0.0847
     10 C10         2.8075   -5.9936   -0.6143 C.ar      1 <0>        -0.1422
     11 C11         3.3387   -5.1614   -1.5827 C.ar      1 <0>        -0.0829
     12 C12         2.9082   -3.8538   -1.6802 C.ar      1 <0>        -0.1445
     13 C13         1.9410   -3.3703   -0.8057 C.ar      1 <0>         0.0839
     14 O1          1.5344   -2.0829   -0.9159 O.3       1 <0>        -0.2343
     15 C14         1.0151   -3.4331    2.4799 C.3       1 <0>        -0.1014
     16 C15         2.0274   -2.2945    2.3397 C.3       1 <0>         0.0088
     17 C16         2.6935   -2.0348    3.6924 C.3       1 <0>        -0.1343
     18 H1          2.0566   -2.1784    4.5653 H         1 <0>         0.1359
     19 C17         4.1741   -2.3945    3.8314 C.3       1 <0>        -0.1905
     20 C18         3.7460   -0.9265    3.7605 C.3       1 <0>        -0.1789
     21 H2          3.9640   -0.3823    2.8415 H         1 <0>         0.1011
     22 C19         3.8233   -0.1172    5.0294 C.2       1 <0>         0.5190
     23 O2          4.8881    0.3579    5.3855 O.co2     1 <0>        -0.6942
     24 O3          2.8209    0.0625    5.6998 O.co2     1 <0>        -0.6777
     25 C20         1.3189   -1.0461    1.8808 C.2       1 <0>         0.5149
     26 O4          0.2686   -0.7142    2.4034 O.co2     1 <0>        -0.6129
     27 O5          1.7961   -0.3680    0.9869 O.co2     1 <0>        -0.6652
     28 N1          3.0505   -2.6674    1.3537 N.4       1 <0>        -0.6246
     29 H3         -3.0057   -0.5334    1.1005 H         1 <0>         0.1165
     30 H4         -1.9159    0.7965   -0.6627 H         1 <0>         0.1212
     31 H5          0.2297    0.0586   -1.6110 H         1 <0>         0.1216
     32 H6         -1.9536   -2.6040    1.9093 H         1 <0>         0.1161
     33 H7         -0.4056   -4.4692    1.2411 H         1 <0>         0.1043
     34 H8          1.4338   -6.1688    1.0117 H         1 <0>         0.1387
     35 H9          3.1445   -7.0168   -0.5382 H         1 <0>         0.1347
     36 H10         4.0905   -5.5346   -2.2623 H         1 <0>         0.1391
     37 H11         3.3234   -3.2047   -2.4369 H         1 <0>         0.1440
     38 H12         0.2472   -3.1500    3.1998 H         1 <0>         0.1175
     39 H13         1.5249   -4.3318    2.8270 H         1 <0>         0.0757
     40 H14         4.5114   -2.7742    4.7958 H         1 <0>         0.1075
     41 H15         4.6737   -2.8160    2.9592 H         1 <0>         0.0689
     42 H16         2.8070   -2.2812    0.4539 H         1 <0>         0.4233
     43 H17         3.9459   -2.3044    1.6444 H         1 <0>         0.4120
     44 H18         3.1012   -3.6729    1.2856 H         1 <0>         0.4021
@<TRIPOS>BOND
     1    1    6 ar
     2    1    2 ar
     3    1   29 1
     4    2    3 ar
     5    2   30 1
     6    3    4 ar
     7    3   31 1
     8    4   14 1
     9    4    5 ar
    10    5    6 ar
    11    5    7 1
    12    6   32 1
    13    7    8 1
    14    7   15 1
    15    7   33 1
    16    8   13 ar
    17    8    9 ar
    18    9   10 ar
    19    9   34 1
    20   10   11 ar
    21   10   35 1
    22   11   12 ar
    23   11   36 1
    24   12   13 ar
    25   12   37 1
    26   13   14 1
    27   15   16 1
    28   15   38 1
    29   15   39 1
    30   16   17 1
    31   16   25 1
    32   16   28 1
    33   17   18 1
    34   17   20 1
    35   17   19 1
    36   19   20 1
    37   19   40 1
    38   19   41 1
    39   20   21 1
    40   20   22 1
    41   22   23 2
    42   22   24 1
    43   25   26 2
    44   25   27 1
    45   28   42 1
    46   28   43 1
    47   28   44 1
@<TRIPOS>MOLECULE
ZINC01482113
   18    17     0     0     0
SMALL
USER_CHARGES

@<TRIPOS>ATOM
      1 C1         -0.0187    1.5258    0.0104 C.3       1 <0>        -0.1000
      2 C2          0.0021   -0.0041    0.0020 C.3       1 <0>        -0.1962
      3 C3         -1.4117   -0.5257    0.0127 C.2       1 <0>         0.4893
      4 O1         -2.3491    0.2539    0.0259 O.co2     1 <0>        -0.6870
      5 O2         -1.6182   -1.7273    0.0082 O.co2     1 <0>        -0.7019
      6 C4          1.4167    2.0553   -0.0004 C.3       1 <0>        -0.0520
      7 H1          1.9535    1.6326   -0.8497 H         1 <0>         0.1269
      8 C5          1.3970    3.5578   -0.1160 C.2       1 <0>         0.4945
      9 O3          1.7295    4.2467    0.8334 O.co2     1 <0>        -0.6861
     10 O4          1.0484    4.0844   -1.1589 O.co2     1 <0>        -0.6413
     11 N1          2.0906    1.6690    1.2464 N.4       1 <0>        -0.6105
     12 H2         -0.5459    1.8868   -0.8726 H         1 <0>         0.1064
     13 H3         -0.5289    1.8773    0.9072 H         1 <0>         0.0773
     14 H4          0.5123   -0.3556   -0.8948 H         1 <0>         0.0672
     15 H5          0.5293   -0.3651    0.8851 H         1 <0>         0.0471
     16 H6          2.1039    0.6630    1.3237 H         1 <0>         0.4141
     17 H7          3.0372    2.0182    1.2392 H         1 <0>         0.4227
     18 H8          1.5937    2.0603    2.0325 H         1 <0>         0.4293
@<TRIPOS>BOND
     1    1    2 1
     2    1    6 1
     3    1   12 1
     4    1   13 1
     5    2    3 1
     6    2   14 1
     7    2   15 1
     8    3    4 2
     9    3    5 1
    10    6    7 1
    11    6    8 1
    12    6   11 1
    13    8    9 2
    14    8   10 1
    15   11   16 1
    16   11   17 1
    17   11   18 1
@<TRIPOS>MOLECULE
ZINC00895124
   18    17     0     0     0
SMALL
USER_CHARGES

@<TRIPOS>ATOM
      1 C1         -0.0187    1.5258    0.0104 C.3       1 <0>        -0.1010
      2 C2          0.0021   -0.0041    0.0020 C.3       1 <0>        -0.1959
      3 C3         -1.4117   -0.5257    0.0127 C.2       1 <0>         0.4893
      4 O1         -2.3491    0.2539    0.0259 O.co2     1 <0>        -0.6871
      5 O2         -1.6182   -1.7273    0.0082 O.co2     1 <0>        -0.7016
      6 C4          1.4167    2.0553   -0.0004 C.3       1 <0>        -0.0510
      7 H1          1.9696    1.6236    0.8338 H         1 <0>         0.1263
      8 C5          1.3993    3.5565    0.1316 C.2       1 <0>         0.4931
      9 O3          1.4342    4.0717    1.2361 O.co2     1 <0>        -0.6465
     10 O4          1.3504    4.2557   -0.8660 O.co2     1 <0>        -0.6784
     11 N1          2.0667    1.6824   -1.2639 N.4       1 <0>        -0.6121
     12 H2         -0.5459    1.8868   -0.8726 H         1 <0>         0.0805
     13 H3         -0.5289    1.8773    0.9072 H         1 <0>         0.1026
     14 H4          0.5123   -0.3556   -0.8948 H         1 <0>         0.0475
     15 H5          0.5293   -0.3651    0.8851 H         1 <0>         0.0673
     16 H6          3.0133    2.0317   -1.2711 H         1 <0>         0.4211
     17 H7          2.0783    0.6774   -1.3524 H         1 <0>         0.4148
     18 H8          1.5549    2.0821   -2.0362 H         1 <0>         0.4310
@<TRIPOS>BOND
     1    1    2 1
     2    1    6 1
     3    1   12 1
     4    1   13 1
     5    2    3 1
     6    2   14 1
     7    2   15 1
     8    3    4 2
     9    3    5 1
    10    6    7 1
    11    6    8 1
    12    6   11 1
    13    8    9 2
    14    8   10 1
    15   11   16 1
    16   11   17 1
    17   11   18 1
@<TRIPOS>MOLECULE
ZINC03824390
   23    24     0     0     0
SMALL
USER_CHARGES
2-aminobicyclo[3.1.0]hexane-2,6-dicarboxylic acid
@<TRIPOS>ATOM
      1 C1         -2.8517    2.1110    0.0150 C.3       1 <0>        -0.1067
      2 C2         -2.2767    1.0905   -0.9984 C.3       1 <0>        -0.1133
      3 C3         -0.7955    1.5269   -1.1198 C.3       1 <0>         0.0379
      4 C4         -0.8470    3.0680   -1.0739 C.3       1 <0>        -0.1546
      5 H1         -0.5145    3.6079   -1.9605 H         1 <0>         0.1525
      6 C5         -2.1573    3.4393   -0.3503 C.3       1 <0>        -0.1429
      7 H2         -2.7904    4.2610   -0.6851 H         1 <0>         0.1203
      8 C6         -0.8062    3.7506    0.2967 C.3       1 <0>        -0.1503
      9 H3         -0.5067    3.1443    1.1515 H         1 <0>         0.0874
     10 C7         -0.3725    5.1932    0.3401 C.2       1 <0>         0.4848
     11 O1         -0.0833    5.7681   -0.6825 O.co2     1 <0>        -0.6180
     12 C8         -0.2129    1.0574   -2.4279 C.2       1 <0>         0.4702
     13 O2         -0.2515    1.7755   -3.3988 O.co2     1 <0>        -0.5717
     14 H4         -3.9315    2.1998   -0.1040 H         1 <0>         0.0871
     15 H5         -2.6041    1.8167    1.0349 H         1 <0>         0.0675
     16 H6         -2.7838    1.1731   -1.9597 H         1 <0>         0.1061
     17 H7         -2.3494    0.0743   -0.6110 H         1 <0>         0.0842
     18 H8          0.0021   -0.0041    0.0020 H         1 <0>         0.4316
     19 H9          0.9253    1.3792    0.0006 H         1 <0>         0.4332
     20 O3         -0.3074    5.8394    1.5148 O.co2     1 <0>        -0.7579
     21 O4          0.3490   -0.1586   -2.5144 O.co2     1 <0>        -0.7467
     22 N1         -0.0252    1.0139    0.0269 N.4       1 <0>        -0.6174
     23 H10        -0.4761    1.3157    0.8986 H         1 <0>         0.4165
@<TRIPOS>BOND
     1    1    6 1
     2    1    2 1
     3    1   14 1
     4    1   15 1
     5    2    3 1
     6    2   16 1
     7    2   17 1
     8    3    4 1
     9    3   12 1
    10    3   22 1
    11    4    5 1
    12    4    8 1
    13    4    6 1
    14    6    7 1
    15    6    8 1
    16    8    9 1
    17    8   10 1
    18   10   11 2
    19   10   20 1
    20   12   13 2
    21   12   21 1
    22   18   22 1
    23   19   22 1
    24   22   23 1
@<TRIPOS>MOLECULE
ZINC03952370
   21    22     0     0     0
SMALL
USER_CHARGES
2-amino-4-thiabicyclo[3.1.0]hexane-2,6-dicarboxylic acid
@<TRIPOS>ATOM
      1 C1         -0.7605    1.9628    1.2814 C.3       1 <0>        -0.0682
      2 C2         -0.0178    1.4648    0.0101 C.3       1 <0>         0.0399
      3 C3          1.4185    1.9913   -0.0008 C.3       1 <0>        -0.1615
      4 H1          1.6722    2.6978   -0.7911 H         1 <0>         0.1679
      5 C4          2.5334    1.0646    0.4961 C.3       1 <0>        -0.1316
      6 H2          2.2600    0.0403    0.7493 H         1 <0>         0.1000
      7 C5          2.0174    2.1769    1.4072 C.3       1 <0>        -0.0777
      8 H3          2.6663    3.0140    1.6644 H         1 <0>         0.1514
      9 S1          0.5956    1.8151    2.5179 S.3       1 <0>        -0.2550
     10 C6          3.9032    1.2403   -0.1071 C.2       1 <0>         0.4868
     11 O1          4.0885    2.0870   -0.9489 O.co2     1 <0>        -0.6093
     12 C7         -0.7409    1.9610   -1.2155 C.2       1 <0>         0.4720
     13 O2         -0.3883    2.9845   -1.7520 O.co2     1 <0>        -0.5632
     14 H4         -1.0767    3.0006    1.1759 H         1 <0>         0.1269
     15 H5         -1.6028    1.3166    1.5283 H         1 <0>         0.1282
     16 H6         -0.9349   -0.3784    0.0090 H         1 <0>         0.4344
     17 H7          0.5256   -0.3543   -0.7863 H         1 <0>         0.4369
     18 O3          4.9174    0.4561    0.2907 O.co2     1 <0>        -0.7455
     19 O4         -1.7767    1.2658   -1.7111 O.co2     1 <0>        -0.7347
     20 N1          0.0141   -0.0084    0.0239 N.4       1 <0>        -0.6190
     21 H8          0.4848   -0.3278    0.8787 H         1 <0>         0.4213
@<TRIPOS>BOND
     1    1    9 1
     2    1    2 1
     3    1   14 1
     4    1   15 1
     5    2    3 1
     6    2   12 1
     7    2   20 1
     8    3    4 1
     9    3    7 1
    10    3    5 1
    11    5    6 1
    12    5    7 1
    13    5   10 1
    14    7    8 1
    15    7    9 1
    16   10   11 2
    17   10   18 1
    18   12   13 2
    19   12   19 1
    20   16   20 1
    21   17   20 1
    22   20   21 1
