@<TRIPOS>MOLECULE
ZINC49070819
   53    55     0     0     0
SMALL
USER_CHARGES

@<TRIPOS>ATOM
      1 C1         -0.0187    1.5258    0.0104 C.3       1 <0>        -0.1607
      2 C2          0.0021   -0.0041    0.0020 C.3       1 <0>        -0.1144
      3 C3          0.7421   -0.5109    1.2415 C.3       1 <0>        -0.0618
      4 C4          2.1775    0.0187    1.2307 C.3       1 <0>        -0.1556
      5 C5          0.0259   -0.0175    2.5003 C.3       1 <0>        -0.1534
      6 C6          0.7628   -2.0407    1.2331 C.3       1 <0>        -0.0574
      7 C7          1.4917   -2.5400    2.4540 C.2       1 <0>         0.0768
      8 C8          2.8227   -2.6959    2.5865 C.2       1 <0>        -0.0017
      9 N1          3.0652   -3.1605    3.8211 N.pl3     1 <0>        -0.4694
     10 C9          1.9350   -3.2985    4.4588 C.cat     1 <0>         0.3253
     11 N2          0.9285   -2.9165    3.6434 N.pl3     1 <0>        -0.5070
     12 H1         -0.0171   -2.9118    3.8596 H         1 <0>         0.4620
     13 C10         1.7793   -3.7962    5.8726 C.3       1 <0>        -0.0731
     14 C11         1.8364   -2.6118    6.8395 C.3       1 <0>        -0.0756
     15 C12         1.6806   -3.1095    8.2534 C.ar      1 <0>        -0.0971
     16 C13         0.4195   -3.2148    8.8118 C.ar      1 <0>        -0.1143
     17 C14         0.2709   -3.6701   10.1062 C.ar      1 <0>        -0.0765
     18 C15         1.3945   -4.0240   10.8508 C.ar      1 <0>        -0.0321
     19 C16         2.6626   -3.9158   10.2831 C.ar      1 <0>        -0.0983
     20 C17         2.7989   -3.4648    8.9859 C.ar      1 <0>        -0.1125
     21 C18         1.2412   -4.5135   12.2428 C.ar      1 <0>         0.1528
     22 C19         2.3706   -4.8596   12.9817 C.ar      1 <0>        -0.1605
     23 C20         2.2118   -5.3147   14.2791 C.ar      1 <0>        -0.0708
     24 C21         0.9270   -5.4088   14.7955 C.ar      1 <0>        -0.1664
     25 C22        -0.1491   -5.0483   14.0061 C.ar      1 <0>         0.1070
     26 N3          0.0304   -4.6129   12.7755 N.ar      1 <0>        -0.4776
     27 H2          1.0039    1.9031    0.0027 H         1 <0>         0.0599
     28 H3         -0.5459    1.8868   -0.8726 H         1 <0>         0.0609
     29 H4         -0.5289    1.8773    0.9072 H         1 <0>         0.0584
     30 H5         -1.0205   -0.3814    0.0098 H         1 <0>         0.0679
     31 H6          0.5123   -0.3556   -0.8948 H         1 <0>         0.0704
     32 H7          2.1627    1.1086    1.2367 H         1 <0>         0.0716
     33 H8          2.7046   -0.3424    2.1137 H         1 <0>         0.0500
     34 H9          2.6876   -0.3328    0.3339 H         1 <0>         0.0652
     35 H10        -0.9967   -0.3948    2.5081 H         1 <0>         0.0610
     36 H11         0.5531   -0.3786    3.3834 H         1 <0>         0.0428
     37 H12         0.0111    1.0724    2.5063 H         1 <0>         0.0743
     38 H13        -0.2598   -2.4180    1.2409 H         1 <0>         0.0982
     39 H14         1.2730   -2.3923    0.3363 H         1 <0>         0.1149
     40 H15         3.5649   -2.4839    1.8311 H         1 <0>         0.2239
     41 H16         0.8200   -4.3034    5.9757 H         1 <0>         0.1251
     42 H17         2.5852   -4.4928    6.1035 H         1 <0>         0.1256
     43 H18         2.7956   -2.1046    6.7365 H         1 <0>         0.0859
     44 H19         1.0304   -1.9152    6.6087 H         1 <0>         0.0861
     45 H20        -0.4505   -2.9400    8.2339 H         1 <0>         0.1264
     46 H21        -0.7142   -3.7516   10.5413 H         1 <0>         0.1401
     47 H22         3.5367   -4.1887   10.8557 H         1 <0>         0.1317
     48 H23         3.7808   -3.3851    8.5433 H         1 <0>         0.1271
     49 H24         3.3560   -4.7744   12.5481 H         1 <0>         0.1373
     50 H25         3.0684   -5.5908   14.8761 H         1 <0>         0.1404
     51 H26         0.7694   -5.7607   15.8044 H         1 <0>         0.1410
     52 H27        -1.1502   -5.1204   14.4049 H         1 <0>         0.1623
     53 H28         3.9423   -3.3625    4.1829 H         1 <0>         0.4641
@<TRIPOS>BOND
     1    1    2 1
     2    1   27 1
     3    1   28 1
     4    1   29 1
     5    2    3 1
     6    2   30 1
     7    2   31 1
     8    3    4 1
     9    3    5 1
    10    3    6 1
    11    4   32 1
    12    4   33 1
    13    4   34 1
    14    5   35 1
    15    5   36 1
    16    5   37 1
    17    6    7 1
    18    6   38 1
    19    6   39 1
    20    7   11 1
    21    7    8 2
    22    8    9 1
    23    8   40 1
    24    9   10 2
    25    9   53 1
    26   10   11 1
    27   10   13 1
    28   11   12 1
    29   13   14 1
    30   13   41 1
    31   13   42 1
    32   14   15 1
    33   14   43 1
    34   14   44 1
    35   15   20 ar
    36   15   16 ar
    37   16   17 ar
    38   16   45 1
    39   17   18 ar
    40   17   46 1
    41   18   19 ar
    42   18   21 1
    43   19   20 ar
    44   19   47 1
    45   20   48 1
    46   21   26 ar
    47   21   22 ar
    48   22   23 ar
    49   22   49 1
    50   23   24 ar
    51   23   50 1
    52   24   25 ar
    53   24   51 1
    54   25   26 ar
    55   25   52 1
@<TRIPOS>MOLECULE
ZINC03951093
   79    83     0     0     0
SMALL
USER_CHARGES
(2S)-3-(1H-indol-3-yl)-N-[[1-(5-methoxy-2-pyridyl)cyclohexyl]methyl]-2-methyl-2-[(4-nitrophenyl)carbamoylamino]propanamide
@<TRIPOS>ATOM
      1 C1         -0.9882    2.1708   -0.2979 C.3       1 <0>        -0.1545
      2 C2         -1.2504    2.3390    1.2000 C.3       1 <0>         0.1898
      3 C3         -2.5733    1.6627    1.5653 C.3       1 <0>        -0.0541
      4 C4         -2.7719    1.7209    3.0580 C.2       1 <0>        -0.1695
      5 C5         -2.4053    0.7865    3.9493 C.2       1 <0>         0.0603
      6 N1         -2.7482    1.1862    5.2122 N.pl3     1 <0>        -0.5949
      7 H1         -2.5845    0.6772    6.0216 H         1 <0>         0.4151
      8 C6         -3.3594    2.4191    5.1632 C.ar      1 <0>         0.0964
      9 C7         -3.3958    2.8107    3.8123 C.ar      1 <0>        -0.0937
     10 C8         -3.9613    4.0367    3.4576 C.ar      1 <0>        -0.0614
     11 C9         -4.4744    4.8528    4.4263 C.ar      1 <0>        -0.1448
     12 C10        -4.4379    4.4726    5.7605 C.ar      1 <0>        -0.0944
     13 C11        -3.8910    3.2635    6.1320 C.ar      1 <0>        -0.1322
     14 C12        -1.3272    3.8064    1.5349 C.2       1 <0>         0.5242
     15 O1         -1.6595    4.6056    0.6854 O.2       1 <0>        -0.5075
     16 N2         -1.0265    4.2304    2.7784 N.am      1 <0>        -0.7176
     17 C13        -1.2023    5.6407    3.1339 C.3       1 <0>         0.1298
     18 C14         0.1038    6.3968    2.8819 C.3       1 <0>        -0.0164
     19 C15         1.2277    5.7608    3.7025 C.3       1 <0>        -0.1051
     20 C16         0.8761    5.8318    5.1898 C.3       1 <0>        -0.1196
     21 C17         0.7068    7.2947    5.6046 C.3       1 <0>        -0.1200
     22 C18        -0.4171    7.9307    4.7840 C.3       1 <0>        -0.1254
     23 C19        -0.0656    7.8597    3.2966 C.3       1 <0>        -0.0928
     24 C20         0.4501    6.3269    1.4169 C.ar      1 <0>         0.1227
     25 C21         0.9700    5.1573    0.8940 C.ar      1 <0>        -0.1185
     26 C22         1.2806    5.0989   -0.4548 C.ar      1 <0>        -0.1012
     27 C23         1.0654    6.2324   -1.2326 C.ar      1 <0>         0.0765
     28 C24         0.5457    7.3709   -0.6346 C.ar      1 <0>         0.0249
     29 N3          0.2582    7.3836    0.6521 N.ar      1 <0>        -0.4383
     30 O2          1.3598    6.2240   -2.5594 O.3       1 <0>        -0.3136
     31 C25         1.1091    7.4279   -3.2872 C.3       1 <0>         0.0249
     32 N4         -0.1602    1.7213    1.9590 N.am      1 <0>        -0.7258
     33 C26         0.0972    0.4058    1.8193 C.2       1 <0>         0.7105
     34 O3         -0.5754   -0.2684    1.0633 O.2       1 <0>        -0.5513
     35 N5          1.1002   -0.1625    2.5175 N.am      1 <0>        -0.6841
     36 C27         1.4438   -1.4994    2.2865 C.ar      1 <0>         0.2256
     37 C28         1.9669   -2.2711    3.3157 C.ar      1 <0>        -0.1531
     38 C29         2.3006   -3.5915    3.0857 C.ar      1 <0>        -0.0289
     39 C30         2.1241   -4.1421    1.8296 C.ar      1 <0>        -0.0667
     40 C31         1.6083   -3.3747    0.8014 C.ar      1 <0>        -0.0292
     41 C32         1.2677   -2.0552    1.0262 C.ar      1 <0>        -0.1252
     42 N6          2.4876   -5.5560    1.5853 N.pl3     1 <0>         0.0305
     43 O4          2.3322   -6.0424    0.4795 O.2       1 <0>        -0.1607
     44 O5          2.9420   -6.2331    2.4900 O.3       1 <0>        -0.1634
     45 H2         -0.9327    1.1095   -0.5401 H         1 <0>         0.0877
     46 H3         -0.0458    2.6527   -0.5582 H         1 <0>         0.0605
     47 H4         -1.7993    2.6304   -0.8626 H         1 <0>         0.0788
     48 H5         -3.3948    2.1795    1.0691 H         1 <0>         0.0850
     49 H6         -2.5507    0.6220    1.2421 H         1 <0>         0.1057
     50 H7         -1.9123   -0.1431    3.7057 H         1 <0>         0.1598
     51 H8         -3.9935    4.3390    2.4212 H         1 <0>         0.1156
     52 H9         -4.9121    5.8010    4.1513 H         1 <0>         0.1203
     53 H10        -4.8474    5.1283    6.5146 H         1 <0>         0.1235
     54 H11        -3.8657    2.9774    7.1731 H         1 <0>         0.1172
     55 H12        -0.6938    3.6018    3.4380 H         1 <0>         0.3944
     56 H13        -1.9957    6.0729    2.5242 H         1 <0>         0.0874
     57 H14        -1.4700    5.7192    4.1875 H         1 <0>         0.0909
     58 H15         1.3484    4.7186    3.4070 H         1 <0>         0.0573
     59 H16         2.1582    6.2994    3.5229 H         1 <0>         0.0669
     60 H17         1.6768    5.3788    5.7745 H         1 <0>         0.0628
     61 H18        -0.0543    5.2932    5.3694 H         1 <0>         0.0631
     62 H19         1.6372    7.8333    5.4251 H         1 <0>         0.0619
     63 H20         0.4563    7.3453    6.6643 H         1 <0>         0.0614
     64 H21        -0.5378    8.9729    5.0795 H         1 <0>         0.0646
     65 H22        -1.3476    7.3920    4.9635 H         1 <0>         0.0640
     66 H23         0.8649    8.3983    3.1171 H         1 <0>         0.0658
     67 H24        -0.8662    8.3127    2.7120 H         1 <0>         0.0751
     68 H25         1.1280    4.2980    1.5288 H         1 <0>         0.1236
     69 H26         1.6840    4.1971   -0.8911 H         1 <0>         0.1337
     70 H27         0.3744    8.2561   -1.2291 H         1 <0>         0.1538
     71 H28         1.3871    7.2857   -4.3315 H         1 <0>         0.1032
     72 H29         0.0498    7.6769   -3.2238 H         1 <0>         0.0581
     73 H30         1.6992    8.2395   -2.8614 H         1 <0>         0.0567
     74 H31         0.3763    2.2591    2.5622 H         1 <0>         0.3940
     75 H32         1.5838    0.3550    3.1802 H         1 <0>         0.4128
     76 H33         2.1092   -1.8404    4.2958 H         1 <0>         0.1490
     77 H34         2.7034   -4.1935    3.8868 H         1 <0>         0.1574
     78 H35         1.4719   -3.8075   -0.1787 H         1 <0>         0.1572
     79 H36         0.8646   -1.4565    0.2229 H         1 <0>         0.1641
@<TRIPOS>BOND
     1    1    2 1
     2    1   45 1
     3    1   46 1
     4    1   47 1
     5    2    3 1
     6    2   14 1
     7    2   32 1
     8    3    4 1
     9    3   48 1
    10    3   49 1
    11    4    9 1
    12    4    5 2
    13    5    6 1
    14    5   50 1
    15    6    7 1
    16    6    8 1
    17    8   13 ar
    18    8    9 ar
    19    9   10 ar
    20   10   11 ar
    21   10   51 1
    22   11   12 ar
    23   11   52 1
    24   12   13 ar
    25   12   53 1
    26   13   54 1
    27   14   15 2
    28   14   16 am
    29   16   17 1
    30   16   55 1
    31   17   18 1
    32   17   56 1
    33   17   57 1
    34   18   23 1
    35   18   19 1
    36   18   24 1
    37   19   20 1
    38   19   58 1
    39   19   59 1
    40   20   21 1
    41   20   60 1
    42   20   61 1
    43   21   22 1
    44   21   62 1
    45   21   63 1
    46   22   23 1
    47   22   64 1
    48   22   65 1
    49   23   66 1
    50   23   67 1
    51   24   29 ar
    52   24   25 ar
    53   25   26 ar
    54   25   68 1
    55   26   27 ar
    56   26   69 1
    57   27   28 ar
    58   27   30 1
    59   28   29 ar
    60   28   70 1
    61   30   31 1
    62   31   71 1
    63   31   72 1
    64   31   73 1
    65   32   33 am
    66   32   74 1
    67   33   34 2
    68   33   35 am
    69   35   36 1
    70   35   75 1
    71   36   41 ar
    72   36   37 ar
    73   37   38 ar
    74   37   76 1
    75   38   39 ar
    76   38   77 1
    77   39   40 ar
    78   39   42 1
    79   40   41 ar
    80   40   78 1
    81   41   79 1
    82   42   43 2
    83   42   44 1
