@<TRIPOS>MOLECULE
ZINC12414057
   38    40     0     0     0
SMALL
USER_CHARGES

@<TRIPOS>ATOM
      1 C1          2.0931    1.5454   -0.2475 C.3       1 <0>         0.0538
      2 N1          1.9645    0.0864   -0.2168 N.pl3     1 <0>        -0.5494
      3 C2          2.1394   -0.6379    1.0445 C.3       1 <0>         0.0540
      4 C3          1.6827   -0.5958   -1.3596 C.ar      1 <0>         0.3395
      5 C4          1.5540   -1.9986   -1.3254 C.ar      1 <0>        -0.2045
      6 C5          1.2751   -2.7255   -2.4299 C.ar      1 <0>         0.0569
      7 C6          1.1005   -2.0785   -3.6836 C.ar      1 <0>         0.0546
      8 C7          1.2391   -0.6091   -3.6968 C.ar      1 <0>        -0.0345
      9 C8          1.5162    0.0994   -2.5631 C.ar      1 <0>        -0.1922
     10 S1          1.0099    0.1442   -5.2932 S.3       1 <0>         0.1725
     11 C9          0.6587   -1.0882   -6.5287 C.2       1 <0>        -0.0351
     12 C10         0.4393   -0.7942   -7.8439 C.2       1 <0>        -0.1934
     13 C11         0.1717   -1.8429   -8.7317 C.2       1 <0>         0.3402
     14 N2         -0.0504   -1.5765  -10.0472 N.pl3     1 <0>        -0.5511
     15 C12        -0.1776   -0.1898  -10.5024 C.3       1 <0>         0.0519
     16 C13        -0.1623   -2.6762  -11.0085 C.3       1 <0>         0.0555
     17 C14         0.1317   -3.1732   -8.2690 C.2       1 <0>        -0.2037
     18 C15         0.3448   -3.4942   -6.9737 C.2       1 <0>         0.0573
     19 C16         0.6211   -2.4742   -6.0228 C.2       1 <0>         0.0542
     20 N3          0.8307   -2.7697   -4.7636 N.2       1 <0>        -0.3775
     21 H1          3.1302    1.8146   -0.4477 H         1 <0>         0.0838
     22 H2          1.4547    1.9500   -1.0329 H         1 <0>         0.0888
     23 H3          1.7902    1.9572    0.7152 H         1 <0>         0.0969
     24 H4          1.1776   -0.7249    1.5499 H         1 <0>         0.0842
     25 H5          2.5339   -1.6333    0.8402 H         1 <0>         0.0919
     26 H6          2.8370   -0.0945    1.6819 H         1 <0>         0.0962
     27 H7          1.6830   -2.5108   -0.3834 H         1 <0>         0.1583
     28 H8          1.1851   -3.7995   -2.3602 H         1 <0>         0.1644
     29 H9          1.6095    1.1749   -2.5950 H         1 <0>         0.1611
     30 H10         0.4713    0.2275   -8.1924 H         1 <0>         0.1621
     31 H11        -0.1616    0.4782   -9.6413 H         1 <0>         0.0926
     32 H12         0.6528    0.0525  -11.1656 H         1 <0>         0.0868
     33 H13        -1.1185   -0.0684  -11.0391 H         1 <0>         0.0907
     34 H14        -1.2039   -2.9884  -11.0838 H         1 <0>         0.0833
     35 H15         0.1884   -2.3423  -11.9851 H         1 <0>         0.0963
     36 H16         0.4454   -3.5162  -10.6720 H         1 <0>         0.0912
     37 H17        -0.0769   -3.9641   -8.9743 H         1 <0>         0.1578
     38 H18         0.3050   -4.5270   -6.6605 H         1 <0>         0.1644
@<TRIPOS>BOND
     1    1    2 1
     2    1   21 1
     3    1   22 1
     4    1   23 1
     5    2    3 1
     6    2    4 1
     7    3   24 1
     8    3   25 1
     9    3   26 1
    10    4    9 ar
    11    4    5 ar
    12    5    6 ar
    13    5   27 1
    14    6    7 ar
    15    6   28 1
    16    7   20 1
    17    7    8 ar
    18    8    9 ar
    19    8   10 1
    20    9   29 1
    21   10   11 1
    22   11   19 1
    23   11   12 2
    24   12   13 1
    25   12   30 1
    26   13   14 2
    27   13   17 1
    28   14   15 1
    29   14   16 1
    30   15   31 1
    31   15   32 1
    32   15   33 1
    33   16   34 1
    34   16   35 1
    35   16   36 1
    36   17   18 2
    37   17   37 1
    38   18   19 1
    39   18   38 1
    40   19   20 2
