@<TRIPOS>MOLECULE
ZINC01493890
   37    40     0     0     0
SMALL
USER_CHARGES

@<TRIPOS>ATOM
      1 C1         -0.0178    1.4608    0.0101 C.3       1 <0>         0.0734
      2 N1          0.0021   -0.0041    0.0020 N.pl3     1 <0>        -0.4737
      3 C2          0.0078   -0.7727   -1.1169 C.2       1 <0>         0.1075
      4 C3          0.0281   -2.0944   -0.7674 C.2       1 <0>        -0.1579
      5 C4          0.0354   -2.1366    0.7062 C.ar      1 <0>        -0.0717
      6 C5          0.0236   -0.7978    1.1309 C.ar      1 <0>         0.0936
      7 C6          0.0319   -0.5143    2.4922 C.ar      1 <0>        -0.1217
      8 C7          0.0548   -1.5434    3.4092 C.ar      1 <0>        -0.0984
      9 C8          0.0696   -2.8648    2.9882 C.ar      1 <0>        -0.1347
     10 C9          0.0537   -3.1664    1.6433 C.ar      1 <0>        -0.0758
     11 C10         0.0395   -3.2453   -1.6802 C.2       1 <0>         0.0076
     12 C11         1.1151   -3.7103   -2.4252 C.2       1 <0>        -0.0960
     13 C12         0.6209   -4.8797   -3.1750 C.2       1 <0>         0.5637
     14 O1          1.2771   -5.5582   -3.9404 O.2       1 <0>        -0.4429
     15 N2         -0.6738   -5.0723   -2.8722 N.am      1 <0>        -0.6877
     16 C13        -1.0937   -4.1509   -1.9885 C.2       1 <0>         0.5544
     17 O2         -2.2127   -4.0711   -1.5240 O.2       1 <0>        -0.4382
     18 C14         2.4796   -3.1466   -2.4599 C.ar      1 <0>        -0.0170
     19 C15         3.3545   -3.3599   -1.3914 C.ar      1 <0>        -0.0612
     20 C16         4.6271   -2.8314   -1.4301 C.ar      1 <0>        -0.1027
     21 C17         5.0400   -2.0893   -2.5251 C.ar      1 <0>        -0.0144
     22 C18         4.1789   -1.8735   -3.5878 C.ar      1 <0>        -0.1022
     23 C19         2.9039   -2.4018   -3.5647 C.ar      1 <0>        -0.0020
     24 Cl1         1.8274   -2.1362   -4.9005 Cl        1 <0>        -0.0460
     25 Cl2         6.6441   -1.4267   -2.5645 Cl        1 <0>        -0.0499
     26 H1          1.0048    1.8381    0.0023 H         1 <0>         0.0752
     27 H2         -0.5450    1.8219   -0.8730 H         1 <0>         0.0873
     28 H3         -0.5280    1.8123    0.9069 H         1 <0>         0.0858
     29 H4         -0.0026   -0.3972   -2.1295 H         1 <0>         0.1749
     30 H5          0.0209    0.5112    2.8309 H         1 <0>         0.1213
     31 H6          0.0616   -1.3185    4.4655 H         1 <0>         0.1280
     32 H7          0.0879   -3.6611    3.7175 H         1 <0>         0.1260
     33 H8          0.0668   -4.1961    1.3179 H         1 <0>         0.1197
     34 H9         -1.2273   -5.7803   -3.2375 H         1 <0>         0.4319
     35 H10         3.0343   -3.9374   -0.5368 H         1 <0>         0.1466
     36 H11         5.3039   -2.9958   -0.6047 H         1 <0>         0.1469
     37 H12         4.5068   -1.2939   -4.4381 H         1 <0>         0.1501
@<TRIPOS>BOND
     1    1    2 1
     2    1   26 1
     3    1   27 1
     4    1   28 1
     5    2    6 1
     6    2    3 1
     7    3    4 2
     8    3   29 1
     9    4    5 1
    10    4   11 1
    11    5   10 ar
    12    5    6 ar
    13    6    7 ar
    14    7    8 ar
    15    7   30 1
    16    8    9 ar
    17    8   31 1
    18    9   10 ar
    19    9   32 1
    20   10   33 1
    21   11   16 1
    22   11   12 2
    23   12   13 1
    24   12   18 1
    25   13   14 2
    26   13   15 am
    27   15   16 am
    28   15   34 1
    29   16   17 2
    30   18   23 ar
    31   18   19 ar
    32   19   20 ar
    33   19   35 1
    34   20   21 ar
    35   20   36 1
    36   21   22 ar
    37   21   25 1
    38   22   23 ar
    39   22   37 1
    40   23   24 1
@<TRIPOS>MOLECULE
ZINC44136098
   50    53     0     0     0
SMALL
USER_CHARGES

@<TRIPOS>ATOM
      1 C1         -0.2091    0.5158    0.9417 C.ar      1 <0>        -0.1104
      2 C2          1.0375    1.1055    0.9791 C.ar      1 <0>        -0.0063
      3 C3          1.4681    1.8891   -0.0913 C.ar      1 <0>        -0.0306
      4 C4          0.6336    2.0719   -1.1958 C.ar      1 <0>         0.0152
      5 C5         -0.6119    1.4766   -1.2220 C.ar      1 <0>        -0.1149
      6 C6         -1.0331    0.7001   -0.1559 C.ar      1 <0>        -0.0042
      7 Cl1        -2.6001   -0.0459   -0.1955 Cl        1 <0>        -0.0575
      8 Cl2         1.1606    3.0459   -2.5327 Cl        1 <0>        -0.0503
      9 C7          2.8047    2.5249   -0.0564 C.ar      1 <0>         0.3017
     10 C8          3.9688    1.7418    0.0894 C.ar      1 <0>        -0.1664
     11 C9          5.2042    2.3949    0.1154 C.ar      1 <0>         0.2094
     12 N1          5.2379    3.7111    0.0036 N.ar      1 <0>        -0.5578
     13 C10         4.1233    4.4165   -0.1322 C.ar      1 <0>         0.5766
     14 N2          2.9299    3.8443   -0.1676 N.ar      1 <0>        -0.5385
     15 N3          4.2105    5.7921   -0.2451 N.pl3     1 <0>        -0.6907
     16 C11         5.5200    6.4481   -0.2138 C.3       1 <0>         0.1271
     17 C12         5.3365    7.9603   -0.3567 C.3       1 <0>         0.1087
     18 N4          6.6460    8.6163   -0.3255 N.pl3     1 <0>        -0.7021
     19 C13         6.7336    9.9988   -0.4390 C.ar      1 <0>         0.4894
     20 C14         5.5738   10.7526   -0.5761 C.ar      1 <0>        -0.2837
     21 C15         5.6707   12.1298   -0.6881 C.ar      1 <0>         0.0629
     22 C16         6.9283   12.7105   -0.6592 C.ar      1 <0>        -0.2238
     23 C17         8.0480   11.8993   -0.5197 C.ar      1 <0>         0.5165
     24 N5          7.9212   10.5850   -0.4098 N.ar      1 <0>        -0.5877
     25 N6          9.3136   12.4731   -0.4902 N.pl3     1 <0>        -0.8255
     26 N7          7.0776   14.1783   -0.7762 N.pl3     1 <0>         0.0562
     27 O1          6.2781   14.9117   -0.2427 O.2       1 <0>        -0.1530
     28 O2          7.9991   14.6440   -1.4053 O.3       1 <0>        -0.1888
     29 C18         3.8846    0.2727    0.2115 C.2       1 <0>         0.2544
     30 N8          4.9258   -0.5682    0.4793 N.pl3     1 <0>        -0.5651
     31 H1          5.8507   -0.3138    0.6233 H         1 <0>         0.4195
     32 C19         4.4166   -1.8400    0.5058 C.2       1 <0>        -0.0393
     33 C20         3.0953   -1.7418    0.2568 C.2       1 <0>        -0.0208
     34 N9          2.7921   -0.4494    0.0866 N.2       1 <0>        -0.4626
     35 H2         -0.5413   -0.0947    1.7683 H         1 <0>         0.1406
     36 H3          1.6787    0.9611    1.8361 H         1 <0>         0.1326
     37 H4         -1.2587    1.6170   -2.0754 H         1 <0>         0.1449
     38 H5          6.1189    1.8314    0.2259 H         1 <0>         0.1668
     39 H6          3.4046    6.3226   -0.3450 H         1 <0>         0.4197
     40 H7          6.0132    6.2299    0.7334 H         1 <0>         0.0804
     41 H8          6.1320    6.0771   -1.0360 H         1 <0>         0.0801
     42 H9          4.8433    8.1786   -1.3040 H         1 <0>         0.0814
     43 H10         4.7245    8.3314    0.4654 H         1 <0>         0.0819
     44 H11         7.4519    8.0859   -0.2255 H         1 <0>         0.4142
     45 H12         4.6079   10.2698   -0.5955 H         1 <0>         0.1512
     46 H13         4.7848   12.7380   -0.7960 H         1 <0>         0.1576
     47 H14         9.4166   13.4278   -0.6276 H         1 <0>         0.4222
     48 H15        10.0938   11.9188   -0.3322 H         1 <0>         0.4141
     49 H16         4.9693   -2.7492    0.6909 H         1 <0>         0.1812
     50 H17         2.3989   -2.5658    0.2075 H         1 <0>         0.1736
@<TRIPOS>BOND
     1    1    6 ar
     2    1    2 ar
     3    1   35 1
     4    2    3 ar
     5    2   36 1
     6    3    4 ar
     7    3    9 1
     8    4    5 ar
     9    4    8 1
    10    5    6 ar
    11    5   37 1
    12    6    7 1
    13    9   14 ar
    14    9   10 ar
    15   10   11 ar
    16   10   29 1
    17   11   12 ar
    18   11   38 1
    19   12   13 ar
    20   13   14 ar
    21   13   15 1
    22   15   16 1
    23   15   39 1
    24   16   17 1
    25   16   40 1
    26   16   41 1
    27   17   18 1
    28   17   42 1
    29   17   43 1
    30   18   19 1
    31   18   44 1
    32   19   24 ar
    33   19   20 ar
    34   20   21 ar
    35   20   45 1
    36   21   22 ar
    37   21   46 1
    38   22   23 ar
    39   22   26 1
    40   23   24 ar
    41   23   25 1
    42   25   47 1
    43   25   48 1
    44   26   27 2
    45   26   28 1
    46   29   34 2
    47   29   30 1
    48   30   31 1
    49   30   32 1
    50   32   33 2
    51   32   49 1
    52   33   34 1
    53   33   50 1
@<TRIPOS>MOLECULE
ZINC44136098
   51    54     0     0     0
SMALL
USER_CHARGES

@<TRIPOS>ATOM
      1 C1          2.1874   -0.7993   -1.1271 C.ar      1 <0>        -0.1049
      2 C2          3.2997    0.0019   -0.9718 C.ar      1 <0>        -0.0773
      3 C3          3.2672    1.0701   -0.0756 C.ar      1 <0>        -0.0955
      4 C4          2.1073    1.3222    0.6599 C.ar      1 <0>         0.0143
      5 C5          1.0003    0.5135    0.4960 C.ar      1 <0>        -0.1002
      6 C6          1.0395   -0.5452   -0.3953 C.ar      1 <0>         0.0019
      7 Cl1        -0.3561   -1.5578   -0.5969 Cl        1 <0>        -0.0219
      8 Cl2         2.0575    2.6491    1.7782 Cl        1 <0>        -0.0181
      9 C7          4.4580    1.9330    0.0956 C.ar      1 <0>         0.3309
     10 C8          5.7146    1.3702    0.4023 C.ar      1 <0>        -0.2746
     11 C9          6.8045    2.2321    0.5529 C.ar      1 <0>         0.2648
     12 N1          6.6212    3.5320    0.4039 N.ar      1 <0>        -0.5506
     13 C10         5.4253    4.0273    0.1154 C.ar      1 <0>         0.6084
     14 N2          4.3635    3.2523   -0.0425 N.ar      1 <0>        -0.5332
     15 N3          5.2840    5.3950   -0.0302 N.pl3     1 <0>        -0.6653
     16 C11         6.4452    6.2729    0.1342 C.3       1 <0>         0.1159
     17 C12         6.0191    7.7271   -0.0775 C.3       1 <0>         0.1094
     18 N4          7.1803    8.6051    0.0869 N.pl3     1 <0>        -0.7068
     19 C13         7.0383    9.9799   -0.0595 C.ar      1 <0>         0.4879
     20 C14         5.7901   10.5148   -0.3562 C.ar      1 <0>        -0.2865
     21 C15         5.6579   11.8860   -0.4998 C.ar      1 <0>         0.0651
     22 C16         6.7818   12.6807   -0.3416 C.ar      1 <0>        -0.2200
     23 C17         8.0005   12.0823   -0.0454 C.ar      1 <0>         0.5169
     24 N5          8.0928   10.7675    0.0906 N.ar      1 <0>        -0.5864
     25 N6          9.1334   12.8715    0.1146 N.pl3     1 <0>        -0.8224
     26 N7          6.6855   14.1504   -0.4869 N.pl3     1 <0>         0.0537
     27 O1          5.7055   14.7345   -0.0869 O.2       1 <0>        -0.1487
     28 O2          7.5870   14.7669   -1.0055 O.3       1 <0>        -0.1849
     29 C18         5.8740   -0.0892    0.5605 C.cat     1 <0>         0.3950
     30 N8          4.9806   -0.9159    1.1051 N.pl3     1 <0>        -0.4886
     31 H1          4.1162   -0.6627    1.4651 H         1 <0>         0.4601
     32 C19         5.4875   -2.1654    1.0686 C.2       1 <0>         0.0211
     33 C20         6.7056   -2.0947    0.4935 C.2       1 <0>         0.0238
     34 N9          6.9330   -0.8032    0.1775 N.pl3     1 <0>        -0.4884
     35 H2          2.2105   -1.6239   -1.8242 H         1 <0>         0.1564
     36 H3          4.1942   -0.1979   -1.5430 H         1 <0>         0.1437
     37 H4          0.1024    0.7071    1.0640 H         1 <0>         0.1618
     38 H5          7.7832    1.8408    0.7881 H         1 <0>         0.1840
     39 H6          4.4160    5.7732   -0.2411 H         1 <0>         0.4278
     40 H7          6.8501    6.1556    1.1394 H         1 <0>         0.0904
     41 H8          7.2079    6.0076   -0.5980 H         1 <0>         0.0905
     42 H9          5.6143    7.8445   -1.0826 H         1 <0>         0.0829
     43 H10         5.2565    7.9925    0.6547 H         1 <0>         0.0830
     44 H11         8.0483    8.2269    0.2979 H         1 <0>         0.4141
     45 H12         4.9330    9.8683   -0.4738 H         1 <0>         0.1494
     46 H13         4.6991   12.3265   -0.7306 H         1 <0>         0.1591
     47 H14         9.0817   13.8292   -0.0306 H         1 <0>         0.4238
     48 H15         9.9756   12.4646    0.3715 H         1 <0>         0.4150
     49 H16         5.0056   -3.0602    1.4339 H         1 <0>         0.2285
     50 H17         7.3755   -2.9227    0.3146 H         1 <0>         0.2302
     51 H18         7.7297   -0.4541   -0.2518 H         1 <0>         0.4644
@<TRIPOS>BOND
     1    1    6 ar
     2    1    2 ar
     3    1   35 1
     4    2    3 ar
     5    2   36 1
     6    3    4 ar
     7    3    9 1
     8    4    5 ar
     9    4    8 1
    10    5    6 ar
    11    5   37 1
    12    6    7 1
    13    9   14 ar
    14    9   10 ar
    15   10   11 ar
    16   10   29 1
    17   11   12 ar
    18   11   38 1
    19   12   13 ar
    20   13   14 ar
    21   13   15 1
    22   15   16 1
    23   15   39 1
    24   16   17 1
    25   16   40 1
    26   16   41 1
    27   17   18 1
    28   17   42 1
    29   17   43 1
    30   18   19 1
    31   18   44 1
    32   19   24 ar
    33   19   20 ar
    34   20   21 ar
    35   20   45 1
    36   21   22 ar
    37   21   46 1
    38   22   23 ar
    39   22   26 1
    40   23   24 ar
    41   23   25 1
    42   25   47 1
    43   25   48 1
    44   26   27 2
    45   26   28 1
    46   29   34 2
    47   29   30 1
    48   30   31 1
    49   30   32 1
    50   32   33 2
    51   32   49 1
    52   33   34 1
    53   33   50 1
    54   34   51 1
@<TRIPOS>MOLECULE
ZINC05932684
   50    53     0     0     0
SMALL
USER_CHARGES
3-[3-[[(2S)-2,3-dihydroxypropyl]amino]phenyl]-4-(5-fluoro-1-methyl-indol-3-yl)pyrrole-2,5-dione
@<TRIPOS>ATOM
      1 C1          1.8520    4.5431    0.0093 C.3       1 <0>         0.0726
      2 N1          0.8716    3.4545    0.0123 N.pl3     1 <0>        -0.4693
      3 C2         -0.4742    3.6256    0.0261 C.2       1 <0>         0.1108
      4 C3         -1.0941    2.3952    0.0195 C.2       1 <0>        -0.1478
      5 C4         -0.0168    1.3885    0.0097 C.ar      1 <0>        -0.0457
      6 C5          1.1878    2.1100    0.0020 C.ar      1 <0>         0.0816
      7 C6          2.3956    1.4207   -0.0137 C.ar      1 <0>        -0.0897
      8 C7          2.4023    0.0424   -0.0211 C.ar      1 <0>        -0.1331
      9 C8          1.2107   -0.6707   -0.0131 C.ar      1 <0>         0.0833
     10 C9          0.0021   -0.0041    0.0020 C.ar      1 <0>        -0.1096
     11 F1          1.2344   -2.0214   -0.0206 F         1 <0>        -0.1388
     12 C10        -2.5397    2.1376    0.0230 C.2       1 <0>        -0.0174
     13 C11        -3.4166    2.2800   -1.0445 C.2       1 <0>        -0.0749
     14 C12        -4.7473    1.9011   -0.5367 C.2       1 <0>         0.5603
     15 O1         -5.7765    1.8987   -1.1830 O.2       1 <0>        -0.4467
     16 N2         -4.6360    1.5589    0.7576 N.am      1 <0>        -0.6894
     17 C13        -3.3599    1.6660    1.1659 C.2       1 <0>         0.5550
     18 O2         -2.9485    1.4209    2.2815 O.2       1 <0>        -0.4424
     19 C14        -3.0827    2.7229   -2.4137 C.ar      1 <0>         0.0137
     20 C15        -2.6250    4.0243   -2.6378 C.ar      1 <0>        -0.1476
     21 C16        -2.3089    4.4333   -3.9167 C.ar      1 <0>        -0.0706
     22 C17        -2.4532    3.5632   -4.9818 C.ar      1 <0>        -0.1871
     23 C18        -2.9132    2.2681   -4.7706 C.ar      1 <0>         0.2196
     24 C19        -3.2287    1.8450   -3.4888 C.ar      1 <0>        -0.1595
     25 N3         -3.0580    1.3936   -5.8502 N.pl3     1 <0>        -0.7407
     26 C20        -2.7246    1.8408   -7.2049 C.3       1 <0>         0.0967
     27 C21        -2.9706    0.6995   -8.1937 C.3       1 <0>         0.0964
     28 H1         -4.0196    0.4058   -8.1559 H         1 <0>         0.1125
     29 C22        -2.6224    1.1665   -9.6085 C.3       1 <0>         0.0474
     30 O3         -2.9614    0.1420  -10.5452 O.3       1 <0>        -0.5627
     31 O4         -2.1503   -0.4176   -7.8455 O.3       1 <0>        -0.5474
     32 H2          2.0857    4.8187   -1.0191 H         1 <0>         0.0769
     33 H3          1.4386    5.4058    0.5316 H         1 <0>         0.0888
     34 H4          2.7611    4.2147    0.5130 H         1 <0>         0.0861
     35 H5         -0.9814    4.5791    0.0355 H         1 <0>         0.1794
     36 H6          3.3282    1.9653   -0.0204 H         1 <0>         0.1325
     37 H7          3.3430   -0.4880   -0.0330 H         1 <0>         0.1410
     38 H8         -0.9241   -0.5595    0.0075 H         1 <0>         0.1323
     39 H9         -5.3732    1.2709    1.3184 H         1 <0>         0.4305
     40 H10        -2.5152    4.7084   -1.8094 H         1 <0>         0.1196
     41 H11        -1.9514    5.4381   -4.0874 H         1 <0>         0.1254
     42 H12        -2.2080    3.8907   -5.9813 H         1 <0>         0.1211
     43 H13        -3.5865    0.8396   -3.3228 H         1 <0>         0.1231
     44 H14        -3.3792    0.4903   -5.7030 H         1 <0>         0.4066
     45 H15        -3.3503    2.6929   -7.4705 H         1 <0>         0.0722
     46 H16        -1.6756    2.1345   -7.2427 H         1 <0>         0.0652
     47 H17        -3.1838    2.0715   -9.8408 H         1 <0>         0.0584
     48 H18        -1.5544    1.3757   -9.6695 H         1 <0>         0.0524
     49 H19        -2.7674    0.3699  -11.4648 H         1 <0>         0.3833
     50 H20        -1.2021   -0.2285   -7.8583 H         1 <0>         0.3759
@<TRIPOS>BOND
     1    1    2 1
     2    1   32 1
     3    1   33 1
     4    1   34 1
     5    2    6 1
     6    2    3 1
     7    3    4 2
     8    3   35 1
     9    4    5 1
    10    4   12 1
    11    5   10 ar
    12    5    6 ar
    13    6    7 ar
    14    7    8 ar
    15    7   36 1
    16    8    9 ar
    17    8   37 1
    18    9   10 ar
    19    9   11 1
    20   10   38 1
    21   12   17 1
    22   12   13 2
    23   13   14 1
    24   13   19 1
    25   14   15 2
    26   14   16 am
    27   16   17 am
    28   16   39 1
    29   17   18 2
    30   19   24 ar
    31   19   20 ar
    32   20   21 ar
    33   20   40 1
    34   21   22 ar
    35   21   41 1
    36   22   23 ar
    37   22   42 1
    38   23   24 ar
    39   23   25 1
    40   24   43 1
    41   25   26 1
    42   25   44 1
    43   26   27 1
    44   26   45 1
    45   26   46 1
    46   27   28 1
    47   27   29 1
    48   27   31 1
    49   29   30 1
    50   29   47 1
    51   29   48 1
    52   30   49 1
    53   31   50 1
@<TRIPOS>MOLECULE
ZINC12501080
   50    53     0     0     0
SMALL
USER_CHARGES
3-[3-[[(2R)-2,3-dihydroxypropyl]amino]phenyl]-4-(5-fluoro-1-methyl-indol-3-yl)pyrrole-2,5-dione
@<TRIPOS>ATOM
      1 C1          7.9960    8.6641    5.2309 C.3       1 <0>         0.0725
      2 N1          6.7497    9.1520    4.6353 N.pl3     1 <0>        -0.4693
      3 C2          6.6022    9.5111    3.3353 C.2       1 <0>         0.1109
      4 C3          5.3062    9.9245    3.1168 C.2       1 <0>        -0.1479
      5 C4          4.6061    9.7932    4.4078 C.ar      1 <0>        -0.0456
      6 C5          5.5586    9.3064    5.3175 C.ar      1 <0>         0.0816
      7 C6          5.1867    9.0788    6.6381 C.ar      1 <0>        -0.0896
      8 C7          3.8932    9.3299    7.0426 C.ar      1 <0>        -0.1332
      9 C8          2.9516    9.8113    6.1425 C.ar      1 <0>         0.0831
     10 C9          3.3022   10.0438    4.8279 C.ar      1 <0>        -0.1098
     11 F1          1.6878   10.0524    6.5549 F         1 <0>        -0.1389
     12 C10         4.7345   10.3959    1.8492 C.2       1 <0>        -0.0174
     13 C11         4.3897    9.6221    0.7487 C.2       1 <0>        -0.0750
     14 C12         3.8564   10.5555   -0.2594 C.2       1 <0>         0.5602
     15 O1          3.4446   10.2476   -1.3606 O.2       1 <0>        -0.4463
     16 N2          3.8999   11.8025    0.2386 N.am      1 <0>        -0.6894
     17 C13         4.4103   11.7964    1.4819 C.2       1 <0>         0.5551
     18 O2          4.5743   12.7713    2.1867 O.2       1 <0>        -0.4425
     19 C14         4.5245    8.1568    0.6175 C.ar      1 <0>         0.0137
     20 C15         5.7914    7.5666    0.6147 C.ar      1 <0>        -0.1477
     21 C16         5.9142    6.1981    0.4924 C.ar      1 <0>        -0.0706
     22 C17         4.7870    5.4053    0.3777 C.ar      1 <0>        -0.1870
     23 C18         3.5222    5.9828    0.3740 C.ar      1 <0>         0.2196
     24 C19         3.3872    7.3570    0.4963 C.ar      1 <0>        -0.1595
     25 N3          2.3871    5.1776    0.2529 N.pl3     1 <0>        -0.7410
     26 C20         2.5297    3.7253    0.1236 C.3       1 <0>         0.0972
     27 C21         1.1449    3.0852    0.0077 C.3       1 <0>         0.0964
     28 H1          0.5324    3.3879    0.8570 H         1 <0>         0.1122
     29 C22         1.2864    1.5618   -0.0018 C.3       1 <0>         0.0474
     30 O3         -0.0110    0.9628    0.0073 O.3       1 <0>        -0.5628
     31 O4          0.5223    3.5133   -1.2052 O.3       1 <0>        -0.5475
     32 H2          8.0425    7.5790    5.1383 H         1 <0>         0.0768
     33 H3          8.8452    9.1096    4.7126 H         1 <0>         0.0889
     34 H4          8.0278    8.9405    6.2848 H         1 <0>         0.0863
     35 H5          7.3811    9.4801    2.5878 H         1 <0>         0.1794
     36 H6          5.9110    8.7045    7.3464 H         1 <0>         0.1325
     37 H7          3.6094    9.1511    8.0692 H         1 <0>         0.1410
     38 H8          2.5690   10.4178    4.1286 H         1 <0>         0.1323
     39 H9          3.6042   12.5966   -0.2335 H         1 <0>         0.4306
     40 H10         6.6741    8.1818    0.7086 H         1 <0>         0.1196
     41 H11         6.8941    5.7438    0.4905 H         1 <0>         0.1255
     42 H12         4.8896    4.3340    0.2864 H         1 <0>         0.1211
     43 H13         2.4055    7.8070    0.4981 H         1 <0>         0.1231
     44 H14         1.5046    5.5800    0.2544 H         1 <0>         0.4060
     45 H15         3.0400    3.3307    1.0023 H         1 <0>         0.0714
     46 H16         3.1121    3.4953   -0.7686 H         1 <0>         0.0663
     47 H17         1.8401    1.2428    0.8812 H         1 <0>         0.0582
     48 H18         1.8231    1.2523   -0.8987 H         1 <0>         0.0528
     49 H19         0.0021   -0.0041    0.0020 H         1 <0>         0.3833
     50 H20         1.0134    3.2774   -2.0040 H         1 <0>         0.3762
@<TRIPOS>BOND
     1    1    2 1
     2    1   32 1
     3    1   33 1
     4    1   34 1
     5    2    6 1
     6    2    3 1
     7    3    4 2
     8    3   35 1
     9    4    5 1
    10    4   12 1
    11    5   10 ar
    12    5    6 ar
    13    6    7 ar
    14    7    8 ar
    15    7   36 1
    16    8    9 ar
    17    8   37 1
    18    9   10 ar
    19    9   11 1
    20   10   38 1
    21   12   17 1
    22   12   13 2
    23   13   14 1
    24   13   19 1
    25   14   15 2
    26   14   16 am
    27   16   17 am
    28   16   39 1
    29   17   18 2
    30   19   24 ar
    31   19   20 ar
    32   20   21 ar
    33   20   40 1
    34   21   22 ar
    35   21   41 1
    36   22   23 ar
    37   22   42 1
    38   23   24 ar
    39   23   25 1
    40   24   43 1
    41   25   26 1
    42   25   44 1
    43   26   27 1
    44   26   45 1
    45   26   46 1
    46   27   28 1
    47   27   29 1
    48   27   31 1
    49   29   30 1
    50   29   47 1
    51   29   48 1
    52   30   49 1
    53   31   50 1
@<TRIPOS>MOLECULE
ZINC18230030
   32    35     0     0     0
SMALL
USER_CHARGES

@<TRIPOS>ATOM
      1 C1         -0.0024    1.3636   -0.3852 C.ar      1 <0>        -0.1425
      2 C2          1.1843    2.0764   -0.3355 C.ar      1 <0>        -0.0866
      3 C3          2.3918    1.4233   -0.1939 C.ar      1 <0>        -0.1380
      4 C4          2.4281    0.0365   -0.0988 C.ar      1 <0>         0.1367
      5 C5          1.2250   -0.6816   -0.1490 C.ar      1 <0>        -0.0800
      6 C6          0.0127   -0.0131   -0.2925 C.ar      1 <0>        -0.0826
      7 C7          1.5867   -2.1097   -0.0238 C.2       1 <0>        -0.2056
      8 C8          0.7284   -3.2007   -0.0213 C.2       1 <0>         0.2986
      9 C9         -0.7457   -3.1540    0.0907 C.2       1 <0>         0.1829
     10 N1         -1.5003   -2.0946    0.2062 N.2       1 <0>        -0.2631
     11 O1         -2.9062   -2.2339    0.3026 O.3       1 <0>        -0.3834
     12 C10        -1.1809   -4.5701    0.0427 C.ar      1 <0>        -0.1642
     13 C11        -2.4307   -5.1782    0.1013 C.ar      1 <0>        -0.0259
     14 C12        -2.5280   -6.5532    0.0311 C.ar      1 <0>        -0.1512
     15 C13        -1.3849   -7.3243   -0.0969 C.ar      1 <0>        -0.0586
     16 C14        -0.1407   -6.7311   -0.1555 C.ar      1 <0>        -0.1447
     17 C15        -0.0228   -5.3458   -0.0871 C.ar      1 <0>         0.1647
     18 N2          1.0909   -4.5168   -0.1279 N.pl3     1 <0>        -0.6175
     19 C16         3.0493   -2.1247    0.0967 C.2       1 <0>         0.5684
     20 O2          3.7472   -3.1157    0.2192 O.2       1 <0>        -0.5230
     21 N3          3.4842   -0.8541    0.0471 N.am      1 <0>        -0.6490
     22 H1         -0.9413    1.8865   -0.4922 H         1 <0>         0.1273
     23 H2          1.1645    3.1537   -0.4088 H         1 <0>         0.1294
     24 H3          3.3103    1.9903   -0.1572 H         1 <0>         0.1266
     25 H4         -0.9122   -0.5695   -0.3311 H         1 <0>         0.1639
     26 H5         -3.3798   -1.3948    0.3850 H         1 <0>         0.4132
     27 H6         -3.3218   -4.5764    0.2018 H         1 <0>         0.1385
     28 H7         -3.4969   -7.0283    0.0763 H         1 <0>         0.1358
     29 H8         -1.4681   -8.3998   -0.1510 H         1 <0>         0.1377
     30 H9          0.7438   -7.3428   -0.2549 H         1 <0>         0.1344
     31 H10         2.0048   -4.8291   -0.2181 H         1 <0>         0.4389
     32 H11         4.4164   -0.5923    0.1057 H         1 <0>         0.4189
@<TRIPOS>BOND
     1    1    6 ar
     2    1    2 ar
     3    1   22 1
     4    2    3 ar
     5    2   23 1
     6    3    4 ar
     7    3   24 1
     8    4   21 1
     9    4    5 ar
    10    5    6 ar
    11    5    7 1
    12    6   25 1
    13    7    8 2
    14    7   19 1
    15    8   18 1
    16    8    9 1
    17    9   10 2
    18    9   12 1
    19   10   11 1
    20   11   26 1
    21   12   17 ar
    22   12   13 ar
    23   13   14 ar
    24   13   27 1
    25   14   15 ar
    26   14   28 1
    27   15   16 ar
    28   15   29 1
    29   16   17 ar
    30   16   30 1
    31   17   18 1
    32   18   31 1
    33   19   20 2
    34   19   21 am
    35   21   32 1
@<TRIPOS>MOLECULE
ZINC18230030
   32    35     0     0     0
SMALL
USER_CHARGES

@<TRIPOS>ATOM
      1 C1         -0.0166    1.3748    0.0096 C.ar      1 <0>        -0.1225
      2 C2          1.1716    2.0888    0.0021 C.ar      1 <0>        -0.0962
      3 C3          2.3849    1.4332   -0.0130 C.ar      1 <0>        -0.1155
      4 C4          2.4239    0.0437   -0.0209 C.ar      1 <0>         0.0981
      5 C5          1.2204   -0.6769   -0.0133 C.ar      1 <0>        -0.0528
      6 C6          0.0021   -0.0041    0.0020 C.ar      1 <0>        -0.0805
      7 C7          1.5974   -2.1049   -0.0246 C.2       1 <0>        -0.2093
      8 C8          2.9936   -2.1364   -0.0381 C.2       1 <0>         0.3333
      9 N1          3.4675   -0.8669   -0.0358 N.pl3     1 <0>        -0.5789
     10 H1          4.4078   -0.6287   -0.0438 H         1 <0>         0.4230
     11 O1          3.7505   -3.2537   -0.0509 O.3       1 <0>        -0.4537
     12 C9          0.7262   -3.2100   -0.0222 C.2       1 <0>         0.3448
     13 C10         0.1967   -3.8930    1.1657 C.2       1 <0>        -0.1671
     14 C11        -0.6625   -4.9778    0.6376 C.ar      1 <0>        -0.0626
     15 C12        -1.4332   -5.9613    1.2492 C.ar      1 <0>        -0.0741
     16 C13        -2.1438   -6.8553    0.4745 C.ar      1 <0>        -0.1171
     17 C14        -2.0895   -6.7734   -0.9072 C.ar      1 <0>        -0.1048
     18 C15        -1.3281   -5.8025   -1.5238 C.ar      1 <0>        -0.1132
     19 C16        -0.6049   -4.8915   -0.7591 C.ar      1 <0>         0.0632
     20 N2          0.2180   -3.8346   -1.1211 N.pl3     1 <0>        -0.5424
     21 H2          0.4086   -3.5762   -2.0364 H         1 <0>         0.4251
     22 N3          0.4346   -3.6041    2.4257 N.2       1 <0>        -0.2807
     23 O2         -0.0801   -4.2653    3.3097 O.2       1 <0>         0.0258
     24 H3         -0.9601    1.9001    0.0260 H         1 <0>         0.1313
     25 H4          1.1469    3.1685    0.0078 H         1 <0>         0.1340
     26 H5          3.3046    1.9993   -0.0191 H         1 <0>         0.1285
     27 H6         -0.9243   -0.5592    0.0083 H         1 <0>         0.1229
     28 H7          3.9627   -3.5749   -0.9380 H         1 <0>         0.4047
     29 H8         -1.4750   -6.0251    2.3265 H         1 <0>         0.1455
     30 H9         -2.7428   -7.6202    0.9462 H         1 <0>         0.1335
     31 H10        -2.6482   -7.4764   -1.5072 H         1 <0>         0.1325
     32 H11        -1.2933   -5.7487   -2.6019 H         1 <0>         0.1251
@<TRIPOS>BOND
     1    1    6 ar
     2    1    2 ar
     3    1   24 1
     4    2    3 ar
     5    2   25 1
     6    3    4 ar
     7    3   26 1
     8    4    9 1
     9    4    5 ar
    10    5    6 ar
    11    5    7 1
    12    6   27 1
    13    7    8 2
    14    7   12 1
    15    8    9 1
    16    8   11 1
    17    9   10 1
    18   11   28 1
    19   12   20 1
    20   12   13 2
    21   13   14 1
    22   13   22 1
    23   14   19 ar
    24   14   15 ar
    25   15   16 ar
    26   15   29 1
    27   16   17 ar
    28   16   30 1
    29   17   18 ar
    30   17   31 1
    31   18   19 ar
    32   18   32 1
    33   19   20 1
    34   20   21 1
    35   22   23 2
@<TRIPOS>MOLECULE
ZINC18230030
   32    35     0     0     0
SMALL
USER_CHARGES

@<TRIPOS>ATOM
      1 C1         -0.0166    1.3757    0.0096 C.ar      1 <0>        -0.1357
      2 C2          1.1722    2.0867    0.0021 C.ar      1 <0>        -0.0871
      3 C3          2.3853    1.4289   -0.0135 C.ar      1 <0>        -0.1330
      4 C4          2.4252    0.0389   -0.0214 C.ar      1 <0>         0.1465
      5 C5          1.2200   -0.6774   -0.0133 C.ar      1 <0>        -0.0875
      6 C6          0.0021   -0.0041    0.0020 C.ar      1 <0>        -0.0793
      7 C7          1.5867   -2.1097   -0.0238 C.2       1 <0>        -0.2136
      8 C8          0.7284   -3.2007   -0.0213 C.2       1 <0>         0.3077
      9 C9          1.1246   -4.6257   -0.0260 C.2       1 <0>         0.1435
     10 N1          2.3359   -5.1133   -0.0337 N.2       1 <0>        -0.2047
     11 O1          2.5348   -6.5152   -0.0374 O.3       1 <0>        -0.3879
     12 C10        -0.1511   -5.3804   -0.0197 C.ar      1 <0>        -0.1524
     13 C11        -0.4460   -6.7399   -0.0207 C.ar      1 <0>        -0.0325
     14 C12        -1.7620   -7.1560   -0.0139 C.ar      1 <0>        -0.1476
     15 C13        -2.7850   -6.2226   -0.0067 C.ar      1 <0>        -0.0650
     16 C14        -2.5032   -4.8720   -0.0061 C.ar      1 <0>        -0.1436
     17 C15        -1.1821   -4.4335   -0.0119 C.ar      1 <0>         0.1573
     18 N2         -0.6401   -3.1547   -0.0078 N.pl3     1 <0>        -0.6231
     19 C16         3.0542   -2.1288   -0.0380 C.2       1 <0>         0.5661
     20 O2          3.7569   -3.1240   -0.0505 O.2       1 <0>        -0.4814
     21 N3          3.4872   -0.8566   -0.0360 N.am      1 <0>        -0.6546
     22 H1         -0.9596    1.9020    0.0260 H         1 <0>         0.1299
     23 H2          1.1495    3.1665    0.0081 H         1 <0>         0.1317
     24 H3          3.3053    1.9946   -0.0200 H         1 <0>         0.1287
     25 H4         -0.9244   -0.5591    0.0079 H         1 <0>         0.1145
     26 H5          3.4646   -6.7806   -0.0431 H         1 <0>         0.4151
     27 H6          0.3522   -7.4674   -0.0270 H         1 <0>         0.1376
     28 H7         -1.9942   -8.2107   -0.0147 H         1 <0>         0.1348
     29 H8         -3.8126   -6.5549   -0.0018 H         1 <0>         0.1367
     30 H9         -3.3094   -4.1534   -0.0008 H         1 <0>         0.1326
     31 H10        -1.1620   -2.3371    0.0014 H         1 <0>         0.4278
     32 H11         4.4217   -0.5969   -0.0438 H         1 <0>         0.4186
@<TRIPOS>BOND
     1    1    6 ar
     2    1    2 ar
     3    1   22 1
     4    2    3 ar
     5    2   23 1
     6    3    4 ar
     7    3   24 1
     8    4   21 1
     9    4    5 ar
    10    5    6 ar
    11    5    7 1
    12    6   25 1
    13    7    8 2
    14    7   19 1
    15    8   18 1
    16    8    9 1
    17    9   10 2
    18    9   12 1
    19   10   11 1
    20   11   26 1
    21   12   17 ar
    22   12   13 ar
    23   13   14 ar
    24   13   27 1
    25   14   15 ar
    26   14   28 1
    27   15   16 ar
    28   15   29 1
    29   16   17 ar
    30   16   30 1
    31   17   18 1
    32   18   31 1
    33   19   20 2
    34   19   21 am
    35   21   32 1
@<TRIPOS>MOLECULE
ZINC03814434
   62    69     0     0     0
SMALL
USER_CHARGES

@<TRIPOS>ATOM
      1 C1         -0.1295    1.5952   -0.2973 C.3       1 <0>        -0.1687
      2 C2         -0.0862    0.0696   -0.1900 C.3       1 <0>         0.3342
      3 C3          0.5692   -0.4501   -1.4637 C.3       1 <0>         0.0405
      4 H1          1.4796    0.1159   -1.6612 H         1 <0>         0.1372
      5 C4          0.9167   -1.9328   -1.2889 C.3       1 <0>        -0.0061
      6 H2          1.3963   -2.3075   -2.1932 H         1 <0>         0.1555
      7 C5          1.8785   -2.0596   -0.1021 C.3       1 <0>        -0.1827
      8 C6          1.2061   -1.5198    1.1541 C.3       1 <0>         0.2999
      9 H3          1.9797   -1.4243    1.9161 H         1 <0>         0.1550
     10 O1          0.6555   -0.2442    0.9666 O.3       1 <0>        -0.3234
     11 N1          0.2189   -2.4746    1.6600 N.pl3     1 <0>        -0.5366
     12 C7          0.4705   -3.5508    2.4739 C.ar      1 <0>         0.1469
     13 C8          1.6649   -4.0152    3.0240 C.ar      1 <0>        -0.1522
     14 C9          1.5948   -5.1456    3.8201 C.ar      1 <0>        -0.0582
     15 C10         0.4006   -5.7997    4.0696 C.ar      1 <0>        -0.1457
     16 C11        -0.7984   -5.3597    3.5358 C.ar      1 <0>        -0.0280
     17 C12        -0.7487   -4.2198    2.7307 C.ar      1 <0>        -0.1131
     18 C13        -1.7893   -3.4830    2.0197 C.ar      1 <0>         0.0276
     19 C14        -1.1442   -2.4197    1.3841 C.ar      1 <0>         0.0376
     20 C15        -1.8806   -1.5095    0.6175 C.ar      1 <0>         0.0894
     21 N2         -1.4718   -0.3951   -0.1095 N.pl3     1 <0>        -0.5183
     22 C16        -2.5611    0.1913   -0.7090 C.ar      1 <0>         0.1618
     23 C17        -2.6521    1.3277   -1.5118 C.ar      1 <0>        -0.1305
     24 C18        -3.9109    1.6745   -1.9733 C.ar      1 <0>        -0.0737
     25 C19        -5.0393    0.9368   -1.6616 C.ar      1 <0>        -0.1358
     26 C20        -4.9745   -0.1955   -0.8662 C.ar      1 <0>        -0.0503
     27 C21        -3.7147   -0.5596   -0.3919 C.ar      1 <0>        -0.1042
     28 C22        -3.2693   -1.6660    0.4845 C.ar      1 <0>        -0.0360
     29 C23        -3.9084   -2.7313    1.1102 C.ar      1 <0>        -0.0288
     30 C24        -3.1873   -3.6421    1.8754 C.ar      1 <0>        -0.1255
     31 C25        -4.1221   -4.6480    2.4030 C.2       1 <0>         0.5632
     32 O2         -3.8062   -5.5851    3.1110 O.2       1 <0>        -0.5106
     33 N3         -5.3744   -4.3851    1.9926 N.am      1 <0>        -0.7162
     34 C26        -5.3495   -3.1771    1.1601 C.3       1 <0>         0.1358
     35 N4         -0.3067   -2.7008   -1.0216 N.4       1 <0>        -0.5252
     36 C27         0.0145   -4.1336   -0.9773 C.3       1 <0>        -0.0497
     37 O3         -0.3340   -0.2979   -2.5607 O.3       1 <0>        -0.3614
     38 C28         0.3101   -0.0933   -3.8198 C.3       1 <0>         0.0162
     39 H4          0.8261    2.0094    0.0240 H         1 <0>         0.0984
     40 H5         -0.3202    1.8814   -1.3317 H         1 <0>         0.1036
     41 H6         -0.9255    1.9818    0.3392 H         1 <0>         0.0921
     42 H7          2.1370   -3.1081    0.0458 H         1 <0>         0.1233
     43 H8          2.7835   -1.4869   -0.3048 H         1 <0>         0.1455
     44 H9          2.6036   -3.5149    2.8368 H         1 <0>         0.1365
     45 H10         2.5026   -5.5304    4.2610 H         1 <0>         0.1359
     46 H11         0.4045   -6.6780    4.6980 H         1 <0>         0.1352
     47 H12        -1.7278   -5.8736    3.7323 H         1 <0>         0.1600
     48 H13        -1.7792    1.9122   -1.7624 H         1 <0>         0.1440
     49 H14        -4.0153    2.5500   -2.5970 H         1 <0>         0.1336
     50 H15        -5.9967    1.2527   -2.0488 H         1 <0>         0.1332
     51 H16        -5.8575   -0.7687   -0.6249 H         1 <0>         0.1415
     52 H17        -6.1628   -4.9065    2.2103 H         1 <0>         0.4348
     53 H18        -5.9671   -2.3994    1.6094 H         1 <0>         0.1115
     54 H19        -5.7060   -3.4063    0.1559 H         1 <0>         0.1103
     55 H20        -0.6958   -2.4158   -0.1353 H         1 <0>         0.4186
     56 H21         0.4349   -4.4415   -1.9347 H         1 <0>         0.1256
     57 H22         0.7403   -4.3189   -0.1854 H         1 <0>         0.1191
     58 H23        -0.8932   -4.7035   -0.7789 H         1 <0>         0.1256
     59 H24         0.9168    0.8112   -3.7748 H         1 <0>         0.0633
     60 H25         0.9482   -0.9479   -4.0446 H         1 <0>         0.0514
     61 H26        -0.4433    0.0130   -4.6003 H         1 <0>         0.1100
     62 H27        -0.9785   -2.5293   -1.7546 H         1 <0>         0.4274
@<TRIPOS>BOND
     1    1    2 1
     2    1   39 1
     3    1   40 1
     4    1   41 1
     5    2   10 1
     6    2   21 1
     7    2    3 1
     8    3    4 1
     9    3    5 1
    10    3   37 1
    11    5    6 1
    12    5    7 1
    13    5   35 1
    14    7    8 1
    15    7   42 1
    16    7   43 1
    17    8    9 1
    18    8   10 1
    19    8   11 1
    20   11   19 1
    21   11   12 1
    22   12   17 ar
    23   12   13 ar
    24   13   14 ar
    25   13   44 1
    26   14   15 ar
    27   14   45 1
    28   15   16 ar
    29   15   46 1
    30   16   17 ar
    31   16   47 1
    32   17   18 1
    33   18   30 ar
    34   18   19 ar
    35   19   20 ar
    36   20   28 ar
    37   20   21 1
    38   21   22 1
    39   22   27 ar
    40   22   23 ar
    41   23   24 ar
    42   23   48 1
    43   24   25 ar
    44   24   49 1
    45   25   26 ar
    46   25   50 1
    47   26   27 ar
    48   26   51 1
    49   27   28 1
    50   28   29 ar
    51   29   34 1
    52   29   30 ar
    53   30   31 1
    54   31   32 2
    55   31   33 am
    56   33   34 1
    57   33   52 1
    58   34   53 1
    59   34   54 1
    60   35   36 1
    61   35   55 1
    62   35   62 1
    63   36   56 1
    64   36   57 1
    65   36   58 1
    66   37   38 1
    67   38   59 1
    68   38   60 1
    69   38   61 1
@<TRIPOS>MOLECULE
ZINC14852066
   48    49     0     0     0
SMALL
USER_CHARGES

@<TRIPOS>ATOM
      1 C1         -0.0187    1.5258    0.0104 C.3       1 <0>        -0.1902
      2 C2          0.0021   -0.0041    0.0020 C.3       1 <0>         0.1099
      3 H1         -1.0213   -0.3792    0.0098 H         1 <0>         0.1225
      4 C3          0.7117   -0.4941   -1.2603 C.3       1 <0>        -0.1315
      5 C4          1.3803    0.6570   -1.9583 C.2       1 <0>        -0.0692
      6 C5          2.7017    0.8181   -1.8493 C.2       1 <0>        -0.2242
      7 C6          3.3680    1.9252   -2.5435 C.2       1 <0>         0.3696
      8 O1          2.7115    2.7060   -3.2003 O.2       1 <0>        -0.4479
      9 C7          4.8559    2.0998   -2.4470 C.3       1 <0>         0.0704
     10 H2          5.3262    1.1283   -2.2950 H         1 <0>         0.0907
     11 C8          5.1895    3.0179   -1.2680 C.3       1 <0>         0.1256
     12 H3          5.7479    3.8823   -1.6273 H         1 <0>         0.0798
     13 C9          6.0360    2.2514   -0.2480 C.3       1 <0>        -0.1248
     14 C10         5.2825    2.1507    1.0538 C.2       1 <0>        -0.1283
     15 C11         4.6042    1.0526    1.3362 C.2       1 <0>        -0.1087
     16 C12         3.8388    0.8902    2.5804 C.ar      1 <0>         0.0721
     17 C13         4.3861    1.3164    3.7898 C.ar      1 <0>        -0.1728
     18 C14         3.6817    1.1455    4.9738 C.ar      1 <0>         0.1859
     19 C15         2.4255    0.5534    4.9682 C.ar      1 <0>        -0.2571
     20 C16         1.8630    0.1324    3.7761 C.ar      1 <0>         0.2113
     21 C17         2.5606    0.2946    2.5690 C.ar      1 <0>        -0.2000
     22 C18         1.9781   -0.1421    1.2956 C.2       1 <0>         0.5268
     23 O2          2.6973   -0.2041    0.3174 O.2       1 <0>        -0.4835
     24 O3          0.6878   -0.4748    1.1642 O.3       1 <0>        -0.3491
     25 O4          0.6328   -0.4392    3.7740 O.3       1 <0>        -0.4807
     26 O5          4.2252    1.5601    6.1463 O.3       1 <0>        -0.3078
     27 C19         3.4497    1.3557    7.3291 C.3       1 <0>         0.0221
     28 O6          3.9788    3.4568   -0.6486 O.3       1 <0>        -0.5534
     29 O7          5.3461    2.6819   -3.6565 O.3       1 <0>        -0.5470
     30 H4          1.0039    1.9031    0.0027 H         1 <0>         0.0708
     31 H5         -0.5459    1.8868   -0.8726 H         1 <0>         0.0797
     32 H6         -0.5289    1.8773    0.9072 H         1 <0>         0.0648
     33 H7          1.4619   -1.2365   -0.9879 H         1 <0>         0.1008
     34 H8         -0.0172   -0.9492   -1.9309 H         1 <0>         0.0831
     35 H9          0.7985    1.3591   -2.5388 H         1 <0>         0.1164
     36 H10         3.2734    0.1369   -1.2412 H         1 <0>         0.1643
     37 H11         6.2432    1.2504   -0.6265 H         1 <0>         0.0830
     38 H12         6.9752    2.7800   -0.0845 H         1 <0>         0.0857
     39 H13         5.2989    2.9862    1.7379 H         1 <0>         0.1128
     40 H14         4.6552    0.2260    0.6308 H         1 <0>         0.1420
     41 H15         5.3612    1.7805    3.8056 H         1 <0>         0.1441
     42 H16         1.8873    0.4210    5.8951 H         1 <0>         0.1447
     43 H17        -0.0933    0.1904    3.6668 H         1 <0>         0.4007
     44 H18         2.5035    1.8894    7.2399 H         1 <0>         0.0607
     45 H19         3.2556    0.2907    7.4566 H         1 <0>         0.0615
     46 H20         3.9986    1.7309    8.1928 H         1 <0>         0.1065
     47 H21         4.1144    4.0435    0.1081 H         1 <0>         0.3819
     48 H22         5.1714    2.1527   -4.4467 H         1 <0>         0.3861
@<TRIPOS>BOND
     1    1    2 1
     2    1   30 1
     3    1   31 1
     4    1   32 1
     5    2    3 1
     6    2   24 1
     7    2    4 1
     8    4    5 1
     9    4   33 1
    10    4   34 1
    11    5    6 2
    12    5   35 1
    13    6    7 1
    14    6   36 1
    15    7    8 2
    16    7    9 1
    17    9   10 1
    18    9   11 1
    19    9   29 1
    20   11   12 1
    21   11   13 1
    22   11   28 1
    23   13   14 1
    24   13   37 1
    25   13   38 1
    26   14   15 2
    27   14   39 1
    28   15   16 1
    29   15   40 1
    30   16   21 ar
    31   16   17 ar
    32   17   18 ar
    33   17   41 1
    34   18   19 ar
    35   18   26 1
    36   19   20 ar
    37   19   42 1
    38   20   21 ar
    39   20   25 1
    40   21   22 1
    41   22   23 2
    42   22   24 1
    43   25   43 1
    44   26   27 1
    45   27   44 1
    46   27   45 1
    47   27   46 1
    48   28   47 1
    49   29   48 1
@<TRIPOS>MOLECULE
ZINC14852066
   48    49     0     0     0
SMALL
USER_CHARGES

@<TRIPOS>ATOM
      1 C1         -0.0187    1.5258    0.0104 C.3       1 <0>        -0.1782
      2 C2          0.0021   -0.0041    0.0020 C.3       1 <0>         0.1059
      3 H1         -1.0202   -0.3821    0.0097 H         1 <0>         0.1065
      4 C3          0.7214   -0.4993   -1.2571 C.3       1 <0>        -0.2337
      5 C4          0.9926    0.6676   -2.1719 C.2       1 <0>        -0.0239
      6 C5          2.2327    0.8804   -2.6274 C.2       1 <0>        -0.2524
      7 C6          3.3216   -0.0106   -2.2391 C.2       1 <0>         0.3565
      8 O1          3.0972   -0.9579   -1.5151 O.2       1 <0>        -0.3921
      9 C7          4.7243    0.2403   -2.7329 C.3       1 <0>         0.0775
     10 H2          4.6903    0.5739   -3.7700 H         1 <0>         0.0902
     11 C8          5.5353   -1.0528   -2.6394 C.3       1 <0>         0.1183
     12 H3          4.8562   -1.9036   -2.5842 H         1 <0>         0.0767
     13 C9          6.4150   -1.0217   -1.3875 C.3       1 <0>        -0.1211
     14 C10         5.7492   -1.8245   -0.2972 C.2       1 <0>        -0.1407
     15 C11         4.7118   -1.3199    0.3472 C.2       1 <0>        -0.1201
     16 C12         4.0408   -2.0709    1.4214 C.ar      1 <0>         0.0738
     17 C13         4.7005   -3.0796    2.1095 C.ar      1 <0>        -0.1758
     18 C14         4.0463   -3.7677    3.1229 C.ar      1 <0>         0.1867
     19 C15         2.7421   -3.4458    3.4552 C.ar      1 <0>        -0.2633
     20 C16         2.0660   -2.4427    2.7907 C.ar      1 <0>         0.2133
     21 C17         2.7063   -1.7502    1.7571 C.ar      1 <0>        -0.2009
     22 C18         2.0150   -0.7034    1.0028 C.2       1 <0>         0.5163
     23 O2          2.6441   -0.0218    0.2169 O.2       1 <0>        -0.4694
     24 O3          0.6975   -0.4800    1.1622 O.3       1 <0>        -0.3396
     25 O4          0.7918   -2.1312    3.1363 O.3       1 <0>        -0.4793
     26 O5          4.6885   -4.7601    3.7898 O.3       1 <0>        -0.3082
     27 C19         3.9578   -5.4273    4.8208 C.3       1 <0>         0.0226
     28 O6          6.3629   -1.1796   -3.7975 O.3       1 <0>        -0.5677
     29 O7          5.3395    1.2482   -1.9281 O.3       1 <0>        -0.5329
     30 H4          1.0039    1.9031    0.0027 H         1 <0>         0.0702
     31 H5         -0.5459    1.8868   -0.8726 H         1 <0>         0.0718
     32 H6         -0.5289    1.8773    0.9072 H         1 <0>         0.0632
     33 H7          1.6646   -0.9678   -0.9763 H         1 <0>         0.1854
     34 H8          0.0935   -1.2264   -1.7721 H         1 <0>         0.0805
     35 H9          0.1918    1.3244   -2.4742 H         1 <0>         0.1212
     36 H10         2.4263    1.7062   -3.2931 H         1 <0>         0.1283
     37 H11         7.3892   -1.4544   -1.6156 H         1 <0>         0.0742
     38 H12         6.5412    0.0090   -1.0560 H         1 <0>         0.1072
     39 H13         6.1067   -2.8144   -0.0623 H         1 <0>         0.1057
     40 H14         4.3547   -0.3298    0.0969 H         1 <0>         0.1711
     41 H15         5.7205   -3.3292    1.8570 H         1 <0>         0.1430
     42 H16         2.2456   -3.9881    4.2463 H         1 <0>         0.1411
     43 H17         0.7249   -1.4505    3.8198 H         1 <0>         0.3997
     44 H18         3.6630   -4.7055    5.5826 H         1 <0>         0.0602
     45 H19         3.0675   -5.8894    4.3943 H         1 <0>         0.0606
     46 H20         4.5854   -6.1958    5.2719 H         1 <0>         0.1057
     47 H21         6.9070   -1.9789   -3.8064 H         1 <0>         0.3845
     48 H22         4.8770    2.0973   -1.9394 H         1 <0>         0.3814
@<TRIPOS>BOND
     1    1    2 1
     2    1   30 1
     3    1   31 1
     4    1   32 1
     5    2    3 1
     6    2   24 1
     7    2    4 1
     8    4    5 1
     9    4   33 1
    10    4   34 1
    11    5    6 2
    12    5   35 1
    13    6    7 1
    14    6   36 1
    15    7    8 2
    16    7    9 1
    17    9   10 1
    18    9   11 1
    19    9   29 1
    20   11   12 1
    21   11   13 1
    22   11   28 1
    23   13   14 1
    24   13   37 1
    25   13   38 1
    26   14   15 2
    27   14   39 1
    28   15   16 1
    29   15   40 1
    30   16   21 ar
    31   16   17 ar
    32   17   18 ar
    33   17   41 1
    34   18   19 ar
    35   18   26 1
    36   19   20 ar
    37   19   42 1
    38   20   21 ar
    39   20   25 1
    40   21   22 1
    41   22   23 2
    42   22   24 1
    43   25   43 1
    44   26   27 1
    45   27   44 1
    46   27   45 1
    47   27   46 1
    48   28   47 1
    49   29   48 1
@<TRIPOS>MOLECULE
ZINC13409856
   30    33     0     0     0
SMALL
NO_CHARGES

@<TRIPOS>ATOM
      1 C1         -0.0167    1.3793    0.0096 C.ar      1 <0>        -0.1077
      2 C2          1.1748    2.0838    0.0020 C.ar      1 <0>        -0.0346
      3 C3          2.3729    1.4065   -0.0130 C.ar      1 <0>        -0.1170
      4 C4          2.4055    0.0174   -0.0208 C.ar      1 <0>         0.1564
      5 C5          1.2028   -0.6855   -0.0127 C.ar      1 <0>        -0.1110
      6 C6          0.0021   -0.0041    0.0020 C.ar      1 <0>        -0.0512
      7 Br1        -1.6255   -0.9667    0.0124 Br        1 <0>        -0.0335
      8 N1          3.7257   -0.4339   -0.0363 N.am      1 <0>        -0.6529
      9 C7          4.6095    0.5782   -0.0396 C.2       1 <0>         0.5410
     10 O1          5.8182    0.4791   -0.0521 O.2       1 <0>        -0.4698
     11 C8          3.8129    1.8656   -0.0248 C.3       1 <0>        -0.0160
     12 C9          4.0982    2.6773   -1.2621 C.2       1 <0>         0.1281
     13 C10         5.3772    3.3781   -1.5705 C.2       1 <0>         0.3932
     14 O2          6.3872    3.4190   -0.8998 O.2       1 <0>        -0.3547
     15 C11         5.1285    4.0152   -2.8915 C.ar      1 <0>        -0.2043
     16 C12         5.8883    4.8007   -3.7353 C.ar      1 <0>        -0.0239
     17 C13         5.3461    5.2487   -4.9365 C.ar      1 <0>        -0.0817
     18 C14         4.0544    4.9079   -5.2801 C.ar      1 <0>        -0.0637
     19 C15         3.2817    4.1169   -4.4359 C.ar      1 <0>        -0.0375
     20 C16         3.8088    3.6615   -3.2329 C.ar      1 <0>         0.0733
     21 N2          3.2785    2.8801   -2.2391 N.2       1 <0>        -0.3755
     22 Br2         3.3268    5.5222   -6.9138 Br        1 <0>        -0.0180
     23 H1         -0.9583    1.9080    0.0260 H         1 <0>         0.1437
     24 H2          1.1643    3.1638    0.0076 H         1 <0>         0.1397
     25 H3          1.2096   -1.7654   -0.0186 H         1 <0>         0.1402
     26 H4          3.9768   -1.3709   -0.0435 H         1 <0>         0.4223
     27 H5          6.8993    5.0668   -3.4643 H         1 <0>         0.1492
     28 H6          5.9367    5.8637   -5.5994 H         1 <0>         0.1536
     29 H7          2.2714    3.8567   -4.7152 H         1 <0>         0.1522
     30 H8          4.0370    2.4430    0.8721 H         1 <0>         0.1604
@<TRIPOS>BOND
     1    1    6 ar
     2    1    2 ar
     3    1   23 1
     4    2    3 ar
     5    2   24 1
     6    3    4 ar
     7    3   11 1
     8    4    5 ar
     9    4    8 1
    10    5    6 ar
    11    5   25 1
    12    6    7 1
    13    8    9 am
    14    8   26 1
    15    9   10 2
    16    9   11 1
    17   11   12 1
    18   11   30 1
    19   12   21 2
    20   12   13 1
    21   13   14 2
    22   13   15 1
    23   15   20 ar
    24   15   16 ar
    25   16   17 ar
    26   16   27 1
    27   17   18 ar
    28   17   28 1
    29   18   19 ar
    30   18   22 1
    31   19   20 ar
    32   19   29 1
    33   20   21 1
@<TRIPOS>MOLECULE
ZINC21288966
   49    52     0     0     0
SMALL
USER_CHARGES
2-(2-chlorophenyl)-5,7-dihydroxy-8-[(3S,4R)-3-hydroxy-1-methyl-4-piperidyl]chromen-4-one
@<TRIPOS>ATOM
      1 C1          6.0895   -0.0238    5.9621 C.3       1 <0>        -0.0460
      2 N1          6.1756    1.0472    4.9603 N.4       1 <0>        -0.3934
      3 C2          5.9739    0.5180    3.6055 C.3       1 <0>        -0.0028
      4 C3          6.2126    1.6289    2.5802 C.3       1 <0>        -0.1464
      5 C4          5.2418    2.7821    2.8491 C.3       1 <0>        -0.0180
      6 H1          4.2050    2.4431    2.7074 H         1 <0>         0.1039
      7 C5          5.4391    3.2830    4.2825 C.3       1 <0>         0.1015
      8 H2          4.7709    4.1271    4.5084 H         1 <0>         0.0941
      9 C6          5.2218    2.1236    5.2574 C.3       1 <0>        -0.0361
     10 O1          6.7669    3.7898    4.4323 O.3       1 <0>        -0.5639
     11 C7          5.5132    3.9050    1.8814 C.ar      1 <0>        -0.2158
     12 C8          6.8017    4.3949    1.7322 C.ar      1 <0>         0.2946
     13 C9          7.0678    5.4304    0.8434 C.ar      1 <0>        -0.3049
     14 C10         6.0448    5.9841    0.0956 C.ar      1 <0>         0.3111
     15 C11         4.7411    5.4942    0.2412 C.ar      1 <0>        -0.3649
     16 C12         4.4748    4.4470    1.1407 C.ar      1 <0>         0.2362
     17 O2          3.2147    3.9814    1.2730 O.3       1 <0>        -0.2171
     18 C13         2.1871    4.4838    0.5705 C.2       1 <0>         0.1982
     19 C14         2.3394    5.4926   -0.3277 C.2       1 <0>        -0.2780
     20 C15         3.6225    6.0546   -0.5353 C.2       1 <0>         0.4382
     21 O3          3.7953    6.9641   -1.3304 O.2       1 <0>        -0.4786
     22 C16         0.8407    3.9147    0.7769 C.ar      1 <0>        -0.0680
     23 C17         0.6478    2.5322    0.7263 C.ar      1 <0>        -0.0708
     24 C18        -0.6124    2.0073    0.9205 C.ar      1 <0>        -0.1159
     25 C19        -1.6867    2.8467    1.1599 C.ar      1 <0>        -0.0780
     26 C20        -1.5036    4.2164    1.2169 C.ar      1 <0>        -0.1066
     27 C21        -0.2472    4.7566    1.0243 C.ar      1 <0>        -0.0057
     28 Cl1        -0.0199    6.4765    1.0889 Cl        1 <0>        -0.0424
     29 O4          6.3024    6.9947   -0.7728 O.3       1 <0>        -0.4999
     30 O5          7.8133    3.8585    2.4614 O.3       1 <0>        -0.4665
     31 H3          6.8128   -0.8151    5.7159 H         1 <0>         0.1242
     32 H4          5.0728   -0.4438    5.9634 H         1 <0>         0.1169
     33 H5          6.3184    0.3856    6.9571 H         1 <0>         0.1225
     34 H6          6.6809   -0.3050    3.4243 H         1 <0>         0.1308
     35 H7          4.9438    0.1448    3.5072 H         1 <0>         0.1211
     36 H8          7.2477    1.9910    2.6662 H         1 <0>         0.1216
     37 H9          6.0450    1.2349    1.5669 H         1 <0>         0.1057
     38 H10         4.1951    1.7434    5.1512 H         1 <0>         0.1298
     39 H11         5.3771    2.4772    6.2874 H         1 <0>         0.1312
     40 H12         7.0946    4.1958    5.4007 H         1 <0>         0.4106
     41 H13         8.0758    5.8030    0.7365 H         1 <0>         0.1471
     42 H14         1.4871    5.8659   -0.8759 H         1 <0>         0.1670
     43 H15         1.4839    1.8757    0.5352 H         1 <0>         0.1384
     44 H16        -0.7625    0.9385    0.8812 H         1 <0>         0.1407
     45 H17        -2.6721    2.4298    1.3071 H         1 <0>         0.1438
     46 H18        -2.3456    4.8651    1.4082 H         1 <0>         0.1476
     47 H19         5.4855    7.4321   -1.3656 H         1 <0>         0.4556
     48 H20         8.8375    4.2431    2.3473 H         1 <0>         0.4397
     49 H21         7.1882    1.4744    5.0059 H         1 <0>         0.4481
@<TRIPOS>BOND
     1    1    2 1
     2    1   31 1
     3    1   32 1
     4    1   33 1
     5    2    9 1
     6    2    3 1
     7    2   49 1
     8    3    4 1
     9    3   34 1
    10    3   35 1
    11    4    5 1
    12    4   36 1
    13    4   37 1
    14    5    6 1
    15    5    7 1
    16    5   11 1
    17    7    8 1
    18    7    9 1
    19    7   10 1
    20    9   38 1
    21    9   39 1
    22   10   40 1
    23   11   16 ar
    24   11   12 ar
    25   12   13 ar
    26   12   30 1
    27   13   14 ar
    28   13   41 1
    29   14   15 ar
    30   14   29 1
    31   15   20 1
    32   15   16 ar
    33   16   17 1
    34   17   18 1
    35   18   19 2
    36   18   22 1
    37   19   20 1
    38   19   42 1
    39   20   21 2
    40   22   27 ar
    41   22   23 ar
    42   23   24 ar
    43   23   43 1
    44   24   25 ar
    45   24   44 1
    46   25   26 ar
    47   25   45 1
    48   26   27 ar
    49   26   46 1
    50   27   28 1
    51   29   47 1
    52   30   48 1
@<TRIPOS>MOLECULE
ZINC03871576
   30    32     0     0     0
SMALL
USER_CHARGES

@<TRIPOS>ATOM
      1 C1         -0.0169    1.3935    0.0097 C.ar      1 <0>        -0.0604
      2 C2          1.1676    2.0963    0.0022 C.ar      1 <0>        -0.1497
      3 C3          2.3803    1.4179   -0.0135 C.ar      1 <0>         0.1360
      4 C4          2.4038    0.0284   -0.0212 C.ar      1 <0>        -0.1474
      5 C5          1.2241   -0.6823   -0.0133 C.ar      1 <0>        -0.0612
      6 C6          0.0021   -0.0041    0.0020 C.ar      1 <0>        -0.0853
      7 C7         -1.2639   -0.7610    0.0105 C.2       1 <0>         0.2092
      8 C8         -1.2134   -2.1203    0.0083 C.2       1 <0>        -0.3116
      9 C9         -2.4177   -2.8631    0.0169 C.2       1 <0>         0.4226
     10 O1         -2.4099   -4.0836    0.0156 O.2       1 <0>        -0.4538
     11 C10        -3.6809   -2.1061    0.0279 C.ar      1 <0>        -0.2659
     12 C11        -4.9199   -2.7591    0.0374 C.ar      1 <0>         0.2192
     13 C12        -6.0832   -2.0121    0.0480 C.ar      1 <0>        -0.2049
     14 C13        -6.0212   -0.6227    0.0493 C.ar      1 <0>         0.1922
     15 C14        -4.7984    0.0300    0.0400 C.ar      1 <0>        -0.1830
     16 C15        -3.6212   -0.7020    0.0293 C.ar      1 <0>         0.1830
     17 O2         -2.4220   -0.0821    0.0257 O.3       1 <0>        -0.2182
     18 O3         -7.1695    0.1013    0.0593 O.3       1 <0>        -0.4872
     19 O4         -4.9782   -4.1150    0.0356 O.3       1 <0>        -0.4722
     20 O5          3.5455    2.1145   -0.0218 O.3       1 <0>        -0.4965
     21 H1         -0.9589    1.9215    0.0260 H         1 <0>         0.1404
     22 H2          1.1538    3.1762    0.0081 H         1 <0>         0.1393
     23 H3          3.3485   -0.4949   -0.0338 H         1 <0>         0.1414
     24 H4          1.2432   -1.7622   -0.0196 H         1 <0>         0.1415
     25 H5         -0.2608   -2.6290   -0.0002 H         1 <0>         0.1637
     26 H6         -7.0423   -2.5086    0.0550 H         1 <0>         0.1502
     27 H7         -4.7627    1.1094    0.0411 H         1 <0>         0.1534
     28 H8         -7.4952    0.3100    0.9456 H         1 <0>         0.4037
     29 H9         -4.9875   -4.5094    0.9185 H         1 <0>         0.4031
     30 H10         3.8920    2.3119    0.8591 H         1 <0>         0.3984
@<TRIPOS>BOND
     1    1    6 ar
     2    1    2 ar
     3    1   21 1
     4    2    3 ar
     5    2   22 1
     6    3    4 ar
     7    3   20 1
     8    4    5 ar
     9    4   23 1
    10    5    6 ar
    11    5   24 1
    12    6    7 1
    13    7   17 1
    14    7    8 2
    15    8    9 1
    16    8   25 1
    17    9   10 2
    18    9   11 1
    19   11   16 ar
    20   11   12 ar
    21   12   13 ar
    22   12   19 1
    23   13   14 ar
    24   13   26 1
    25   14   15 ar
    26   14   18 1
    27   15   16 ar
    28   15   27 1
    29   16   17 1
    30   18   28 1
    31   19   29 1
    32   20   30 1
@<TRIPOS>MOLECULE
ZINC03871576
   29    31     0     0     0
SMALL
USER_CHARGES

@<TRIPOS>ATOM
      1 C1         -0.0169    1.3945    0.0097 C.ar      1 <0>        -0.0666
      2 C2          1.1672    2.0969    0.0022 C.ar      1 <0>        -0.1480
      3 C3          2.3804    1.4183   -0.0135 C.ar      1 <0>         0.1175
      4 C4          2.4042    0.0284   -0.0212 C.ar      1 <0>        -0.1471
      5 C5          1.2251   -0.6825   -0.0138 C.ar      1 <0>        -0.0696
      6 C6          0.0021   -0.0041    0.0020 C.ar      1 <0>        -0.0607
      7 C7         -1.2623   -0.7603    0.0105 C.2       1 <0>         0.1733
      8 C8         -1.2238   -2.1392    0.0085 C.2       1 <0>        -0.2675
      9 C9         -2.4161   -2.8666    0.0170 C.2       1 <0>         0.3649
     10 C10        -3.6370   -2.1554    0.0275 C.2       1 <0>        -0.3407
     11 C11        -4.8707   -2.8387    0.0369 C.2       1 <0>         0.2653
     12 C12        -6.0384   -2.1317    0.0475 C.2       1 <0>        -0.3780
     13 C13        -6.0158   -0.7277    0.0485 C.2       1 <0>         0.3615
     14 O1         -7.1627   -0.0461    0.0589 O.2       1 <0>        -0.6669
     15 C14        -4.7977   -0.0391    0.0393 C.2       1 <0>        -0.3147
     16 C15        -3.6098   -0.7430    0.0291 C.2       1 <0>         0.2111
     17 O2         -2.4272   -0.0920    0.0257 O.3       1 <0>        -0.2196
     18 O3         -4.8969   -4.1953    0.0351 O.3       1 <0>        -0.4477
     19 O4         -2.4024   -4.2178    0.0147 O.3       1 <0>        -0.5784
     20 O5          3.5452    2.1149   -0.0218 O.3       1 <0>        -0.4988
     21 H1         -0.9589    1.9225    0.0260 H         1 <0>         0.1416
     22 H2          1.1536    3.1768    0.0081 H         1 <0>         0.1349
     23 H3          3.3490   -0.4946   -0.0334 H         1 <0>         0.1360
     24 H4          1.2446   -1.7623   -0.0201 H         1 <0>         0.1407
     25 H5         -0.2747   -2.6546   -0.0001 H         1 <0>         0.1464
     26 H6         -6.9835   -2.6543    0.0547 H         1 <0>         0.1160
     27 H7         -4.7867    1.0408    0.0398 H         1 <0>         0.1203
     28 H8         -5.7877   -4.5715    0.0420 H         1 <0>         0.3828
     29 H9          3.8917    2.3124    0.8591 H         1 <0>         0.3921
@<TRIPOS>BOND
     1    1    6 ar
     2    1    2 ar
     3    1   21 1
     4    2    3 ar
     5    2   22 1
     6    3    4 ar
     7    3   20 1
     8    4    5 ar
     9    4   23 1
    10    5    6 ar
    11    5   24 1
    12    6    7 1
    13    7   17 1
    14    7    8 2
    15    8    9 1
    16    8   25 1
    17    9   10 2
    18    9   19 1
    19   10   16 1
    20   10   11 1
    21   11   12 2
    22   11   18 1
    23   12   13 1
    24   12   26 1
    25   13   14 2
    26   13   15 1
    27   15   16 2
    28   15   27 1
    29   16   17 1
    30   18   28 1
    31   20   29 1
@<TRIPOS>MOLECULE
ZINC03872070
   29    31     0     0     0
SMALL
USER_CHARGES

@<TRIPOS>ATOM
      1 C1         -0.0167    1.3795    0.0096 C.ar      1 <0>        -0.0927
      2 C2          1.1683    2.0940    0.0021 C.ar      1 <0>        -0.1229
      3 C3          2.3774    1.4303   -0.0130 C.ar      1 <0>        -0.0794
      4 C4          2.4038    0.0341   -0.0208 C.ar      1 <0>        -0.0750
      5 C5          1.2040   -0.6806   -0.0131 C.ar      1 <0>        -0.0800
      6 C6          0.0021   -0.0041    0.0020 C.ar      1 <0>        -0.1206
      7 C7          3.6945   -0.6834   -0.0374 C.2       1 <0>         0.2076
      8 C8          3.6865   -2.0422   -0.0503 C.2       1 <0>        -0.3115
      9 C9          4.9147   -2.7475   -0.0669 C.2       1 <0>         0.4227
     10 O1          4.9453   -3.9673   -0.0791 O.2       1 <0>        -0.4538
     11 C10         6.1531   -1.9509   -0.0693 C.ar      1 <0>        -0.2663
     12 C11         7.4124   -2.5640   -0.0858 C.ar      1 <0>         0.2193
     13 C12         8.5511   -1.7802   -0.0879 C.ar      1 <0>        -0.2051
     14 C13         8.4449   -0.3935   -0.0739 C.ar      1 <0>         0.1922
     15 C14         7.2019    0.2199   -0.0571 C.ar      1 <0>        -0.1832
     16 C15         6.0486   -0.5493   -0.0551 C.ar      1 <0>         0.1831
     17 O2          4.8303    0.0319   -0.0449 O.3       1 <0>        -0.2180
     18 O3          9.5695    0.3668   -0.0761 O.3       1 <0>        -0.4872
     19 O4          7.5139   -3.9173   -0.0990 O.3       1 <0>        -0.4722
     20 H1         -0.9606    1.9042    0.0260 H         1 <0>         0.1309
     21 H2          1.1464    3.1738    0.0078 H         1 <0>         0.1326
     22 H3          3.3016    1.9892   -0.0192 H         1 <0>         0.1349
     23 H4          1.2173   -1.7605   -0.0194 H         1 <0>         0.1361
     24 H5         -0.9265   -0.5555    0.0079 H         1 <0>         0.1347
     25 H6          2.7503   -2.5805   -0.0475 H         1 <0>         0.1636
     26 H7          9.5256   -2.2457   -0.1002 H         1 <0>         0.1502
     27 H8          7.1320    1.2975   -0.0459 H         1 <0>         0.1533
     28 H9          9.8879    0.5955   -0.9601 H         1 <0>         0.4037
     29 H10         7.5357   -4.3014   -0.9862 H         1 <0>         0.4030
@<TRIPOS>BOND
     1    1    6 ar
     2    1    2 ar
     3    1   20 1
     4    2    3 ar
     5    2   21 1
     6    3    4 ar
     7    3   22 1
     8    4    5 ar
     9    4    7 1
    10    5    6 ar
    11    5   23 1
    12    6   24 1
    13    7   17 1
    14    7    8 2
    15    8    9 1
    16    8   25 1
    17    9   10 2
    18    9   11 1
    19   11   16 ar
    20   11   12 ar
    21   12   13 ar
    22   12   19 1
    23   13   14 ar
    24   13   26 1
    25   14   15 ar
    26   14   18 1
    27   15   16 ar
    28   15   27 1
    29   16   17 1
    30   18   28 1
    31   19   29 1
@<TRIPOS>MOLECULE
ZINC03872070
   28    30     0     0     0
SMALL
USER_CHARGES

@<TRIPOS>ATOM
      1 C1         -0.0167    1.3797    0.0096 C.ar      1 <0>        -0.1070
      2 C2          1.1682    2.0946    0.0022 C.ar      1 <0>        -0.1239
      3 C3          2.3774    1.4315   -0.0129 C.ar      1 <0>        -0.0844
      4 C4          2.4042    0.0344   -0.0206 C.ar      1 <0>        -0.0523
      5 C5          1.2037   -0.6807   -0.0130 C.ar      1 <0>        -0.0872
      6 C6          0.0021   -0.0041    0.0020 C.ar      1 <0>        -0.1230
      7 C7          3.6938   -0.6822   -0.0372 C.2       1 <0>         0.1725
      8 C8          3.6987   -2.0599   -0.0503 C.2       1 <0>        -0.2684
      9 C9          4.9147   -2.7500   -0.0661 C.2       1 <0>         0.3652
     10 C10         6.1116   -2.0009   -0.0682 C.2       1 <0>        -0.3412
     11 C11         7.3668   -2.6443   -0.0844 C.2       1 <0>         0.2654
     12 C12         8.5111   -1.9002   -0.0865 C.2       1 <0>        -0.3783
     13 C13         8.4435   -0.4975   -0.0722 C.2       1 <0>         0.3617
     14 O1          9.5678    0.2204   -0.0740 O.2       1 <0>        -0.6670
     15 C14         7.2040    0.1518   -0.0566 C.2       1 <0>        -0.3151
     16 C15         6.0392   -0.5896   -0.0543 C.2       1 <0>         0.2114
     17 O2          4.8365    0.0229   -0.0448 O.3       1 <0>        -0.2195
     18 O3          7.4365   -3.9993   -0.0974 O.3       1 <0>        -0.4477
     19 O4          4.9436   -4.1007   -0.0786 O.3       1 <0>        -0.5790
     20 H1         -0.9606    1.9042    0.0260 H         1 <0>         0.1247
     21 H2          1.1460    3.1743    0.0078 H         1 <0>         0.1280
     22 H3          3.3014    1.9906   -0.0191 H         1 <0>         0.1359
     23 H4          1.2169   -1.7606   -0.0192 H         1 <0>         0.1351
     24 H5         -0.9266   -0.5554    0.0079 H         1 <0>         0.1291
     25 H6          2.7663   -2.6050   -0.0479 H         1 <0>         0.1462
     26 H7          9.4725   -2.3921   -0.0990 H         1 <0>         0.1160
     27 H8          7.1585    1.2308   -0.0456 H         1 <0>         0.1202
     28 H9          8.3389   -4.3466   -0.1079 H         1 <0>         0.3827
@<TRIPOS>BOND
     1    1    6 ar
     2    1    2 ar
     3    1   20 1
     4    2    3 ar
     5    2   21 1
     6    3    4 ar
     7    3   22 1
     8    4    5 ar
     9    4    7 1
    10    5    6 ar
    11    5   23 1
    12    6   24 1
    13    7   17 1
    14    7    8 2
    15    8    9 1
    16    8   25 1
    17    9   10 2
    18    9   19 1
    19   10   16 1
    20   10   11 1
    21   11   12 2
    22   11   18 1
    23   12   13 1
    24   12   26 1
    25   13   14 2
    26   13   15 1
    27   15   16 2
    28   15   27 1
    29   16   17 1
    30   18   28 1
@<TRIPOS>MOLECULE
ZINC03869685
   32    34     0     0     0
SMALL
USER_CHARGES

@<TRIPOS>ATOM
      1 C1          0.9741   -0.2755   -0.9644 C.ar      1 <0>        -0.0748
      2 C2          2.1569    0.4329   -0.9701 C.ar      1 <0>        -0.1346
      3 C3          2.3856    1.4156   -0.0177 C.ar      1 <0>         0.1032
      4 C4          1.4203    1.6918    0.9495 C.ar      1 <0>         0.0788
      5 C5          0.2328    0.9863    0.9617 C.ar      1 <0>        -0.0762
      6 C6          0.0021   -0.0041    0.0020 C.ar      1 <0>        -0.0447
      7 C7         -1.2637   -0.7605    0.0100 C.2       1 <0>         0.1350
      8 C8         -2.4363   -0.0759    0.1235 C.2       1 <0>        -0.0429
      9 C9         -3.6628   -0.7894    0.1327 C.2       1 <0>         0.4011
     10 O1         -4.7327   -0.2102    0.2323 O.2       1 <0>        -0.4484
     11 C10        -3.5946   -2.2549    0.0170 C.ar      1 <0>        -0.2690
     12 C11        -4.7561   -3.0387    0.0170 C.ar      1 <0>         0.2244
     13 C12        -4.6504   -4.4123   -0.0941 C.ar      1 <0>        -0.2081
     14 C13        -3.3994   -5.0103   -0.2044 C.ar      1 <0>         0.2000
     15 C14        -2.2463   -4.2416   -0.2047 C.ar      1 <0>        -0.1854
     16 C15        -2.3316   -2.8618   -0.0952 C.ar      1 <0>         0.1876
     17 O2         -1.2182   -2.0992   -0.1003 O.3       1 <0>        -0.1970
     18 O3         -3.3070   -6.3605   -0.3125 O.3       1 <0>        -0.4866
     19 O4         -5.9758   -2.4535    0.1257 O.3       1 <0>        -0.4726
     20 O5         -2.4312    1.2810    0.2275 O.3       1 <0>        -0.4502
     21 O6          1.6480    2.6557    1.8815 O.3       1 <0>        -0.4836
     22 O7          3.5534    2.1101   -0.0273 O.3       1 <0>        -0.4861
     23 H1          0.7971   -1.0371   -1.7094 H         1 <0>         0.1379
     24 H2          2.9075    0.2221   -1.7176 H         1 <0>         0.1421
     25 H3         -0.5155    1.1988    1.7108 H         1 <0>         0.1429
     26 H4         -5.5413   -5.0229   -0.0948 H         1 <0>         0.1515
     27 H5         -1.2805   -4.7174   -0.2903 H         1 <0>         0.1559
     28 H6         -3.3257   -6.6843   -1.2235 H         1 <0>         0.4050
     29 H7         -6.3751   -2.2160   -0.7224 H         1 <0>         0.4036
     30 H8         -3.3120    1.6729    0.3033 H         1 <0>         0.4079
     31 H9          1.3508    3.5370    1.6166 H         1 <0>         0.3905
     32 H10         3.5287    2.9137   -0.5647 H         1 <0>         0.3924
@<TRIPOS>BOND
     1    1    6 ar
     2    1    2 ar
     3    1   23 1
     4    2    3 ar
     5    2   24 1
     6    3    4 ar
     7    3   22 1
     8    4    5 ar
     9    4   21 1
    10    5    6 ar
    11    5   25 1
    12    6    7 1
    13    7   17 1
    14    7    8 2
    15    8    9 1
    16    8   20 1
    17    9   10 2
    18    9   11 1
    19   11   16 ar
    20   11   12 ar
    21   12   13 ar
    22   12   19 1
    23   13   14 ar
    24   13   26 1
    25   14   15 ar
    26   14   18 1
    27   15   16 ar
    28   15   27 1
    29   16   17 1
    30   18   28 1
    31   19   29 1
    32   20   30 1
    33   21   31 1
    34   22   32 1
@<TRIPOS>MOLECULE
ZINC03869685
   31    33     0     0     0
SMALL
USER_CHARGES

@<TRIPOS>ATOM
      1 C1          0.1390    1.1246   -0.8120 C.ar      1 <0>        -0.0626
      2 C2          1.3229    1.8301   -0.8179 C.ar      1 <0>        -0.1333
      3 C3          2.3812    1.4233   -0.0172 C.ar      1 <0>         0.0878
      4 C4          2.2522    0.2984    0.7970 C.ar      1 <0>         0.0757
      5 C5          1.0694   -0.4139    0.8086 C.ar      1 <0>        -0.0997
      6 C6          0.0021   -0.0041    0.0020 C.ar      1 <0>        -0.0194
      7 C7         -1.2620   -0.7597    0.0100 C.2       1 <0>         0.1007
      8 C8         -2.4587   -0.0763    0.1245 C.2       1 <0>        -0.0038
      9 C9         -3.6655   -0.7872    0.1324 C.2       1 <0>         0.3349
     10 C10        -3.6167   -2.1939    0.0219 C.2       1 <0>        -0.3331
     11 C11        -4.8018   -2.9593    0.0240 C.2       1 <0>         0.2664
     12 C12        -4.7326   -4.3182   -0.0844 C.2       1 <0>        -0.3749
     13 C13        -3.4871   -4.9570   -0.1979 C.2       1 <0>         0.3648
     14 O1         -3.4307   -6.2860   -0.3033 O.2       1 <0>        -0.6598
     15 C14        -2.3054   -4.2086   -0.2016 C.2       1 <0>        -0.3143
     16 C15        -2.3616   -2.8325   -0.0921 C.2       1 <0>         0.2118
     17 O2         -1.2290   -2.0988   -0.0996 O.3       1 <0>        -0.2018
     18 O3         -6.0073   -2.3463    0.1339 O.3       1 <0>        -0.4482
     19 O4         -4.8484   -0.1420    0.2437 O.3       1 <0>        -0.5747
     20 O5         -2.4638    1.2803    0.2294 O.3       1 <0>        -0.4649
     21 O6          3.2919   -0.0973    1.5794 O.3       1 <0>        -0.4856
     22 O7          3.5458    2.1225   -0.0269 O.3       1 <0>        -0.4881
     23 H1         -0.6843    1.4460   -1.4327 H         1 <0>         0.1397
     24 H2          1.4276    2.7014   -1.4473 H         1 <0>         0.1381
     25 H3          0.9685   -1.2854    1.4384 H         1 <0>         0.1410
     26 H4         -5.6395   -4.9047   -0.0825 H         1 <0>         0.1180
     27 H5         -1.3506   -4.7057   -0.2895 H         1 <0>         0.1230
     28 H6         -6.7597   -2.9537    0.1258 H         1 <0>         0.3847
     29 H7         -3.3475    1.6656    0.3047 H         1 <0>         0.4058
     30 H8          3.2925    0.2977    2.4620 H         1 <0>         0.3855
     31 H9          3.5825    2.8346    0.6263 H         1 <0>         0.3863
@<TRIPOS>BOND
     1    1    6 ar
     2    1    2 ar
     3    1   23 1
     4    2    3 ar
     5    2   24 1
     6    3    4 ar
     7    3   22 1
     8    4    5 ar
     9    4   21 1
    10    5    6 ar
    11    5   25 1
    12    6    7 1
    13    7   17 1
    14    7    8 2
    15    8    9 1
    16    8   20 1
    17    9   10 2
    18    9   19 1
    19   10   16 1
    20   10   11 1
    21   11   12 2
    22   11   18 1
    23   12   13 1
    24   12   26 1
    25   13   14 2
    26   13   15 1
    27   15   16 2
    28   15   27 1
    29   16   17 1
    30   18   28 1
    31   20   29 1
    32   21   30 1
    33   22   31 1
@<TRIPOS>MOLECULE
ZINC03869768
   31    33     0     0     0
SMALL
USER_CHARGES

@<TRIPOS>ATOM
      1 C1          0.9745   -0.2752   -0.9649 C.ar      1 <0>        -0.0474
      2 C2          2.1550    0.4346   -0.9693 C.ar      1 <0>        -0.1488
      3 C3          2.3800    1.4188   -0.0145 C.ar      1 <0>         0.1280
      4 C4          1.4162    1.6917    0.9485 C.ar      1 <0>        -0.1504
      5 C5          0.2327    0.9869    0.9606 C.ar      1 <0>        -0.0665
      6 C6          0.0021   -0.0041    0.0020 C.ar      1 <0>        -0.0625
      7 C7         -1.2634   -0.7608    0.0105 C.2       1 <0>         0.1356
      8 C8         -1.2167   -2.1184   -0.0957 C.2       1 <0>        -0.0454
      9 C9         -2.4259   -2.8610   -0.0886 C.2       1 <0>         0.4007
     10 O1         -2.4232   -4.0781   -0.1814 O.2       1 <0>        -0.4492
     11 C10        -3.6832   -2.1065    0.0355 C.ar      1 <0>        -0.2689
     12 C11        -4.9234   -2.7585    0.0517 C.ar      1 <0>         0.2243
     13 C12        -6.0821   -2.0144    0.1703 C.ar      1 <0>        -0.2086
     14 C13        -6.0155   -0.6287    0.2722 C.ar      1 <0>         0.1994
     15 C14        -4.7926    0.0230    0.2564 C.ar      1 <0>        -0.1859
     16 C15        -3.6188   -0.7060    0.1392 C.ar      1 <0>         0.1873
     17 O2         -2.4200   -0.0864    0.1283 O.3       1 <0>        -0.1981
     18 O3         -7.1599    0.0925    0.3877 O.3       1 <0>        -0.4869
     19 O4         -4.9864   -4.1104   -0.0487 O.3       1 <0>        -0.4727
     20 O5         -0.0202   -2.7570   -0.2082 O.3       1 <0>        -0.4492
     21 O6          3.5454    2.1157   -0.0224 O.3       1 <0>        -0.4978
     22 H1          0.7987   -1.0369   -1.7101 H         1 <0>         0.1366
     23 H2          2.9071    0.2256   -1.7157 H         1 <0>         0.1375
     24 H3          1.5954    2.4572    1.6889 H         1 <0>         0.1366
     25 H4         -0.5157    1.1995    1.7097 H         1 <0>         0.1340
     26 H5         -7.0416   -2.5100    0.1835 H         1 <0>         0.1512
     27 H6         -4.7536    1.0994    0.3359 H         1 <0>         0.1553
     28 H7         -7.4448    0.2345    1.3008 H         1 <0>         0.4049
     29 H8         -4.9577   -4.5698    0.8018 H         1 <0>         0.4037
     30 H9         -0.0926   -3.7187   -0.2778 H         1 <0>         0.4073
     31 H10         3.5195    2.9194   -0.5594 H         1 <0>         0.3958
@<TRIPOS>BOND
     1    1    6 ar
     2    1    2 ar
     3    1   22 1
     4    2    3 ar
     5    2   23 1
     6    3    4 ar
     7    3   21 1
     8    4    5 ar
     9    4   24 1
    10    5    6 ar
    11    5   25 1
    12    6    7 1
    13    7   17 1
    14    7    8 2
    15    8    9 1
    16    8   20 1
    17    9   10 2
    18    9   11 1
    19   11   16 ar
    20   11   12 ar
    21   12   13 ar
    22   12   19 1
    23   13   14 ar
    24   13   26 1
    25   14   15 ar
    26   14   18 1
    27   15   16 ar
    28   15   27 1
    29   16   17 1
    30   18   28 1
    31   19   29 1
    32   20   30 1
    33   21   31 1
@<TRIPOS>MOLECULE
ZINC03869768
   30    32     0     0     0
SMALL
USER_CHARGES

@<TRIPOS>ATOM
      1 C1          0.1387    1.1253   -0.8121 C.ar      1 <0>        -0.0723
      2 C2          1.3222    1.8291   -0.8163 C.ar      1 <0>        -0.1492
      3 C3          2.3802    1.4188   -0.0136 C.ar      1 <0>         0.1107
      4 C4          2.2493    0.2973    0.7970 C.ar      1 <0>        -0.1487
      5 C5          1.0698   -0.4131    0.8081 C.ar      1 <0>        -0.0549
      6 C6          0.0021   -0.0041    0.0020 C.ar      1 <0>        -0.0373
      7 C7         -1.2618   -0.7600    0.0105 C.2       1 <0>         0.1024
      8 C8         -1.2272   -2.1382   -0.0967 C.2       1 <0>        -0.0073
      9 C9         -2.4246   -2.8649   -0.0894 C.2       1 <0>         0.3353
     10 C10        -3.6396   -2.1555    0.0286 C.2       1 <0>        -0.3335
     11 C11        -4.8747   -2.8371    0.0419 C.2       1 <0>         0.2665
     12 C12        -6.0380   -2.1324    0.1573 C.2       1 <0>        -0.3754
     13 C13        -6.0102   -0.7324    0.2627 C.2       1 <0>         0.3645
     14 O1         -7.1532   -0.0530    0.3751 O.2       1 <0>        -0.6613
     15 C14        -4.7917   -0.0455    0.2513 C.2       1 <0>        -0.3154
     16 C15        -3.6071   -0.7470    0.1346 C.2       1 <0>         0.2120
     17 O2         -2.4247   -0.0966    0.1278 O.3       1 <0>        -0.2026
     18 O3         -4.9062   -4.1898   -0.0602 O.3       1 <0>        -0.4482
     19 O4         -2.4171   -4.2129   -0.1933 O.3       1 <0>        -0.5752
     20 O5         -0.0356   -2.7853   -0.2091 O.3       1 <0>        -0.4646
     21 O6          3.5454    2.1154   -0.0218 O.3       1 <0>        -0.5000
     22 H1         -0.6842    1.4472   -1.4330 H         1 <0>         0.1347
     23 H2          1.4286    2.7011   -1.4445 H         1 <0>         0.1321
     24 H3          3.0741   -0.0177    1.4190 H         1 <0>         0.1323
     25 H4          0.9692   -1.2847    1.4377 H         1 <0>         0.1358
     26 H5         -6.9838   -2.6538    0.1671 H         1 <0>         0.1177
     27 H6         -4.7769    1.0313    0.3327 H         1 <0>         0.1225
     28 H7         -5.7973   -4.5650   -0.0417 H         1 <0>         0.3845
     29 H8         -0.1151   -3.7466   -0.2784 H         1 <0>         0.4051
     30 H9          3.5829    2.8269    0.6320 H         1 <0>         0.3897
@<TRIPOS>BOND
     1    1    6 ar
     2    1    2 ar
     3    1   22 1
     4    2    3 ar
     5    2   23 1
     6    3    4 ar
     7    3   21 1
     8    4    5 ar
     9    4   24 1
    10    5    6 ar
    11    5   25 1
    12    6    7 1
    13    7   17 1
    14    7    8 2
    15    8    9 1
    16    8   20 1
    17    9   10 2
    18    9   19 1
    19   10   16 1
    20   10   11 1
    21   11   12 2
    22   11   18 1
    23   12   13 1
    24   12   26 1
    25   13   14 2
    26   13   15 1
    27   15   16 2
    28   15   27 1
    29   16   17 1
    30   18   28 1
    31   20   29 1
    32   21   30 1
@<TRIPOS>MOLECULE
ZINC18185774
   31    33     0     0     0
SMALL
USER_CHARGES

@<TRIPOS>ATOM
      1 C1         -0.0169    1.3929    0.0097 C.ar      1 <0>        -0.0705
      2 C2          1.1675    2.0983    0.0022 C.ar      1 <0>        -0.1309
      3 C3          2.3803    1.4240   -0.0135 C.ar      1 <0>         0.1099
      4 C4          2.4067    0.0300   -0.0212 C.ar      1 <0>         0.0792
      5 C5          1.2240   -0.6832   -0.0138 C.ar      1 <0>        -0.0904
      6 C6          0.0021   -0.0041    0.0020 C.ar      1 <0>        -0.0661
      7 C7         -1.2642   -0.7606    0.0105 C.2       1 <0>         0.2069
      8 C8         -2.4374   -0.0724    0.0203 C.2       1 <0>        -0.3067
      9 C9         -3.6620   -0.7813    0.0286 C.2       1 <0>         0.4226
     10 O1         -4.7331   -0.1964    0.0371 O.2       1 <0>        -0.4521
     11 C10        -3.5935   -2.2524    0.0260 C.ar      1 <0>        -0.2661
     12 C11        -4.7554   -3.0344    0.0332 C.ar      1 <0>         0.2196
     13 C12        -4.6484   -4.4128    0.0300 C.ar      1 <0>        -0.2046
     14 C13        -3.3955   -5.0163    0.0203 C.ar      1 <0>         0.1928
     15 C14        -2.2415   -4.2483    0.0131 C.ar      1 <0>        -0.1829
     16 C15        -2.3286   -2.8648    0.0157 C.ar      1 <0>         0.1832
     17 O2         -1.2147   -2.1022    0.0028 O.3       1 <0>        -0.2181
     18 O3         -3.3016   -6.3705    0.0182 O.3       1 <0>        -0.4872
     19 O4         -5.9771   -2.4436    0.0436 O.3       1 <0>        -0.4722
     20 O5          3.5971   -0.6274   -0.0366 O.3       1 <0>        -0.4831
     21 O6          3.5446    2.1239   -0.0217 O.3       1 <0>        -0.4848
     22 H1         -0.9593    1.9201    0.0260 H         1 <0>         0.1451
     23 H2          1.1515    3.1781    0.0081 H         1 <0>         0.1468
     24 H3          1.2430   -1.7630   -0.0205 H         1 <0>         0.1466
     25 H4         -2.4342    1.0076    0.0222 H         1 <0>         0.1649
     26 H5         -5.5400   -5.0224    0.0355 H         1 <0>         0.1504
     27 H6         -1.2739   -4.7281    0.0059 H         1 <0>         0.1535
     28 H7         -3.2809   -6.7620   -0.8658 H         1 <0>         0.4041
     29 H8         -6.3379   -2.2705   -0.8367 H         1 <0>         0.4034
     30 H9          3.9502   -0.8223    0.8423 H         1 <0>         0.3919
     31 H10         3.8907    2.3221    0.8592 H         1 <0>         0.3948
@<TRIPOS>BOND
     1    1    6 ar
     2    1    2 ar
     3    1   22 1
     4    2    3 ar
     5    2   23 1
     6    3    4 ar
     7    3   21 1
     8    4    5 ar
     9    4   20 1
    10    5    6 ar
    11    5   24 1
    12    6    7 1
    13    7   17 1
    14    7    8 2
    15    8    9 1
    16    8   25 1
    17    9   10 2
    18    9   11 1
    19   11   16 ar
    20   11   12 ar
    21   12   13 ar
    22   12   19 1
    23   13   14 ar
    24   13   26 1
    25   14   15 ar
    26   14   18 1
    27   15   16 ar
    28   15   27 1
    29   16   17 1
    30   18   28 1
    31   19   29 1
    32   20   30 1
    33   21   31 1
@<TRIPOS>MOLECULE
ZINC03938688
   39    41     0     0     0
SMALL
USER_CHARGES

@<TRIPOS>ATOM
      1 C1         -0.0095    1.3826    0.0704 C.ar      1 <0>        -0.0343
      2 C2          0.5587    1.0580   -1.1482 C.ar      1 <0>        -0.1609
      3 C3          1.7655    0.3862   -1.1955 C.ar      1 <0>         0.1753
      4 C4          2.4129    0.0342   -0.0053 C.ar      1 <0>        -0.1954
      5 C5          1.8304    0.3669    1.2233 C.ar      1 <0>         0.1741
      6 C6          0.6231    1.0388    1.2514 C.ar      1 <0>        -0.1610
      7 F1          2.4463    0.0317    2.3781 F         1 <0>        -0.1212
      8 C7          3.6999   -0.6827   -0.0456 C.2       1 <0>         0.6210
      9 O1          4.7383   -0.0615   -0.1600 O.2       1 <0>        -0.4669
     10 N1          3.7255   -2.0272    0.0446 N.am      1 <0>        -0.3962
     11 C8          4.8314   -2.8210    0.1249 C.2       1 <0>         0.5948
     12 N2          4.4249   -4.0694    0.1979 N.2       1 <0>        -0.5873
     13 C9          3.0869   -4.1118    0.1675 C.2       1 <0>         0.5191
     14 N3          2.6183   -2.8904    0.0808 N.2       1 <0>        -0.3480
     15 N4          2.3148   -5.2702    0.2247 N.pl3     1 <0>        -0.6226
     16 C10         2.9267   -6.5079    0.4407 C.ar      1 <0>         0.2365
     17 C11         4.1432   -6.5760    1.1080 C.ar      1 <0>        -0.1584
     18 C12         4.7450   -7.8008    1.3202 C.ar      1 <0>         0.0098
     19 C13         4.1379   -8.9586    0.8692 C.ar      1 <0>        -0.7033
     20 C14         2.9269   -8.8944    0.2046 C.ar      1 <0>         0.0112
     21 C15         2.3170   -7.6734   -0.0063 C.ar      1 <0>        -0.1777
     22 S1          4.9094  -10.5191    1.1415 S.o2      1 <0>         2.7034
     23 O2          4.4084  -11.3993    0.1448 O.2       1 <0>        -0.9656
     24 O3          6.2977  -10.2630    1.3036 O.2       1 <0>        -0.9650
     25 N5          4.3605  -11.0895    2.5960 N.pl3     1 <0>        -1.2510
     26 N6          6.1422   -2.3912    0.1281 N.pl3     1 <0>        -0.7911
     27 F2          2.3185    0.0697   -2.3868 F         1 <0>        -0.1201
     28 H1         -0.9506    1.9116    0.0998 H         1 <0>         0.1546
     29 H2          0.0576    1.3300   -2.0654 H         1 <0>         0.1549
     30 H3          0.1721    1.2963    2.1984 H         1 <0>         0.1546
     31 H4          1.3525   -5.2176    0.1147 H         1 <0>         0.4325
     32 H5          4.6180   -5.6722    1.4601 H         1 <0>         0.1556
     33 H6          5.6909   -7.8544    1.8385 H         1 <0>         0.1456
     34 H7          2.4556   -9.8005   -0.1466 H         1 <0>         0.1475
     35 H8          1.3691   -7.6243   -0.5215 H         1 <0>         0.1387
     36 H9          3.7284  -10.5673    3.1145 H         1 <0>         0.4165
     37 H10         4.6709  -11.9458    2.9296 H         1 <0>         0.4206
     38 H11         6.3422   -1.4439    0.0694 H         1 <0>         0.4292
     39 H12         6.8640   -3.0364    0.1890 H         1 <0>         0.4303
@<TRIPOS>BOND
     1    1    6 ar
     2    1    2 ar
     3    1   28 1
     4    2    3 ar
     5    2   29 1
     6    3    4 ar
     7    3   27 1
     8    4    5 ar
     9    4    8 1
    10    5    6 ar
    11    5    7 1
    12    6   30 1
    13    8    9 2
    14    8   10 am
    15   10   14 1
    16   10   11 1
    17   11   12 2
    18   11   26 1
    19   12   13 1
    20   13   14 2
    21   13   15 1
    22   15   16 1
    23   15   31 1
    24   16   21 ar
    25   16   17 ar
    26   17   18 ar
    27   17   32 1
    28   18   19 ar
    29   18   33 1
    30   19   20 ar
    31   19   22 1
    32   20   21 ar
    33   20   34 1
    34   21   35 1
    35   22   23 2
    36   22   24 2
    37   22   25 1
    38   25   36 1
    39   25   37 1
    40   26   38 1
    41   26   39 1
@<TRIPOS>MOLECULE
ZINC00104048
   27    28     0     0     0
SMALL
USER_CHARGES
1-[(4-methoxyphenyl)methyl]pyrrole-2,5-dione
@<TRIPOS>ATOM
      1 C1         -0.0127    1.0858    0.0080 C.3       1 <0>         0.0256
      2 O1         -0.6816    1.5467    1.1837 O.3       1 <0>        -0.3160
      3 C2         -0.1488    1.1821    2.3796 C.ar      1 <0>         0.1395
      4 C3          0.9910    0.3923    2.4206 C.ar      1 <0>        -0.2119
      5 C4          1.5337    0.0275    3.6375 C.ar      1 <0>        -0.0537
      6 C5          0.9358    0.4401    4.8140 C.ar      1 <0>        -0.1628
      7 C6         -0.2035    1.2226    4.7758 C.ar      1 <0>        -0.0548
      8 C7         -0.7471    1.5945    3.5614 C.ar      1 <0>        -0.1551
      9 C8          1.5266    0.0359    6.1401 C.3       1 <0>         0.1612
     10 N1          0.9361   -1.2336    6.5712 N.am      1 <0>        -0.5857
     11 C9         -0.1703   -1.3575    7.3264 C.2       1 <0>         0.5405
     12 O2         -0.8396   -0.4425    7.7607 O.2       1 <0>        -0.4528
     13 C10        -0.4346   -2.7983    7.5353 C.2       1 <0>        -0.1406
     14 C11         0.5394   -3.4680    6.8972 C.2       1 <0>        -0.1418
     15 C12         1.4204   -2.4537    6.2773 C.2       1 <0>         0.5409
     16 O3          2.4118   -2.6835    5.6155 O.2       1 <0>        -0.4544
     17 H1          0.0021   -0.0041    0.0020 H         1 <0>         0.0568
     18 H2          1.0099    1.4631    0.0003 H         1 <0>         0.0575
     19 H3         -0.5399    1.4469   -0.8751 H         1 <0>         0.1027
     20 H4          1.4560    0.0663    1.5020 H         1 <0>         0.1313
     21 H5          2.4235   -0.5837    3.6700 H         1 <0>         0.1297
     22 H6         -0.6687    1.5437    5.6961 H         1 <0>         0.1343
     23 H7         -1.6372    2.2054    3.5321 H         1 <0>         0.1344
     24 H8          2.6053   -0.0818    6.0366 H         1 <0>         0.1035
     25 H9          1.3147    0.8057    6.8821 H         1 <0>         0.1044
     26 H10        -1.2513   -3.2285    8.0959 H         1 <0>         0.1839
     27 H11         0.6565   -4.5404    6.8460 H         1 <0>         0.1836
@<TRIPOS>BOND
     1    1    2 1
     2    1   17 1
     3    1   18 1
     4    1   19 1
     5    2    3 1
     6    3    8 ar
     7    3    4 ar
     8    4    5 ar
     9    4   20 1
    10    5    6 ar
    11    5   21 1
    12    6    7 ar
    13    6    9 1
    14    7    8 ar
    15    7   22 1
    16    8   23 1
    17    9   10 1
    18    9   24 1
    19    9   25 1
    20   10   15 am
    21   10   11 am
    22   11   12 2
    23   11   13 1
    24   13   14 2
    25   13   26 1
    26   14   15 1
    27   14   27 1
    28   15   16 2
@<TRIPOS>MOLECULE
ZINC00071274
   26    27     0     0     0
SMALL
USER_CHARGES
1-phenethylpyrrole-2,5-dione
@<TRIPOS>ATOM
      1 C1         -0.0167    1.3781    0.0096 C.ar      1 <0>        -0.1194
      2 C2          1.1709    2.0855    0.0021 C.ar      1 <0>        -0.1179
      3 C3          2.3773    1.4107   -0.0141 C.ar      1 <0>        -0.1128
      4 C4          2.3960    0.0285   -0.0217 C.ar      1 <0>        -0.0869
      5 C5          1.2084   -0.6789   -0.0136 C.ar      1 <0>        -0.1128
      6 C6          0.0021   -0.0041    0.0020 C.ar      1 <0>        -0.1179
      7 C7          3.7112   -0.7071   -0.0392 C.3       1 <0>        -0.0954
      8 C8          4.1416   -0.9479   -1.4876 C.3       1 <0>         0.1197
      9 N1          5.4200   -1.6630   -1.5046 N.am      1 <0>        -0.5902
     10 C9          6.6333   -1.0823   -1.5195 C.2       1 <0>         0.5393
     11 O1          6.8487    0.1124   -1.5214 O.2       1 <0>        -0.4527
     12 C10         7.6609   -2.1469   -1.5302 C.2       1 <0>        -0.1404
     13 C11         7.0051   -3.3192   -1.5302 C.2       1 <0>        -0.1405
     14 C12         5.5603   -3.0008   -1.5137 C.2       1 <0>         0.5393
     15 O2          4.6550   -3.8097   -1.5087 O.2       1 <0>        -0.4527
     16 H1         -0.9592    1.9054    0.0170 H         1 <0>         0.1229
     17 H2          1.1563    3.1654    0.0081 H         1 <0>         0.1238
     18 H3          3.3051    1.9634   -0.0207 H         1 <0>         0.1233
     19 H4          1.2231   -1.7587   -0.0199 H         1 <0>         0.1233
     20 H5         -0.9258   -0.5567    0.0079 H         1 <0>         0.1238
     21 H6          4.4679   -0.1107    0.4703 H         1 <0>         0.0797
     22 H7          3.5990   -1.6641    0.4703 H         1 <0>         0.0798
     23 H8          3.3848   -1.5443   -1.9971 H         1 <0>         0.0978
     24 H9          4.2537    0.0092   -1.9971 H         1 <0>         0.0980
     25 H10         8.7319   -2.0082   -1.5398 H         1 <0>         0.1845
     26 H11         7.4474   -4.3045   -1.5397 H         1 <0>         0.1845
@<TRIPOS>BOND
     1    1    6 ar
     2    1    2 ar
     3    1   16 1
     4    2    3 ar
     5    2   17 1
     6    3    4 ar
     7    3   18 1
     8    4    5 ar
     9    4    7 1
    10    5    6 ar
    11    5   19 1
    12    6   20 1
    13    7    8 1
    14    7   21 1
    15    7   22 1
    16    8    9 1
    17    8   23 1
    18    8   24 1
    19    9   14 am
    20    9   10 am
    21   10   11 2
    22   10   12 1
    23   12   13 2
    24   12   25 1
    25   13   14 1
    26   13   26 1
    27   14   15 2
@<TRIPOS>MOLECULE
ZINC13675200
   29    30     0     0     0
SMALL
USER_CHARGES
1-(3-phenylpropyl)pyrrole-2,5-dione
@<TRIPOS>ATOM
      1 C1         -5.7305    0.2858    5.4990 C.ar      1 <0>        -0.1235
      2 C2         -5.9216    1.4936    4.8543 C.ar      1 <0>        -0.1182
      3 C3         -5.4934    1.6563    3.5501 C.ar      1 <0>        -0.1167
      4 C4         -4.8744    0.6111    2.8904 C.ar      1 <0>        -0.0844
      5 C5         -4.6884   -0.5985    3.5332 C.ar      1 <0>        -0.1167
      6 C6         -5.1119   -0.7596    4.8391 C.ar      1 <0>        -0.1182
      7 C7         -4.4080    0.7883    1.4684 C.3       1 <0>        -0.0768
      8 C8         -2.9682    1.3060    1.4647 C.3       1 <0>        -0.1305
      9 C9         -2.4946    1.4859    0.0210 C.3       1 <0>         0.1130
     10 N1         -1.1161    1.9817    0.0175 N.am      1 <0>        -0.5896
     11 C10        -0.0144    1.2098    0.0087 C.2       1 <0>         0.5395
     12 O1          0.0021   -0.0041    0.0020 O.2       1 <0>        -0.4532
     13 C11         1.1739    2.0915    0.0021 C.2       1 <0>        -0.1409
     14 C12         0.7194    3.3554    0.0127 C.2       1 <0>        -0.1409
     15 C13        -0.7581    3.2783    0.0261 C.2       1 <0>         0.5395
     16 O2         -1.5184    4.2247    0.0376 O.2       1 <0>        -0.4533
     17 H1         -6.0647    0.1588    6.5181 H         1 <0>         0.1216
     18 H2         -6.4053    2.3102    5.3698 H         1 <0>         0.1223
     19 H3         -5.6428    2.5999    3.0464 H         1 <0>         0.1216
     20 H4         -4.2087   -1.4165    3.0163 H         1 <0>         0.1216
     21 H5         -4.9629   -1.7033    5.3427 H         1 <0>         0.1223
     22 H6         -5.0533    1.5054    0.9610 H         1 <0>         0.0778
     23 H7         -4.4510   -0.1695    0.9499 H         1 <0>         0.0778
     24 H8         -2.3229    0.5889    1.9720 H         1 <0>         0.0716
     25 H9         -2.9252    2.2638    1.9832 H         1 <0>         0.0716
     26 H10        -3.1399    2.2031   -0.4863 H         1 <0>         0.0972
     27 H11        -2.5377    0.5281   -0.4975 H         1 <0>         0.0972
     28 H12         2.2076    1.7789   -0.0088 H         1 <0>         0.1842
     29 H13         1.3174    4.2548    0.0120 H         1 <0>         0.1842
@<TRIPOS>BOND
     1    1    6 ar
     2    1    2 ar
     3    1   17 1
     4    2    3 ar
     5    2   18 1
     6    3    4 ar
     7    3   19 1
     8    4    5 ar
     9    4    7 1
    10    5    6 ar
    11    5   20 1
    12    6   21 1
    13    7    8 1
    14    7   22 1
    15    7   23 1
    16    8    9 1
    17    8   24 1
    18    8   25 1
    19    9   10 1
    20    9   26 1
    21    9   27 1
    22   10   15 am
    23   10   11 am
    24   11   12 2
    25   11   13 1
    26   13   14 2
    27   13   28 1
    28   14   15 1
    29   14   29 1
    30   15   16 2
@<TRIPOS>MOLECULE
ZINC13675198
   22    22     0     0     0
SMALL
USER_CHARGES
ethyl 2-(2,5-dioxopyrrol-1-yl)acetate
@<TRIPOS>ATOM
      1 C1          7.3786    0.7868   -3.2064 C.3       1 <0>        -0.1536
      2 C2          5.8517    0.7655   -3.1108 C.3       1 <0>         0.0627
      3 O1          5.4543    0.7518   -1.7143 O.3       1 <0>        -0.3526
      4 C3          4.1373    0.7324   -1.4557 C.2       1 <0>         0.4490
      5 O2          3.3429    0.7270   -2.3661 O.2       1 <0>        -0.4974
      6 C4          3.6495    0.7173   -0.0299 C.3       1 <0>         0.1244
      7 N1          2.1847    0.6973   -0.0151 N.am      1 <0>        -0.5813
      8 C5          1.3944    1.7858   -0.0017 C.2       1 <0>         0.5459
      9 O3          1.7740    2.9389    0.0003 O.2       1 <0>        -0.4496
     10 C6         -0.0161    1.3390    0.0094 C.2       1 <0>        -0.1342
     11 C7          0.0021   -0.0041    0.0020 C.2       1 <0>        -0.1341
     12 C8          1.4242   -0.4123   -0.0138 C.2       1 <0>         0.5459
     13 O4          1.8350   -1.5546   -0.0242 O.2       1 <0>        -0.4496
     14 H1          7.6769    0.7970   -4.2547 H         1 <0>         0.0832
     15 H2          7.7612    1.6791   -2.7109 H         1 <0>         0.0688
     16 H3          7.7853   -0.1007   -2.7215 H         1 <0>         0.0687
     17 H4          5.4690   -0.1268   -3.6062 H         1 <0>         0.0727
     18 H5          5.4449    1.6529   -3.5956 H         1 <0>         0.0727
     19 H6          4.0060    1.6091    0.4855 H         1 <0>         0.1414
     20 H7          4.0301   -0.1707    0.4749 H         1 <0>         0.1414
     21 H8         -0.8918    1.9711    0.0172 H         1 <0>         0.1878
     22 H9         -0.8561   -0.6598    0.0067 H         1 <0>         0.1878
@<TRIPOS>BOND
     1    1    2 1
     2    1   14 1
     3    1   15 1
     4    1   16 1
     5    2    3 1
     6    2   17 1
     7    2   18 1
     8    3    4 1
     9    4    5 2
    10    4    6 1
    11    6    7 1
    12    6   19 1
    13    6   20 1
    14    7   12 am
    15    7    8 am
    16    8    9 2
    17    8   10 1
    18   10   11 2
    19   10   21 1
    20   11   12 1
    21   11   22 1
    22   12   13 2
@<TRIPOS>MOLECULE
ZINC01688138
   13    13     0     0     0
SMALL
USER_CHARGES
1-methylpyrrole-2,5-dione
@<TRIPOS>ATOM
      1 C1         -2.4946    1.4859    0.0210 C.3       1 <0>         0.0815
      2 N1         -1.1161    1.9817    0.0175 N.am      1 <0>        -0.5941
      3 C2         -0.0144    1.2098    0.0087 C.2       1 <0>         0.5391
      4 O1          0.0021   -0.0041    0.0020 O.2       1 <0>        -0.4544
      5 C3          1.1739    2.0915    0.0021 C.2       1 <0>        -0.1401
      6 C4          0.7194    3.3554    0.0127 C.2       1 <0>        -0.1402
      7 C5         -0.7581    3.2783    0.0261 C.2       1 <0>         0.5392
      8 O2         -1.5184    4.2247    0.0376 O.2       1 <0>        -0.4544
      9 H1         -2.8320    1.3578    1.0495 H         1 <0>         0.0746
     10 H2         -3.1399    2.2031   -0.4863 H         1 <0>         0.0894
     11 H3         -2.5377    0.5281   -0.4975 H         1 <0>         0.0895
     12 H4          2.2076    1.7789   -0.0088 H         1 <0>         0.1849
     13 H5          1.3174    4.2548    0.0120 H         1 <0>         0.1849
@<TRIPOS>BOND
     1    1    2 1
     2    1    9 1
     3    1   10 1
     4    1   11 1
     5    2    7 am
     6    2    3 am
     7    3    4 2
     8    3    5 1
     9    5    6 2
    10    5   12 1
    11    6    7 1
    12    6   13 1
    13    7    8 2
@<TRIPOS>MOLECULE
ZINC14806879
   29    31     0     0     0
SMALL
USER_CHARGES

@<TRIPOS>ATOM
      1 C1         -0.0173    1.4248    0.0099 C.3       1 <0>         0.0271
      2 O1          0.0021   -0.0041    0.0020 O.3       1 <0>        -0.3168
      3 C2         -1.2010   -0.6378    0.0101 C.ar      1 <0>         0.1024
      4 C3         -2.3765    0.1026    0.0196 C.ar      1 <0>        -0.1700
      5 C4         -3.6033   -0.5286    0.0283 C.ar      1 <0>        -0.1033
      6 C5         -3.6754   -1.9173    0.0273 C.ar      1 <0>         0.1187
      7 C6         -2.4893   -2.6625    0.0173 C.ar      1 <0>        -0.0676
      8 C7         -1.2551   -2.0214    0.0032 C.ar      1 <0>        -0.0969
      9 C8         -2.8914   -4.0876    0.0188 C.2       1 <0>        -0.1578
     10 C9         -2.0671   -5.1903    0.0116 C.2       1 <0>         0.0629
     11 C10        -2.6439   -6.5349    0.0144 C.2       1 <0>        -0.0242
     12 C11        -1.9450   -7.7254    0.0136 C.2       1 <0>        -0.0035
     13 N1         -2.8729   -8.7189    0.0171 N.pl3     1 <0>        -0.5670
     14 H1         -2.6907   -9.6716    0.0177 H         1 <0>         0.4219
     15 C12        -4.1014   -8.1382    0.0200 C.2       1 <0>         0.1702
     16 N2         -3.9675   -6.8441    0.0243 N.2       1 <0>        -0.4045
     17 C13        -4.3615   -4.0702    0.0302 C.2       1 <0>         0.5403
     18 O2         -5.0890   -5.0470    0.0353 O.2       1 <0>        -0.4371
     19 N3         -4.7617   -2.7874    0.0347 N.am      1 <0>        -0.6638
     20 H2          1.0053    1.8021    0.0021 H         1 <0>         0.1005
     21 H3         -0.5445    1.7859   -0.8732 H         1 <0>         0.0556
     22 H4         -0.5275    1.7763    0.9067 H         1 <0>         0.0557
     23 H5         -2.3296    1.1815    0.0204 H         1 <0>         0.1351
     24 H6         -4.5103    0.0577    0.0364 H         1 <0>         0.1299
     25 H7         -0.3432   -2.6000   -0.0090 H         1 <0>         0.1360
     26 H8         -0.9947   -5.0627    0.0038 H         1 <0>         0.1494
     27 H9         -0.8715   -7.8442    0.0104 H         1 <0>         0.1860
     28 H10        -5.0423   -8.6684    0.0231 H         1 <0>         0.2076
     29 H11        -5.6893   -2.5039    0.0425 H         1 <0>         0.4133
@<TRIPOS>BOND
     1    1    2 1
     2    1   20 1
     3    1   21 1
     4    1   22 1
     5    2    3 1
     6    3    8 ar
     7    3    4 ar
     8    4    5 ar
     9    4   23 1
    10    5    6 ar
    11    5   24 1
    12    6   19 1
    13    6    7 ar
    14    7    8 ar
    15    7    9 1
    16    8   25 1
    17    9   10 2
    18    9   17 1
    19   10   11 1
    20   10   26 1
    21   11   16 1
    22   11   12 2
    23   12   13 1
    24   12   27 1
    25   13   14 1
    26   13   15 1
    27   15   16 2
    28   15   28 1
    29   17   18 2
    30   17   19 am
    31   19   29 1
@<TRIPOS>MOLECULE
ZINC13538555
   35    38     0     0     0
SMALL
USER_CHARGES
N-(5-bromo-6-phenyl-1H-pyrazolo[5,4-b]pyridin-3-yl)cyclopropanecarboxamide
@<TRIPOS>ATOM
      1 C1          4.0771   -8.5778   -0.0816 C.ar      1 <0>        -0.0972
      2 C2          2.8989   -8.3163   -0.7576 C.ar      1 <0>        -0.1238
      3 C3          2.3635   -7.0444   -0.7497 C.ar      1 <0>        -0.0798
      4 C4          3.0125   -6.0222   -0.0591 C.ar      1 <0>        -0.0689
      5 C5          4.2028   -6.2902    0.6152 C.ar      1 <0>        -0.0694
      6 C6          4.7256   -7.5674    0.6055 C.ar      1 <0>        -0.1276
      7 C7          2.4422   -4.6535   -0.0468 C.ar      1 <0>         0.2792
      8 C8          1.0710   -4.4840    0.1755 C.ar      1 <0>        -0.1837
      9 C9          0.5407   -3.2222    0.1880 C.ar      1 <0>         0.0431
     10 C10         1.4025   -2.1382   -0.0182 C.ar      1 <0>        -0.2311
     11 C11         2.7737   -2.3750   -0.2428 C.ar      1 <0>         0.3482
     12 N1          3.2401   -3.6168   -0.2457 N.ar      1 <0>        -0.4844
     13 N2          3.3599   -1.1500   -0.4169 N.pl3     1 <0>        -0.4825
     14 H1          4.3321   -0.9935   -0.5913 H         1 <0>         0.4585
     15 N3          2.3862   -0.1521   -0.3126 N.2       1 <0>        -0.2156
     16 C12         1.2174   -0.6889   -0.0817 C.2       1 <0>         0.3339
     17 N4          0.0095   -0.0017    0.0812 N.am      1 <0>        -0.6312
     18 C13        -0.0163    1.3435    0.0030 C.2       1 <0>         0.5378
     19 O1          1.0075    1.9585   -0.2086 O.2       1 <0>        -0.4824
     20 C14        -1.3183    2.0833    0.1723 C.3       1 <0>        -0.1968
     21 C15        -1.8980    2.7837   -1.0583 C.3       1 <0>        -0.1490
     22 C16        -1.2817    3.6096    0.0727 C.3       1 <0>        -0.1429
     23 Br1        -0.0412   -5.9873    0.4570 Br        1 <0>        -0.0141
     24 H2          4.4921   -9.5749   -0.0899 H         1 <0>         0.1261
     25 H3          2.3969   -9.1091   -1.2923 H         1 <0>         0.1289
     26 H4          1.4432   -6.8415   -1.2772 H         1 <0>         0.1313
     27 H5          4.7125   -5.5010    1.1478 H         1 <0>         0.1270
     28 H6          5.6452   -7.7773    1.1315 H         1 <0>         0.1278
     29 H7         -0.5145   -3.0665    0.3575 H         1 <0>         0.1519
     30 H8         -0.8093   -0.4935    0.2504 H         1 <0>         0.4249
     31 H9         -2.0216    1.6417    0.8784 H         1 <0>         0.1313
     32 H10        -1.3377    2.7095   -1.9903 H         1 <0>         0.1017
     33 H11        -2.9829    2.8030   -1.1620 H         1 <0>         0.1099
     34 H12        -1.9612    4.1722    0.7130 H         1 <0>         0.1086
     35 H13        -0.3159    4.0787   -0.1149 H         1 <0>         0.1104
@<TRIPOS>BOND
     1    1    6 ar
     2    1    2 ar
     3    1   24 1
     4    2    3 ar
     5    2   25 1
     6    3    4 ar
     7    3   26 1
     8    4    5 ar
     9    4    7 1
    10    5    6 ar
    11    5   27 1
    12    6   28 1
    13    7   12 ar
    14    7    8 ar
    15    8    9 ar
    16    8   23 1
    17    9   10 ar
    18    9   29 1
    19   10   16 1
    20   10   11 ar
    21   11   12 ar
    22   11   13 1
    23   13   14 1
    24   13   15 1
    25   15   16 2
    26   16   17 1
    27   17   18 am
    28   17   30 1
    29   18   19 2
    30   18   20 1
    31   20   22 1
    32   20   21 1
    33   20   31 1
    34   21   22 1
    35   21   32 1
    36   21   33 1
    37   22   34 1
    38   22   35 1
@<TRIPOS>MOLECULE
ZINC13597821
   29    32     0     0     0
SMALL
USER_CHARGES

@<TRIPOS>ATOM
      1 C1         -0.0166    1.3747    0.0096 C.ar      1 <0>        -0.1351
      2 C2          1.1715    2.0889    0.0021 C.ar      1 <0>        -0.1558
      3 C3          2.3855    1.4335   -0.0135 C.ar      1 <0>        -0.1218
      4 C4          2.4252    0.0445   -0.0218 C.ar      1 <0>         0.0729
      5 C5          1.2214   -0.6772   -0.0137 C.ar      1 <0>         0.0050
      6 C6          0.0021   -0.0041    0.0020 C.ar      1 <0>        -0.1283
      7 C7          1.5978   -2.1033   -0.0257 C.2       1 <0>        -0.4073
      8 C8          2.9951   -2.1359   -0.0400 C.2       1 <0>         0.4869
      9 N1          3.4697   -0.8656   -0.0376 N.pl3     1 <0>        -0.6262
     10 H1          4.4099   -0.6273   -0.0461 H         1 <0>         0.3986
     11 O1          3.7515   -3.2537   -0.0541 O.3       1 <0>        -0.6939
     12 C9          0.7215   -3.2139   -0.0224 C.2       1 <0>         0.3290
     13 N2          0.2356   -3.8187   -1.0822 N.2       1 <0>        -0.4601
     14 C10        -0.5829   -4.8606   -0.7652 C.ar      1 <0>         0.1157
     15 C11        -1.2960   -5.7560   -1.5635 C.ar      1 <0>        -0.1051
     16 C12        -2.0695   -6.7423   -0.9784 C.ar      1 <0>        -0.0810
     17 C13        -2.1481   -6.8571    0.3980 C.ar      1 <0>        -0.1494
     18 C14        -1.4485   -5.9800    1.2105 C.ar      1 <0>        -0.0317
     19 C15        -0.6689   -4.9852    0.6382 C.ar      1 <0>        -0.2474
     20 C16         0.1882   -3.9130    1.1902 C.2       1 <0>         0.3791
     21 O2          0.4068   -3.6573    2.3562 O.2       1 <0>        -0.3882
     22 H2         -0.9601    1.9000    0.0260 H         1 <0>         0.1069
     23 H3          1.1465    3.1686    0.0081 H         1 <0>         0.1089
     24 H4          3.3050    2.0001   -0.0196 H         1 <0>         0.1064
     25 H5         -0.9242   -0.5593    0.0075 H         1 <0>         0.1029
     26 H6         -1.2443   -5.6785   -2.6395 H         1 <0>         0.1325
     27 H7         -2.6188   -7.4307   -1.6035 H         1 <0>         0.1305
     28 H8         -2.7565   -7.6322    0.8400 H         1 <0>         0.1293
     29 H9         -1.5098   -6.0701    2.2850 H         1 <0>         0.1267
@<TRIPOS>BOND
     1    1    6 ar
     2    1    2 ar
     3    1   22 1
     4    2    3 ar
     5    2   23 1
     6    3    4 ar
     7    3   24 1
     8    4    9 1
     9    4    5 ar
    10    5    6 ar
    11    5    7 1
    12    6   25 1
    13    7    8 2
    14    7   12 1
    15    8    9 1
    16    8   11 1
    17    9   10 1
    18   12   20 1
    19   12   13 2
    20   13   14 1
    21   14   19 ar
    22   14   15 ar
    23   15   16 ar
    24   15   26 1
    25   16   17 ar
    26   16   27 1
    27   17   18 ar
    28   17   28 1
    29   18   19 ar
    30   18   29 1
    31   19   20 1
    32   20   21 2
@<TRIPOS>MOLECULE
ZINC05224686
   35    38     0     0     0
SMALL
USER_CHARGES
4,5-diphenyl-1H-pyrazolo[5,4-c]pyridazin-3-amine
@<TRIPOS>ATOM
      1 C1         -0.1922    6.6056   -0.7110 C.ar      1 <0>        -0.1050
      2 C2          0.6546    6.1644   -1.7122 C.ar      1 <0>        -0.1107
      3 C3          1.3739    4.9986   -1.5474 C.ar      1 <0>        -0.0845
      4 C4          1.2459    4.2643   -0.3679 C.ar      1 <0>        -0.0624
      5 C5          0.3862    4.7118    0.6357 C.ar      1 <0>        -0.1086
      6 C6         -0.3236    5.8820    0.4609 C.ar      1 <0>        -0.1145
      7 C7          2.0142    3.0126   -0.1847 C.ar      1 <0>         0.0620
      8 C8          1.3737    1.7597   -0.1281 C.ar      1 <0>        -0.1827
      9 C9         -0.0083    1.3020   -0.2101 C.2       1 <0>         0.3756
     10 N1          0.0008   -0.0007   -0.0903 N.2       1 <0>        -0.2874
     11 N2          1.3131   -0.4576    0.0690 N.pl3     1 <0>        -0.4815
     12 H1          1.5829   -1.4140    0.1805 H         1 <0>         0.4591
     13 C10         2.1694    0.6082    0.0484 C.ar      1 <0>         0.2762
     14 N3          3.4869    0.7375    0.1551 N.ar      1 <0>        -0.2462
     15 N4          4.0703    1.8794    0.1034 N.ar      1 <0>        -0.1604
     16 C11         3.4130    3.0238   -0.0600 C.ar      1 <0>         0.0599
     17 C12         4.1539    4.3061   -0.1109 C.ar      1 <0>        -0.0350
     18 C13         5.3311    4.4054   -0.8516 C.ar      1 <0>        -0.0841
     19 C14         6.0133    5.6040   -0.9002 C.ar      1 <0>        -0.1210
     20 C15         5.5382    6.7021   -0.2059 C.ar      1 <0>        -0.1070
     21 C16         4.3740    6.6080    0.5353 C.ar      1 <0>        -0.1194
     22 C17         3.6797    5.4165    0.5865 C.ar      1 <0>        -0.0911
     23 N5         -1.1362    2.1073   -0.3899 N.pl3     1 <0>        -0.8246
     24 H2         -0.7528    7.5189   -0.8447 H         1 <0>         0.1280
     25 H3          0.7526    6.7335   -2.6248 H         1 <0>         0.1295
     26 H4          2.0349    4.6554   -2.3295 H         1 <0>         0.1250
     27 H5          0.2795    4.1455    1.5491 H         1 <0>         0.1259
     28 H6         -0.9860    6.2318    1.2388 H         1 <0>         0.1305
     29 H7          5.7055    3.5474   -1.3901 H         1 <0>         0.1277
     30 H8          6.9228    5.6833   -1.4771 H         1 <0>         0.1271
     31 H9          6.0782    7.6367   -0.2429 H         1 <0>         0.1244
     32 H10         4.0074    7.4689    1.0747 H         1 <0>         0.1251
     33 H11         2.7707    5.3444    1.1652 H         1 <0>         0.1230
     34 H12        -2.0174    1.7045   -0.4358 H         1 <0>         0.4126
     35 H13        -1.0379    3.0691   -0.4688 H         1 <0>         0.4146
@<TRIPOS>BOND
     1    1    6 ar
     2    1    2 ar
     3    1   24 1
     4    2    3 ar
     5    2   25 1
     6    3    4 ar
     7    3   26 1
     8    4    5 ar
     9    4    7 1
    10    5    6 ar
    11    5   27 1
    12    6   28 1
    13    7   16 ar
    14    7    8 ar
    15    8   13 ar
    16    8    9 1
    17    9   10 2
    18    9   23 1
    19   10   11 1
    20   11   12 1
    21   11   13 1
    22   13   14 ar
    23   14   15 ar
    24   15   16 ar
    25   16   17 1
    26   17   22 ar
    27   17   18 ar
    28   18   19 ar
    29   18   29 1
    30   19   20 ar
    31   19   30 1
    32   20   21 ar
    33   20   31 1
    34   21   22 ar
    35   21   32 1
    36   22   33 1
    37   23   34 1
    38   23   35 1
@<TRIPOS>MOLECULE
ZINC00009357
   37    39     0     0     0
SMALL
USER_CHARGES
N-(3-phenyl-4,7,8-triazabicyclo[4.3.0]nona-2,4,8,10-tetraen-9-yl)butanamide
@<TRIPOS>ATOM
      1 C1         -6.4119    5.7249    0.0941 C.3       1 <0>        -0.1539
      2 C2         -5.4435    4.5405    0.0785 C.3       1 <0>        -0.1117
      3 C3         -4.0040    5.0587    0.0675 C.3       1 <0>        -0.1355
      4 C4         -3.0502    3.8921    0.0521 C.2       1 <0>         0.5049
      5 O1         -3.4795    2.7577    0.0501 O.2       1 <0>        -0.4842
      6 N1         -1.7201    4.1093    0.0406 N.am      1 <0>        -0.6371
      7 C5         -0.8343    3.0259    0.0263 C.2       1 <0>         0.3150
      8 C6          0.6240    3.1044    0.0128 C.ar      1 <0>        -0.1464
      9 C7          1.5578    4.1445    0.0099 C.ar      1 <0>        -0.0762
     10 C8          2.9069    3.8242   -0.0044 C.ar      1 <0>         0.1125
     11 N2          3.3108    2.5553   -0.0151 N.ar      1 <0>        -0.4311
     12 C9          2.4681    1.5471   -0.0128 C.ar      1 <0>         0.1142
     13 C10         1.0942    1.7737    0.0011 C.ar      1 <0>         0.0892
     14 N3         -0.0111    0.9658    0.0074 N.pl3     1 <0>        -0.4905
     15 H1          0.0025   -0.0341    0.0058 H         1 <0>         0.4557
     16 N4         -1.1626    1.7603    0.0165 N.2       1 <0>        -0.2185
     17 C11         3.9157    4.9118   -0.0082 C.ar      1 <0>        -0.0391
     18 C12         3.5076    6.2443   -0.0034 C.ar      1 <0>        -0.1086
     19 C13         4.4505    7.2521   -0.0027 C.ar      1 <0>        -0.1205
     20 C14         5.7984    6.9416   -0.0168 C.ar      1 <0>        -0.1130
     21 C15         6.2091    5.6208   -0.0265 C.ar      1 <0>        -0.1224
     22 C16         5.2750    4.6049   -0.0225 C.ar      1 <0>        -0.0851
     23 H2         -6.2356    6.3266    0.9857 H         1 <0>         0.0559
     24 H3         -6.2526    6.3362   -0.7941 H         1 <0>         0.0560
     25 H4         -7.4374    5.3557    0.1020 H         1 <0>         0.0603
     26 H5         -5.6198    3.9387   -0.8131 H         1 <0>         0.0714
     27 H6         -5.6028    3.9291    0.9668 H         1 <0>         0.0714
     28 H7         -3.8277    5.6605    0.9591 H         1 <0>         0.1003
     29 H8         -3.8447    5.6701   -0.8207 H         1 <0>         0.1003
     30 H9         -1.3767    5.0165    0.0422 H         1 <0>         0.4230
     31 H10         1.2356    5.1752    0.0181 H         1 <0>         0.1415
     32 H11         2.8440    0.5347   -0.0215 H         1 <0>         0.1685
     33 H12         2.4554    6.4878    0.0034 H         1 <0>         0.1240
     34 H13         4.1354    8.2851    0.0048 H         1 <0>         0.1258
     35 H14         6.5328    7.7335   -0.0200 H         1 <0>         0.1236
     36 H15         7.2628    5.3841   -0.0375 H         1 <0>         0.1256
     37 H16         5.5968    3.5740   -0.0300 H         1 <0>         0.1346
@<TRIPOS>BOND
     1    1    2 1
     2    1   23 1
     3    1   24 1
     4    1   25 1
     5    2    3 1
     6    2   26 1
     7    2   27 1
     8    3    4 1
     9    3   28 1
    10    3   29 1
    11    4    5 2
    12    4    6 am
    13    6    7 1
    14    6   30 1
    15    7   16 2
    16    7    8 1
    17    8   13 ar
    18    8    9 ar
    19    9   10 ar
    20    9   31 1
    21   10   11 ar
    22   10   17 1
    23   11   12 ar
    24   12   13 ar
    25   12   32 1
    26   13   14 1
    27   14   15 1
    28   14   16 1
    29   17   22 ar
    30   17   18 ar
    31   18   19 ar
    32   18   33 1
    33   19   20 ar
    34   19   34 1
    35   20   21 ar
    36   20   35 1
    37   21   22 ar
    38   21   36 1
    39   22   37 1
@<TRIPOS>MOLECULE
ZINC12355112
   41    43     0     0     0
SMALL
USER_CHARGES

@<TRIPOS>ATOM
      1 C1         -0.1028    1.0961   -0.3671 C.ar      1 <0>        -0.0514
      2 C2          0.1939    0.2453    0.6818 C.ar      1 <0>        -0.1484
      3 C3          1.4264   -0.3800    0.7402 C.ar      1 <0>         0.1639
      4 C4          2.3673   -0.1521   -0.2572 C.ar      1 <0>         0.0453
      5 C5          2.0653    0.7038   -1.3099 C.ar      1 <0>         0.1303
      6 C6          0.8305    1.3253   -1.3612 C.ar      1 <0>        -0.1508
      7 F1          2.9766    0.9287   -2.2816 F         1 <0>        -0.1242
      8 N1          3.6170   -0.7832   -0.2014 N.pl3     1 <0>        -0.5829
      9 C7          3.7027   -2.0774    0.1649 C.2       1 <0>         0.5287
     10 S1          2.2783   -2.9758    0.4732 S.2       1 <0>        -0.4610
     11 N2          4.9096   -2.6643    0.2886 N.pl3     1 <0>        -0.3704
     12 C8          5.1565   -3.9777    0.5555 C.2       1 <0>         0.6130
     13 N3          6.4609   -4.1414    0.5939 N.2       1 <0>        -0.5881
     14 C9          7.0702   -2.9726    0.3596 C.2       1 <0>         0.5344
     15 N4          6.1641   -2.0459    0.1621 N.2       1 <0>        -0.3900
     16 N5          8.4494   -2.7737    0.3248 N.pl3     1 <0>        -0.6253
     17 C10         9.3156   -3.8654    0.4276 C.ar      1 <0>         0.2308
     18 C11         8.9430   -5.1006   -0.0877 C.ar      1 <0>        -0.1475
     19 C12         9.8015   -6.1774    0.0157 C.ar      1 <0>         0.0049
     20 C13        11.0306   -6.0273    0.6313 C.ar      1 <0>        -0.6997
     21 C14        11.4044   -4.7993    1.1458 C.ar      1 <0>         0.0107
     22 C15        10.5534   -3.7167    1.0403 C.ar      1 <0>        -0.1718
     23 S2         12.1228   -7.4039    0.7609 S.o2      1 <0>         2.7036
     24 O1         12.9813   -7.1389    1.8619 O.2       1 <0>        -0.9640
     25 O2         11.3155   -8.5710    0.6881 O.2       1 <0>        -0.9611
     26 N6         13.0757   -7.4022   -0.5934 N.pl3     1 <0>        -1.2489
     27 N7          4.2074   -4.9604    0.7511 N.pl3     1 <0>        -0.7789
     28 F2          1.7155   -1.2107    1.7657 F         1 <0>        -0.0889
     29 H1         -1.0676    1.5793   -0.4122 H         1 <0>         0.1524
     30 H2         -0.5376    0.0691    1.4566 H         1 <0>         0.1538
     31 H3          0.5950    1.9905   -2.1789 H         1 <0>         0.1534
     32 H4          4.4206   -0.2887   -0.4264 H         1 <0>         0.4283
     33 H5          8.8079   -1.8774    0.2293 H         1 <0>         0.4322
     34 H6          7.9831   -5.2186   -0.5683 H         1 <0>         0.1467
     35 H7          9.5123   -7.1380   -0.3844 H         1 <0>         0.1464
     36 H8         12.3649   -4.6855    1.6262 H         1 <0>         0.1476
     37 H9         10.8481   -2.7567    1.4378 H         1 <0>         0.1386
     38 H10        13.9781   -7.7554   -0.5519 H         1 <0>         0.4215
     39 H11        12.7314   -7.0480   -1.4282 H         1 <0>         0.4170
     40 H12         3.2665   -4.7264    0.7830 H         1 <0>         0.4323
     41 H13         4.4811   -5.8849    0.8567 H         1 <0>         0.4174
@<TRIPOS>BOND
     1    1    6 ar
     2    1    2 ar
     3    1   29 1
     4    2    3 ar
     5    2   30 1
     6    3    4 ar
     7    3   28 1
     8    4    5 ar
     9    4    8 1
    10    5    6 ar
    11    5    7 1
    12    6   31 1
    13    8    9 1
    14    8   32 1
    15    9   10 2
    16    9   11 1
    17   11   15 1
    18   11   12 1
    19   12   13 2
    20   12   27 1
    21   13   14 1
    22   14   15 2
    23   14   16 1
    24   16   17 1
    25   16   33 1
    26   17   22 ar
    27   17   18 ar
    28   18   19 ar
    29   18   34 1
    30   19   20 ar
    31   19   35 1
    32   20   21 ar
    33   20   23 1
    34   21   22 ar
    35   21   36 1
    36   22   37 1
    37   23   24 2
    38   23   25 2
    39   23   26 1
    40   26   38 1
    41   26   39 1
    42   27   40 1
    43   27   41 1
@<TRIPOS>MOLECULE
ZINC00027361
   25    26     0     0     0
SMALL
USER_CHARGES

@<TRIPOS>ATOM
      1 C1         -0.0178    1.4608    0.0101 C.3       1 <0>         0.1357
      2 N1          0.0021   -0.0041    0.0020 N.am      1 <0>        -0.6248
      3 C2         -1.0449   -0.8567    0.0019 C.2       1 <0>         0.6732
      4 O1         -2.1925   -0.4520    0.0087 O.2       1 <0>        -0.5165
      5 N2         -0.7693   -2.1544   -0.0063 N.am      1 <0>        -0.5753
      6 C3          0.5347   -2.5056   -0.0139 C.2       1 <0>         0.4694
      7 O2          1.0169   -3.6232   -0.0227 O.2       1 <0>        -0.4283
      8 S1          1.3293   -1.0262   -0.0167 S.3       1 <0>         0.2579
      9 C4         -1.8327   -3.1620   -0.0067 C.3       1 <0>         0.1592
     10 C5         -2.2040   -3.4999   -1.4276 C.ar      1 <0>        -0.1254
     11 C6         -3.1939   -2.7823   -2.0726 C.ar      1 <0>        -0.0909
     12 C7         -3.5345   -3.0922   -3.3760 C.ar      1 <0>        -0.1249
     13 C8         -2.8850   -4.1196   -4.0345 C.ar      1 <0>        -0.1064
     14 C9         -1.8945   -4.8367   -3.3897 C.ar      1 <0>        -0.1240
     15 C10        -1.5510   -4.5239   -2.0878 C.ar      1 <0>        -0.0951
     16 H1          1.0048    1.8381    0.0023 H         1 <0>         0.0973
     17 H2         -0.5450    1.8219   -0.8730 H         1 <0>         0.0830
     18 H3         -0.5280    1.8123    0.9069 H         1 <0>         0.0838
     19 H4         -1.4819   -4.0607    0.5007 H         1 <0>         0.1095
     20 H5         -2.7061   -2.7687    0.5134 H         1 <0>         0.1105
     21 H6         -3.7013   -1.9796   -1.5582 H         1 <0>         0.1288
     22 H7         -4.3083   -2.5320   -3.8797 H         1 <0>         0.1253
     23 H8         -3.1516   -4.3622   -5.0525 H         1 <0>         0.1249
     24 H9         -1.3873   -5.6395   -3.9041 H         1 <0>         0.1260
     25 H10        -0.7746   -5.0817   -1.5853 H         1 <0>         0.1272
@<TRIPOS>BOND
     1    1    2 1
     2    1   16 1
     3    1   17 1
     4    1   18 1
     5    2    8 1
     6    2    3 am
     7    3    4 2
     8    3    5 am
     9    5    6 am
    10    5    9 1
    11    6    7 2
    12    6    8 1
    13    9   10 1
    14    9   19 1
    15    9   20 1
    16   10   15 ar
    17   10   11 ar
    18   11   12 ar
    19   11   21 1
    20   12   13 ar
    21   12   22 1
    22   13   14 ar
    23   13   23 1
    24   14   15 ar
    25   14   24 1
    26   15   25 1
@<TRIPOS>MOLECULE
ZINC13442468
   30    32     0     0     0
SMALL
USER_CHARGES
4-[5-[(3-iodophenyl)methylsulfanyl]-1,3,4-oxadiazol-2-yl]pyridine
@<TRIPOS>ATOM
      1 C1         -1.6725   -8.0669   -1.2239 C.ar      1 <0>        -0.1124
      2 C2         -1.1216   -6.7988   -1.2216 C.ar      1 <0>        -0.0774
      3 C3         -0.8351   -6.1716   -0.0237 C.ar      1 <0>        -0.0842
      4 C4         -1.0944   -6.8143    1.1725 C.ar      1 <0>        -0.0627
      5 C5         -1.6509   -8.0801    1.1706 C.ar      1 <0>        -0.1015
      6 C6         -1.9372   -8.7076   -0.0283 C.ar      1 <0>        -0.0715
      7 I1         -2.0520   -9.0510    2.9832 I         1 <0>        -0.0323
      8 C7         -0.2342   -4.7896   -0.0216 C.3       1 <0>        -0.0770
      9 S1         -1.5585   -3.5560   -0.0027 S.3       1 <0>         0.0856
     10 C8         -0.5997   -2.0777   -0.0034 C.2       1 <0>         0.1376
     11 N1          0.7123   -2.0016   -0.0155 N.2       1 <0>        -0.2823
     12 N2          1.0690   -0.7655   -0.0180 N.2       1 <0>        -0.2489
     13 C9          0.0021   -0.0041    0.0020 C.2       1 <0>         0.2044
     14 O1         -1.0764   -0.8189    0.0079 O.3       1 <0>        -0.1970
     15 C10        -0.0180    1.4727    0.0101 C.ar      1 <0>         0.0218
     16 C11        -1.2291    2.1763    0.0196 C.ar      1 <0>        -0.1399
     17 C12        -1.2009    3.5548    0.0323 C.ar      1 <0>         0.1069
     18 N3         -0.0551    4.2095    0.0248 N.ar      1 <0>        -0.4680
     19 C13         1.1081    3.5863    0.0108 C.ar      1 <0>         0.1074
     20 C14         1.1736    2.2090    0.0027 C.ar      1 <0>        -0.1223
     21 H1         -1.8956   -8.5570   -2.1601 H         1 <0>         0.1383
     22 H2         -0.9148   -6.2983   -2.1560 H         1 <0>         0.1359
     23 H3         -0.8661   -6.3262    2.1084 H         1 <0>         0.1350
     24 H4         -2.3671   -9.6984   -0.0302 H         1 <0>         0.1343
     25 H5          0.3737   -4.6564   -0.9165 H         1 <0>         0.1168
     26 H6          0.3900   -4.6662    0.8633 H         1 <0>         0.1152
     27 H7         -2.1705    1.6471    0.0211 H         1 <0>         0.1456
     28 H8         -2.1293    4.1064    0.0437 H         1 <0>         0.1685
     29 H9          2.0212    4.1629    0.0052 H         1 <0>         0.1707
     30 H10         2.1290    1.7056   -0.0088 H         1 <0>         0.1533
@<TRIPOS>BOND
     1    1    6 ar
     2    1    2 ar
     3    1   21 1
     4    2    3 ar
     5    2   22 1
     6    3    4 ar
     7    3    8 1
     8    4    5 ar
     9    4   23 1
    10    5    6 ar
    11    5    7 1
    12    6   24 1
    13    8    9 1
    14    8   25 1
    15    8   26 1
    16    9   10 1
    17   10   14 1
    18   10   11 2
    19   11   12 1
    20   12   13 2
    21   13   14 1
    22   13   15 1
    23   15   20 ar
    24   15   16 ar
    25   16   17 ar
    26   16   27 1
    27   17   18 ar
    28   17   28 1
    29   18   19 ar
    30   19   20 ar
    31   19   29 1
    32   20   30 1
@<TRIPOS>MOLECULE
ZINC03816409
   50    52     0     0     0
SMALL
USER_CHARGES
N-[5-[(5-tert-butyloxazol-2-yl)methylsulfanyl]thiazol-2-yl]piperidine-4-carboxamide
@<TRIPOS>ATOM
      1 C1         -0.0127    1.0858    0.0080 C.3       1 <0>        -0.1425
      2 C2         -0.7288    1.5792    1.2668 C.3       1 <0>         0.0153
      3 C3          0.0111    1.0724    2.5063 C.3       1 <0>        -0.1429
      4 C4         -0.7496    3.1091    1.2752 C.3       1 <0>        -0.1470
      5 C5         -2.1426    1.0576    1.2775 C.2       1 <0>        -0.0059
      6 C6         -2.5173   -0.2324    1.2742 C.2       1 <0>        -0.0384
      7 N1         -3.8616   -0.2670    1.2868 N.2       1 <0>        -0.4461
      8 C7         -4.3108    0.9556    1.2976 C.2       1 <0>         0.1754
      9 O1         -3.2687    1.7975    1.2981 O.3       1 <0>        -0.1872
     10 C8         -5.7633    1.3568    1.3132 C.3       1 <0>        -0.0274
     11 S1         -6.3302    1.5091    3.0296 S.3       1 <0>         0.0531
     12 C9         -8.0223    1.9770    2.8797 C.2       1 <0>        -0.2079
     13 C10        -8.9445    2.2293    3.8504 C.2       1 <0>         0.0730
     14 N2        -10.1733    2.5704    3.5096 N.2       1 <0>        -0.4781
     15 C11       -10.5307    2.6731    2.2430 C.2       1 <0>         0.3098
     16 S2         -9.0031    2.2599    1.4114 S.3       1 <0>         0.0397
     17 N3        -11.7659    3.0158    1.7000 N.am      1 <0>        -0.6146
     18 C12       -12.8034    3.3002    2.5119 C.2       1 <0>         0.5107
     19 O2        -12.6609    3.2576    3.7157 O.2       1 <0>        -0.4551
     20 C13       -14.1405    3.6713    1.9241 C.3       1 <0>        -0.1149
     21 C14       -13.9915    4.9332    1.0698 C.3       1 <0>        -0.1461
     22 C15       -15.3628    5.3397    0.5255 C.3       1 <0>         0.0009
     23 C16       -16.4761    4.3789    2.4515 C.3       1 <0>        -0.0009
     24 C17       -15.1380    3.9438    3.0534 C.3       1 <0>        -0.1323
     25 H1          0.0021   -0.0041    0.0020 H         1 <0>         0.0648
     26 H2          1.0099    1.4631    0.0003 H         1 <0>         0.0750
     27 H3         -0.5399    1.4469   -0.8751 H         1 <0>         0.0608
     28 H4          1.0337    1.4497    2.4986 H         1 <0>         0.0751
     29 H5         -0.4990    1.4239    3.4031 H         1 <0>         0.0616
     30 H6          0.0259   -0.0175    2.5003 H         1 <0>         0.0649
     31 H7         -1.2768    3.4701    0.3922 H         1 <0>         0.0605
     32 H8         -1.2598    3.4606    2.1720 H         1 <0>         0.0616
     33 H9          0.2730    3.4864    1.2675 H         1 <0>         0.0706
     34 H10        -1.8578   -1.0876    1.2633 H         1 <0>         0.1891
     35 H11        -5.8813    2.3140    0.8053 H         1 <0>         0.1204
     36 H12        -6.3553    0.5983    0.8010 H         1 <0>         0.1329
     37 H13        -8.6718    2.1504    4.8925 H         1 <0>         0.1794
     38 H14       -11.8799    3.0499    0.7373 H         1 <0>         0.4267
     39 H15       -14.5061    2.8521    1.3049 H         1 <0>         0.1234
     40 H16       -13.5885    5.7409    1.6809 H         1 <0>         0.0995
     41 H17       -13.3151    4.7324    0.2390 H         1 <0>         0.1172
     42 H18       -15.7590    4.5372   -0.0967 H         1 <0>         0.1349
     43 H19       -15.2623    6.2461   -0.0715 H         1 <0>         0.1387
     44 H20       -16.8671    3.5809    1.8204 H         1 <0>         0.1334
     45 H21       -17.1842    4.5877    3.2534 H         1 <0>         0.1392
     46 H22       -15.2808    3.0361    3.6398 H         1 <0>         0.1229
     47 H23       -14.7528    4.7354    3.6961 H         1 <0>         0.1008
     48 N4        -16.2857    5.6006    1.6466 N.4       1 <0>        -0.5187
     49 H24       -17.1928    5.9050    1.2741 H         1 <0>         0.4395
     50 H25       -15.8944    6.3401    2.2417 H         1 <0>         0.4347
@<TRIPOS>BOND
     1    1    2 1
     2    1   25 1
     3    1   26 1
     4    1   27 1
     5    2    3 1
     6    2    4 1
     7    2    5 1
     8    3   28 1
     9    3   29 1
    10    3   30 1
    11    4   31 1
    12    4   32 1
    13    4   33 1
    14    5    9 1
    15    5    6 2
    16    6    7 1
    17    6   34 1
    18    7    8 2
    19    8    9 1
    20    8   10 1
    21   10   11 1
    22   10   35 1
    23   10   36 1
    24   11   12 1
    25   12   16 1
    26   12   13 2
    27   13   14 1
    28   13   37 1
    29   14   15 2
    30   15   16 1
    31   15   17 1
    32   17   18 am
    33   17   38 1
    34   18   19 2
    35   18   20 1
    36   20   24 1
    37   20   21 1
    38   20   39 1
    39   21   22 1
    40   21   40 1
    41   21   41 1
    42   22   42 1
    43   22   43 1
    44   22   48 1
    45   23   24 1
    46   23   44 1
    47   23   45 1
    48   23   48 1
    49   24   46 1
    50   24   47 1
    51   48   49 1
    52   48   50 1
@<TRIPOS>MOLECULE
ZINC01639355
   31    34     0     0     0
SMALL
USER_CHARGES

@<TRIPOS>ATOM
      1 C1         -0.0166    1.3732    0.0096 C.ar      1 <0>        -0.1257
      2 C2          1.1748    2.0786    0.0020 C.ar      1 <0>        -0.0832
      3 C3          2.3792    1.4098    0.0056 C.ar      1 <0>        -0.1400
      4 C4          2.4210    0.0136    0.0061 C.ar      1 <0>         0.1789
      5 C5          1.2194   -0.6945   -0.0178 C.ar      1 <0>        -0.0582
      6 C6          0.0021   -0.0041    0.0020 C.ar      1 <0>        -0.0848
      7 C7          1.1765   -2.1700   -0.1110 C.2       1 <0>         0.1249
      8 C8          2.0458   -2.9289   -0.8258 C.2       1 <0>        -0.1473
      9 C9          1.6305   -4.3071   -0.6826 C.ar      1 <0>        -0.0956
     10 C10         2.1330   -5.5059   -1.2017 C.ar      1 <0>        -0.0291
     11 C11         1.4744   -6.6587   -0.8492 C.ar      1 <0>        -0.1144
     12 C12         0.3640   -6.6479   -0.0195 C.ar      1 <0>        -0.0709
     13 C13        -0.1535   -5.4768    0.5077 C.ar      1 <0>        -0.1209
     14 C14         0.4938   -4.2910    0.1676 C.ar      1 <0>         0.1207
     15 N1          0.2503   -2.9898    0.5038 N.pl3     1 <0>        -0.5782
     16 H1         -0.4640   -2.6874    1.0863 H         1 <0>         0.4210
     17 Br1         2.1020   -8.3126   -1.5175 Br        1 <0>        -0.0539
     18 C15         3.2306   -2.3907   -1.5888 C.3       1 <0>        -0.0636
     19 C16         4.1060   -1.6483   -0.6094 C.2       1 <0>         0.5307
     20 O1          5.2428   -2.0303   -0.4280 O.2       1 <0>        -0.5234
     21 N2          3.6660   -0.5863    0.0608 N.am      1 <0>        -0.6636
     22 H2         -0.9584    1.9016    0.0259 H         1 <0>         0.1335
     23 H3          1.1598    3.1584   -0.0064 H         1 <0>         0.1345
     24 H4          3.3016    1.9714    0.0076 H         1 <0>         0.1356
     25 H5         -0.9274   -0.5540    0.0114 H         1 <0>         0.1274
     26 H6          2.9973   -5.5236   -1.8490 H         1 <0>         0.1433
     27 H7         -0.1141   -7.5852    0.2239 H         1 <0>         0.1348
     28 H8         -1.0196   -5.4824    1.1528 H         1 <0>         0.1402
     29 H9          3.7892   -3.2143   -2.0334 H         1 <0>         0.1154
     30 H10         2.8897   -1.7104   -2.3693 H         1 <0>         0.1052
     31 H11         4.3030   -0.1787    0.6682 H         1 <0>         0.4064
@<TRIPOS>BOND
     1    1    6 ar
     2    1    2 ar
     3    1   22 1
     4    2    3 ar
     5    2   23 1
     6    3    4 ar
     7    3   24 1
     8    4   21 1
     9    4    5 ar
    10    5    6 ar
    11    5    7 1
    12    6   25 1
    13    7   15 1
    14    7    8 2
    15    8    9 1
    16    8   18 1
    17    9   14 ar
    18    9   10 ar
    19   10   11 ar
    20   10   26 1
    21   11   12 ar
    22   11   17 1
    23   12   13 ar
    24   12   27 1
    25   13   14 ar
    26   13   28 1
    27   14   15 1
    28   15   16 1
    29   18   19 1
    30   18   29 1
    31   18   30 1
    32   19   20 2
    33   19   21 am
    34   21   31 1
@<TRIPOS>MOLECULE
ZINC00039111
   31    33     0     0     0
SMALL
USER_CHARGES

@<TRIPOS>ATOM
      1 C1          0.9742   -0.2756   -0.9644 C.ar      1 <0>        -0.0745
      2 C2          2.1570    0.4328   -0.9701 C.ar      1 <0>        -0.1346
      3 C3          2.3856    1.4156   -0.0177 C.ar      1 <0>         0.1033
      4 C4          1.4202    1.6919    0.9495 C.ar      1 <0>         0.0786
      5 C5          0.2328    0.9864    0.9617 C.ar      1 <0>        -0.0758
      6 C6          0.0021   -0.0041    0.0020 C.ar      1 <0>        -0.0456
      7 C7         -1.2635   -0.7604    0.0100 C.2       1 <0>         0.1403
      8 C8         -2.4368   -0.0754    0.1235 C.2       1 <0>        -0.0467
      9 C9         -3.6626   -0.7880    0.1323 C.2       1 <0>         0.4008
     10 O1         -4.7322   -0.2087    0.2318 O.2       1 <0>        -0.4629
     11 C10        -3.5944   -2.2557    0.0159 C.ar      1 <0>        -0.2366
     12 C11        -4.7512   -3.0365    0.0154 C.ar      1 <0>        -0.0073
     13 C12        -4.6525   -4.3943   -0.0945 C.ar      1 <0>        -0.1753
     14 C13        -3.4042   -5.0031   -0.2055 C.ar      1 <0>         0.1824
     15 C14        -2.2474   -4.2422   -0.2064 C.ar      1 <0>        -0.1738
     16 C15        -2.3310   -2.8613   -0.0960 C.ar      1 <0>         0.1711
     17 O2         -1.2180   -2.0989   -0.1002 O.3       1 <0>        -0.1986
     18 O3         -3.3214   -6.3539   -0.3130 O.3       1 <0>        -0.4899
     19 O4         -2.4315    1.2815    0.2279 O.3       1 <0>        -0.4510
     20 O5          1.6479    2.6559    1.8814 O.3       1 <0>        -0.4836
     21 O6          3.5534    2.1101   -0.0273 O.3       1 <0>        -0.4861
     22 H1          0.7972   -1.0372   -1.7094 H         1 <0>         0.1379
     23 H2          2.9076    0.2220   -1.7175 H         1 <0>         0.1421
     24 H3         -0.5155    1.1990    1.7108 H         1 <0>         0.1431
     25 H4         -5.7208   -2.5688    0.1018 H         1 <0>         0.1490
     26 H5         -5.5471   -4.9994   -0.0951 H         1 <0>         0.1454
     27 H6         -1.2834   -4.7216   -0.2925 H         1 <0>         0.1536
     28 H7         -3.3428   -6.6780   -1.2239 H         1 <0>         0.4038
     29 H8         -3.3122    1.6736    0.3036 H         1 <0>         0.4078
     30 H9          1.3507    3.5371    1.6164 H         1 <0>         0.3905
     31 H10         3.5286    2.9137   -0.5648 H         1 <0>         0.3925
@<TRIPOS>BOND
     1    1    6 ar
     2    1    2 ar
     3    1   22 1
     4    2    3 ar
     5    2   23 1
     6    3    4 ar
     7    3   21 1
     8    4    5 ar
     9    4   20 1
    10    5    6 ar
    11    5   24 1
    12    6    7 1
    13    7   17 1
    14    7    8 2
    15    8    9 1
    16    8   19 1
    17    9   10 2
    18    9   11 1
    19   11   16 ar
    20   11   12 ar
    21   12   13 ar
    22   12   25 1
    23   13   14 ar
    24   13   26 1
    25   14   15 ar
    26   14   18 1
    27   15   16 ar
    28   15   27 1
    29   16   17 1
    30   18   28 1
    31   19   29 1
    32   20   30 1
    33   21   31 1
@<TRIPOS>MOLECULE
ZINC02526465
   35    37     0     0     0
SMALL
USER_CHARGES

@<TRIPOS>ATOM
      1 C1         -0.6297    1.0732    0.2401 C.ar      1 <0>        -0.0643
      2 C2          0.4428    1.9449    0.3147 C.ar      1 <0>        -0.1043
      3 C3          1.7387    1.4606    0.2936 C.ar      1 <0>        -0.0525
      4 C4          1.9699    0.1039    0.1974 C.ar      1 <0>        -0.0314
      5 C5          0.8927   -0.7809    0.1218 C.ar      1 <0>         0.0333
      6 C6         -0.4128   -0.2854    0.1441 C.ar      1 <0>        -0.0890
      7 C7          1.1329   -2.2362    0.0180 C.2       1 <0>        -0.1314
      8 C8          1.0020   -3.0114   -1.1048 C.2       1 <0>         0.1526
      9 C9          1.3530   -4.3938   -0.6991 C.2       1 <0>         0.5523
     10 O1          1.3554   -5.3678   -1.4239 O.2       1 <0>        -0.4342
     11 N1          1.6686   -4.3851    0.6078 N.am      1 <0>        -0.6765
     12 C10         1.5668   -3.1388    1.1007 C.2       1 <0>         0.5856
     13 O2          1.7920   -2.8106    2.2487 O.2       1 <0>        -0.4491
     14 N2          0.6200   -2.5904   -2.3597 N.pl3     1 <0>        -0.6474
     15 C11        -0.4977   -3.1573   -2.9764 C.ar      1 <0>         0.1937
     16 C12        -1.3137   -4.0319   -2.2686 C.ar      1 <0>        -0.1450
     17 C13        -2.4185   -4.5915   -2.8786 C.ar      1 <0>        -0.0866
     18 C14        -2.7149   -4.2814   -4.1979 C.ar      1 <0>         0.0834
     19 C15        -1.9009   -3.4079   -4.9065 C.ar      1 <0>        -0.0220
     20 C16        -0.7978   -2.8428   -4.2962 C.ar      1 <0>        -0.1463
     21 Cl1        -2.2726   -3.0212   -6.5575 Cl        1 <0>        -0.0462
     22 O3         -3.8032   -4.8337   -4.7977 O.3       1 <0>        -0.4834
     23 N3          3.3571   -0.4124    0.1740 N.pl3     1 <0>         0.0359
     24 O4          4.2889    0.3551    0.2392 O.2       1 <0>        -0.1413
     25 O5          3.5581   -1.6016    0.0897 O.3       1 <0>        -0.1635
     26 H1         -1.6388    1.4575    0.2615 H         1 <0>         0.1511
     27 H2          0.2674    3.0079    0.3894 H         1 <0>         0.1535
     28 H3          2.5711    2.1462    0.3522 H         1 <0>         0.1602
     29 H4         -1.2505   -0.9644    0.0859 H         1 <0>         0.1508
     30 H5          1.9348   -5.1647    1.1199 H         1 <0>         0.4361
     31 H6          1.1273   -1.9002   -2.8149 H         1 <0>         0.4229
     32 H7         -1.0832   -4.2740   -1.2417 H         1 <0>         0.1255
     33 H8         -3.0522   -5.2714   -2.3285 H         1 <0>         0.1446
     34 H9         -0.1669   -2.1598   -4.8457 H         1 <0>         0.1422
     35 H10        -4.6125   -4.3134   -4.7002 H         1 <0>         0.3911
@<TRIPOS>BOND
     1    1    6 ar
     2    1    2 ar
     3    1   26 1
     4    2    3 ar
     5    2   27 1
     6    3    4 ar
     7    3   28 1
     8    4    5 ar
     9    4   23 1
    10    5    6 ar
    11    5    7 1
    12    6   29 1
    13    7   12 1
    14    7    8 2
    15    8    9 1
    16    8   14 1
    17    9   10 2
    18    9   11 am
    19   11   12 am
    20   11   30 1
    21   12   13 2
    22   14   15 1
    23   14   31 1
    24   15   20 ar
    25   15   16 ar
    26   16   17 ar
    27   16   32 1
    28   17   18 ar
    29   17   33 1
    30   18   19 ar
    31   18   22 1
    32   19   20 ar
    33   19   21 1
    34   20   34 1
    35   22   35 1
    36   23   24 2
    37   23   25 1
@<TRIPOS>MOLECULE
ZINC13588927
   30    33     0     0     0
SMALL
USER_CHARGES
bromoBLAHone
@<TRIPOS>ATOM
      1 C1          3.2992    9.9759   -0.2901 C.ar      1 <0>        -0.1376
      2 C2          3.9476    9.0095    0.4580 C.ar      1 <0>        -0.0973
      3 C3          3.3536    7.7515    0.6037 C.ar      1 <0>         0.1334
      4 C4          2.1422    7.5111   -0.0455 C.ar      1 <0>         0.1531
      5 N1          1.5506    8.4815   -0.7447 N.ar      1 <0>        -0.4587
      6 C5          2.0830    9.6758   -0.8770 C.ar      1 <0>         0.1000
      7 C6          1.4734    6.1933    0.0043 C.2       1 <0>         0.1319
      8 C7          2.1135    4.9960    0.0114 C.2       1 <0>        -0.1371
      9 C8          1.0984    3.9664    0.0121 C.ar      1 <0>        -0.0983
     10 C9          1.1688    2.5683    0.0047 C.ar      1 <0>        -0.0266
     11 C10        -0.0236    1.8867    0.0124 C.ar      1 <0>        -0.1153
     12 C11        -1.2454    2.5417    0.0219 C.ar      1 <0>        -0.0686
     13 C12        -1.3439    3.9225    0.0332 C.ar      1 <0>        -0.1199
     14 C13        -0.1504    4.6417    0.0246 C.ar      1 <0>         0.1244
     15 N2          0.1079    5.9822    0.0257 N.pl3     1 <0>        -0.5641
     16 H1         -0.5651    6.6806    0.0399 H         1 <0>         0.4255
     17 Br1         0.0021   -0.0041    0.0020 Br        1 <0>        -0.0534
     18 C14         3.6123    4.8240    0.0353 C.3       1 <0>        -0.0657
     19 C15         4.1374    5.5314    1.2598 C.2       1 <0>         0.5313
     20 O1          4.7207    4.8890    2.1073 O.2       1 <0>        -0.5173
     21 N3          3.9784    6.8414    1.4359 N.am      1 <0>        -0.6598
     22 H2          3.7384   10.9547   -0.4151 H         1 <0>         0.1486
     23 H3          4.8988    9.2232    0.9227 H         1 <0>         0.1492
     24 H4          1.5655   10.4309   -1.4500 H         1 <0>         0.1687
     25 H5          2.1162    2.0499   -0.0069 H         1 <0>         0.1440
     26 H6         -2.1517    1.9544    0.0248 H         1 <0>         0.1354
     27 H7         -2.3025    4.4198    0.0447 H         1 <0>         0.1412
     28 H8          3.8616    3.7641    0.0858 H         1 <0>         0.1190
     29 H9          4.0489    5.2645   -0.8611 H         1 <0>         0.1057
     30 H10         4.3497    7.2049    2.2550 H         1 <0>         0.4081
@<TRIPOS>BOND
     1    1    6 ar
     2    1    2 ar
     3    1   22 1
     4    2    3 ar
     5    2   23 1
     6    3   21 1
     7    3    4 ar
     8    4    5 ar
     9    4    7 1
    10    5    6 ar
    11    6   24 1
    12    7   15 1
    13    7    8 2
    14    8    9 1
    15    8   18 1
    16    9   14 ar
    17    9   10 ar
    18   10   11 ar
    19   10   25 1
    20   11   12 ar
    21   11   17 1
    22   12   13 ar
    23   12   26 1
    24   13   14 ar
    25   13   27 1
    26   14   15 1
    27   15   16 1
    28   18   19 1
    29   18   28 1
    30   18   29 1
    31   19   20 2
    32   19   21 am
    33   21   30 1
@<TRIPOS>MOLECULE
ZINC13588925
   32    35     0     0     0
SMALL
USER_CHARGES

@<TRIPOS>ATOM
      1 C1         -0.0143    1.3784   -0.0472 C.ar      1 <0>        -0.1491
      2 C2          1.1684    2.0824    0.1059 C.ar      1 <0>        -0.0587
      3 C3          2.3775    1.4201    0.1617 C.ar      1 <0>        -0.1427
      4 C4          2.4195    0.0322    0.0643 C.ar      1 <0>         0.1622
      5 C5          1.2216   -0.6755   -0.0899 C.ar      1 <0>        -0.1623
      6 C6          0.0077    0.0018   -0.1451 C.ar      1 <0>        -0.0256
      7 C7          1.5784   -2.1122   -0.1640 C.2       1 <0>         0.1812
      8 N1          0.7675   -3.1257   -0.3073 N.2       1 <0>        -0.2637
      9 O1         -0.6277   -2.9070   -0.4103 O.3       1 <0>        -0.3779
     10 C8          3.0518   -2.1494   -0.0404 C.2       1 <0>         0.3076
     11 C9          3.8487   -3.2858   -0.0553 C.2       1 <0>        -0.2122
     12 C10         3.4078   -4.6941    0.0365 C.ar      1 <0>        -0.0752
     13 C11         2.1595   -5.2974    0.1580 C.ar      1 <0>        -0.0511
     14 C12         2.0679   -6.6733    0.2220 C.ar      1 <0>        -0.1246
     15 C13         3.2146   -7.4494    0.1658 C.ar      1 <0>        -0.0530
     16 C14         4.4569   -6.8608    0.0453 C.ar      1 <0>        -0.1331
     17 C15         4.5698   -5.4764   -0.0211 C.ar      1 <0>         0.1576
     18 N2          5.6748   -4.6425   -0.1406 N.am      1 <0>        -0.6474
     19 C16         5.3104   -3.3493   -0.1720 C.2       1 <0>         0.5708
     20 O2          6.0621   -2.3963   -0.2763 O.2       1 <0>        -0.5180
     21 I1          0.1927   -7.5894    0.4050 I         1 <0>        -0.0393
     22 N3          3.4859   -0.8573    0.0909 N.pl3     1 <0>        -0.6150
     23 H1         -0.9554    1.9069   -0.0855 H         1 <0>         0.1364
     24 H2          1.1442    3.1594    0.1819 H         1 <0>         0.1383
     25 H3          3.2934    1.9799    0.2810 H         1 <0>         0.1349
     26 H4         -0.9144   -0.5477   -0.2642 H         1 <0>         0.1394
     27 H5         -1.1461   -3.7167   -0.5138 H         1 <0>         0.4138
     28 H6          1.2664   -4.6917    0.2025 H         1 <0>         0.1727
     29 H7          3.1352   -8.5253    0.2171 H         1 <0>         0.1366
     30 H8          5.3432   -7.4765    0.0029 H         1 <0>         0.1366
     31 H9          6.5916   -4.9540   -0.1983 H         1 <0>         0.4214
     32 H10         4.4153   -0.5976    0.1894 H         1 <0>         0.4396
@<TRIPOS>BOND
     1    1    6 ar
     2    1    2 ar
     3    1   23 1
     4    2    3 ar
     5    2   24 1
     6    3    4 ar
     7    3   25 1
     8    4   22 1
     9    4    5 ar
    10    5    6 ar
    11    5    7 1
    12    6   26 1
    13    7    8 2
    14    7   10 1
    15    8    9 1
    16    9   27 1
    17   10   11 2
    18   10   22 1
    19   11   19 1
    20   11   12 1
    21   12   17 ar
    22   12   13 ar
    23   13   14 ar
    24   13   28 1
    25   14   15 ar
    26   14   21 1
    27   15   16 ar
    28   15   29 1
    29   16   17 ar
    30   16   30 1
    31   17   18 1
    32   18   19 am
    33   18   31 1
    34   19   20 2
    35   22   32 1
@<TRIPOS>MOLECULE
ZINC13588925
   32    35     0     0     0
SMALL
USER_CHARGES

@<TRIPOS>ATOM
      1 C1         -0.0166    1.3757    0.0096 C.ar      1 <0>        -0.1157
      2 C2          1.1722    2.0867    0.0021 C.ar      1 <0>        -0.1041
      3 C3          2.3841    1.4282   -0.0135 C.ar      1 <0>        -0.1115
      4 C4          2.4231    0.0368   -0.0214 C.ar      1 <0>         0.0632
      5 C5          1.2189   -0.6781   -0.0133 C.ar      1 <0>        -0.0616
      6 C6          0.0021   -0.0041    0.0020 C.ar      1 <0>        -0.0747
      7 C7          1.5783   -2.1151   -0.0241 C.2       1 <0>        -0.1706
      8 C8          3.0469   -2.1434   -0.0386 C.2       1 <0>         0.3429
      9 N1          3.4869   -0.8540   -0.0363 N.pl3     1 <0>        -0.5358
     10 H1          4.4210   -0.5930   -0.0441 H         1 <0>         0.4271
     11 C9          3.8545   -3.2957   -0.0519 C.2       1 <0>        -0.2024
     12 C10         4.3575   -4.0137   -1.2405 C.ar      1 <0>        -0.0518
     13 C11         4.2198   -3.8184   -2.6117 C.ar      1 <0>        -0.0403
     14 C12         4.8301   -4.6893   -3.4905 C.ar      1 <0>        -0.1066
     15 C13         5.5775   -5.7545   -3.0113 C.ar      1 <0>        -0.0672
     16 C14         5.7204   -5.9581   -1.6547 C.ar      1 <0>        -0.1072
     17 C15         5.1131   -5.0907   -0.7540 C.ar      1 <0>         0.1146
     18 N2          5.0816   -5.0447    0.6302 N.pl3     1 <0>        -0.5770
     19 H2          5.5269   -5.6786    1.2139 H         1 <0>         0.4257
     20 C16         4.3477   -3.9882    1.0561 C.2       1 <0>         0.3392
     21 O1          4.1258   -3.6593    2.3462 O.3       1 <0>        -0.4580
     22 I1          4.6265   -4.4019   -5.5557 I         1 <0>        -0.0291
     23 N3          0.7595   -3.1433   -0.0209 N.2       1 <0>        -0.2829
     24 O2         -0.4450   -2.9626   -0.0083 O.2       1 <0>         0.0229
     25 H3         -0.9595    1.9021    0.0260 H         1 <0>         0.1339
     26 H4          1.1499    3.1664    0.0081 H         1 <0>         0.1331
     27 H5          3.3045    1.9933   -0.0200 H         1 <0>         0.1259
     28 H6         -0.9246   -0.5587    0.0075 H         1 <0>         0.1457
     29 H7          3.6376   -2.9893   -2.9858 H         1 <0>         0.1303
     30 H8          6.0517   -6.4312   -3.7067 H         1 <0>         0.1406
     31 H9          6.3041   -6.7913   -1.2923 H         1 <0>         0.1381
     32 H10         3.3379   -4.0708    2.7270 H         1 <0>         0.4134
@<TRIPOS>BOND
     1    1    6 ar
     2    1    2 ar
     3    1   25 1
     4    2    3 ar
     5    2   26 1
     6    3    4 ar
     7    3   27 1
     8    4    9 1
     9    4    5 ar
    10    5    6 ar
    11    5    7 1
    12    6   28 1
    13    7    8 2
    14    7   23 1
    15    8    9 1
    16    8   11 1
    17    9   10 1
    18   11   20 2
    19   11   12 1
    20   12   17 ar
    21   12   13 ar
    22   13   14 ar
    23   13   29 1
    24   14   15 ar
    25   14   22 1
    26   15   16 ar
    27   15   30 1
    28   16   17 ar
    29   16   31 1
    30   17   18 1
    31   18   19 1
    32   18   20 1
    33   20   21 1
    34   21   32 1
    35   23   24 2
@<TRIPOS>MOLECULE
ZINC16052235
   38    41     0     0     0
SMALL
USER_CHARGES

@<TRIPOS>ATOM
      1 C1          1.7433    1.3647   -0.2912 C.3       1 <0>        -0.0949
      2 C2          1.4007   -0.1015   -0.2295 C.2       1 <0>         0.0949
      3 C3          1.0377   -0.8790   -1.2747 C.2       1 <0>        -0.2668
      4 C4          0.8073   -2.1758   -0.7875 C.2       1 <0>         0.3069
      5 N1          1.0265   -2.1689    0.5064 N.2       1 <0>        -0.3236
      6 N2          1.4071   -0.8731    0.8779 N.pl3     1 <0>        -0.4666
      7 H1          1.6335   -0.5808    1.7747 H         1 <0>         0.4409
      8 N3          0.4123   -3.2827   -1.5491 N.pl3     1 <0>        -0.6012
      9 C5          0.1142   -3.1284   -2.8870 C.ar      1 <0>         0.4811
     10 C6         -0.1731   -4.2522   -3.7021 C.ar      1 <0>        -0.1905
     11 C7         -0.1691   -5.5560   -3.1957 C.ar      1 <0>        -0.0724
     12 C8         -0.4535   -6.6007   -4.0258 C.ar      1 <0>        -0.1280
     13 C9         -0.7471   -6.3868   -5.3696 C.ar      1 <0>        -0.0715
     14 C10        -0.7589   -5.1287   -5.8943 C.ar      1 <0>        -0.1072
     15 C11        -0.4722   -4.0318   -5.0693 C.ar      1 <0>         0.1944
     16 N4         -0.4717   -2.7757   -5.5360 N.ar      1 <0>        -0.5341
     17 C12        -0.1971   -1.7645   -4.7334 C.ar      1 <0>         0.4082
     18 N5          0.0838   -1.9259   -3.4418 N.ar      1 <0>        -0.5658
     19 C13        -0.2073   -0.3910   -5.2921 C.ar      1 <0>        -0.0493
     20 C14         0.0045    0.7053   -4.4576 C.ar      1 <0>        -0.0741
     21 C15        -0.0056    1.9813   -4.9831 C.ar      1 <0>        -0.1317
     22 C16        -0.2260    2.1736   -6.3352 C.ar      1 <0>        -0.0978
     23 C17        -0.4368    1.0894   -7.1681 C.ar      1 <0>        -0.1313
     24 C18        -0.4232   -0.1915   -6.6547 C.ar      1 <0>        -0.0669
     25 H2          2.8111    1.4808   -0.4769 H         1 <0>         0.0832
     26 H3          1.1811    1.8356   -1.0976 H         1 <0>         0.0889
     27 H4          1.4857    1.8383    0.6561 H         1 <0>         0.0730
     28 H5          0.9420   -0.5594   -2.3019 H         1 <0>         0.1821
     29 H6          0.3483   -4.1579   -1.1358 H         1 <0>         0.4268
     30 H7          0.0579   -5.7344   -2.1551 H         1 <0>         0.1273
     31 H8         -0.4504   -7.6075   -3.6350 H         1 <0>         0.1330
     32 H9         -0.9685   -7.2306   -6.0063 H         1 <0>         0.1358
     33 H10        -0.9878   -4.9778   -6.9389 H         1 <0>         0.1425
     34 H11         0.1760    0.5564   -3.4017 H         1 <0>         0.1369
     35 H12         0.1584    2.8314   -4.3375 H         1 <0>         0.1276
     36 H13        -0.2338    3.1740   -6.7420 H         1 <0>         0.1251
     37 H14        -0.6087    1.2455   -8.2228 H         1 <0>         0.1278
     38 H15        -0.5835   -1.0375   -7.3066 H         1 <0>         0.1374
@<TRIPOS>BOND
     1    1    2 1
     2    1   25 1
     3    1   26 1
     4    1   27 1
     5    2    6 1
     6    2    3 2
     7    3    4 1
     8    3   28 1
     9    4    5 2
    10    4    8 1
    11    5    6 1
    12    6    7 1
    13    8    9 1
    14    8   29 1
    15    9   18 ar
    16    9   10 ar
    17   10   15 ar
    18   10   11 ar
    19   11   12 ar
    20   11   30 1
    21   12   13 ar
    22   12   31 1
    23   13   14 ar
    24   13   32 1
    25   14   15 ar
    26   14   33 1
    27   15   16 ar
    28   16   17 ar
    29   17   18 ar
    30   17   19 1
    31   19   24 ar
    32   19   20 ar
    33   20   21 ar
    34   20   34 1
    35   21   22 ar
    36   21   35 1
    37   22   23 ar
    38   22   36 1
    39   23   24 ar
    40   23   37 1
    41   24   38 1
@<TRIPOS>MOLECULE
ZINC13581272
   63    69     0     0     0
SMALL
USER_CHARGES
3-imidazo[3,2-a]pyridin-3-yl-4-(piperidine-1-carbonylBLAHyl)pyrrole-2,5-dione
@<TRIPOS>ATOM
      1 C1         -1.9985    3.2992    4.3777 C.2       1 <0>        -0.0944
      2 C2         -0.6850    3.1116    4.8310 C.2       1 <0>        -0.1354
      3 C3         -0.2514    1.8748    5.1645 C.2       1 <0>         0.0622
      4 N1         -1.0809    0.7990    5.0652 N.pl3     1 <0>        -0.3380
      5 C4         -2.3691    0.9499    4.6258 C.2       1 <0>         0.2348
      6 C5         -2.8366    2.2284    4.2749 C.2       1 <0>        -0.0812
      7 N2         -2.9579   -0.2445    4.6176 N.2       1 <0>        -0.4890
      8 C6         -2.1076   -1.1667    5.0422 C.2       1 <0>         0.1056
      9 C7         -0.9016   -0.5434    5.3336 C.2       1 <0>        -0.0422
     10 C8          0.3176   -1.1826    5.8265 C.2       1 <0>        -0.0512
     11 C9          0.9976   -2.2556    5.2474 C.2       1 <0>        -0.0001
     12 C10         2.1547   -2.5222    6.1168 C.2       1 <0>         0.5534
     13 O1          2.9897   -3.3876    5.9381 O.2       1 <0>        -0.4357
     14 N3          2.1347   -1.6550    7.1426 N.am      1 <0>        -0.6879
     15 C11         1.0796   -0.8286    7.0446 C.2       1 <0>         0.5587
     16 O2          0.7990    0.0597    7.8241 O.2       1 <0>        -0.4525
     17 C12         0.6321   -2.9743    4.0133 C.2       1 <0>        -0.1485
     18 C13         0.7891   -2.5267    2.7328 C.2       1 <0>         0.1116
     19 N4          0.2994   -3.4469    1.8617 N.pl3     1 <0>        -0.4759
     20 C14        -0.0851   -4.5862    2.5535 C.ar      1 <0>         0.1176
     21 C15         0.0333   -4.3155    3.9227 C.ar      1 <0>        -0.0671
     22 C16        -0.4313   -5.2547    4.8403 C.ar      1 <0>        -0.0773
     23 C17        -0.9438   -6.4509    4.3836 C.ar      1 <0>        -0.1304
     24 C18        -0.9671   -6.7453    3.0266 C.ar      1 <0>        -0.0911
     25 C19        -0.4955   -5.8276    2.1108 C.ar      1 <0>        -0.1030
     26 C20        -0.4074   -6.1795    0.6451 C.3       1 <0>         0.1893
     27 N5          0.8630   -5.6562    0.1231 N.am      1 <0>        -0.6725
     28 C21         0.9987   -4.2759   -0.3422 C.3       1 <0>         0.1090
     29 C22         0.1025   -3.3074    0.4119 C.3       1 <0>         0.1033
     30 C23         1.9346   -6.4720    0.0720 C.2       1 <0>         0.7229
     31 O3          2.3598   -6.9817    1.0907 O.2       1 <0>        -0.5428
     32 N6          2.5350   -6.7227   -1.1083 N.am      1 <0>        -0.6165
     33 C24         2.1507   -5.9799   -2.3163 C.3       1 <0>         0.0888
     34 C25         3.4158   -5.3669   -2.9360 C.3       1 <0>        -0.1357
     35 C26         4.4450   -6.4730   -3.1795 C.3       1 <0>        -0.1204
     36 C27         4.8269   -7.1194   -1.8459 C.3       1 <0>        -0.1357
     37 C28         3.5818   -7.7484   -1.2127 C.3       1 <0>         0.1213
     38 H1         -2.3447    4.2868    4.1110 H         1 <0>         0.1469
     39 H2         -0.0178    3.9568    4.9137 H         1 <0>         0.1546
     40 H3          0.7619    1.7388    5.5125 H         1 <0>         0.1585
     41 H4         -3.8504    2.3613    3.9272 H         1 <0>         0.1554
     42 H5         -2.3150   -2.2220    5.1405 H         1 <0>         0.1872
     43 H6          2.7918   -1.6286    7.8556 H         1 <0>         0.4305
     44 H7          1.2356   -1.5835    2.4545 H         1 <0>         0.1685
     45 H8         -0.3878   -5.0499    5.8998 H         1 <0>         0.1196
     46 H9         -1.3320   -7.1687    5.0910 H         1 <0>         0.1242
     47 H10        -1.3548   -7.6946    2.6876 H         1 <0>         0.1261
     48 H11        -1.2404   -5.7265    0.1075 H         1 <0>         0.0855
     49 H12        -0.4368   -7.2623    0.5238 H         1 <0>         0.0888
     50 H13         0.7460   -4.2359   -1.4018 H         1 <0>         0.0833
     51 H14         2.0358   -3.9650   -0.2169 H         1 <0>         0.0747
     52 H15        -0.9392   -3.5161    0.1680 H         1 <0>         0.0926
     53 H16         0.3420   -2.2871    0.1123 H         1 <0>         0.1081
     54 H17         1.6833   -6.6588   -3.0296 H         1 <0>         0.0679
     55 H18         1.4512   -5.1873   -2.0508 H         1 <0>         0.0987
     56 H19         3.8337   -4.6244   -2.2562 H         1 <0>         0.0643
     57 H20         3.1617   -4.8914   -3.8833 H         1 <0>         0.0754
     58 H21         5.3339   -6.0461   -3.6439 H         1 <0>         0.0660
     59 H22         4.0174   -7.2277   -3.8395 H         1 <0>         0.0652
     60 H23         5.2315   -6.3604   -1.1764 H         1 <0>         0.0657
     61 H24         5.5772   -7.8912   -2.0174 H         1 <0>         0.0766
     62 H25         3.8268   -8.1229   -0.2189 H         1 <0>         0.0932
     63 H26         3.2278   -8.5697   -1.8357 H         1 <0>         0.0682
@<TRIPOS>BOND
     1    1    6 2
     2    1    2 1
     3    1   38 1
     4    2    3 2
     5    2   39 1
     6    3    4 1
     7    3   40 1
     8    4    9 1
     9    4    5 1
    10    5    6 1
    11    5    7 2
    12    6   41 1
    13    7    8 1
    14    8    9 2
    15    8   42 1
    16    9   10 1
    17   10   15 1
    18   10   11 2
    19   11   12 1
    20   11   17 1
    21   12   13 2
    22   12   14 am
    23   14   15 am
    24   14   43 1
    25   15   16 2
    26   17   21 1
    27   17   18 2
    28   18   19 1
    29   18   44 1
    30   19   29 1
    31   19   20 1
    32   20   25 ar
    33   20   21 ar
    34   21   22 ar
    35   22   23 ar
    36   22   45 1
    37   23   24 ar
    38   23   46 1
    39   24   25 ar
    40   24   47 1
    41   25   26 1
    42   26   27 1
    43   26   48 1
    44   26   49 1
    45   27   28 1
    46   27   30 am
    47   28   29 1
    48   28   50 1
    49   28   51 1
    50   29   52 1
    51   29   53 1
    52   30   31 2
    53   30   32 am
    54   32   37 1
    55   32   33 1
    56   33   34 1
    57   33   54 1
    58   33   55 1
    59   34   35 1
    60   34   56 1
    61   34   57 1
    62   35   36 1
    63   35   58 1
    64   35   59 1
    65   36   37 1
    66   36   60 1
    67   36   61 1
    68   37   62 1
    69   37   63 1
@<TRIPOS>MOLECULE
ZINC03276920
   30    31     0     0     0
SMALL
USER_CHARGES
1-[2-(4-methoxyphenyl)ethyl]pyrrole-2,5-dione
@<TRIPOS>ATOM
      1 C1         10.4077    2.0912   -1.5331 C.3       1 <0>         0.0262
      2 O1          9.7763    0.8093   -1.5341 O.3       1 <0>        -0.3174
      3 C2          8.4175    0.7908   -1.5207 C.ar      1 <0>         0.1284
      4 C3          7.7391   -0.4193   -1.5209 C.ar      1 <0>        -0.1497
      5 C4          6.3578   -0.4354   -1.5069 C.ar      1 <0>        -0.0712
      6 C5          5.6515    0.7531   -1.4927 C.ar      1 <0>        -0.1250
      7 C6          6.3253    1.9605   -1.4983 C.ar      1 <0>        -0.0707
      8 C7          7.7065    1.9820   -1.5065 C.ar      1 <0>        -0.2064
      9 C8          4.1447    0.7326   -1.4775 C.3       1 <0>        -0.0898
     10 C9          3.6495    0.7173   -0.0299 C.3       1 <0>         0.1186
     11 N1          2.1847    0.6973   -0.0151 N.am      1 <0>        -0.5902
     12 C10         1.3944    1.7858   -0.0017 C.2       1 <0>         0.5395
     13 O2          1.7740    2.9389    0.0003 O.2       1 <0>        -0.4534
     14 C11        -0.0161    1.3390    0.0094 C.2       1 <0>        -0.1410
     15 C12         0.0021   -0.0041    0.0020 C.2       1 <0>        -0.1404
     16 C13         1.4242   -0.4123   -0.0138 C.2       1 <0>         0.5393
     17 O3          1.8350   -1.5546   -0.0242 O.2       1 <0>        -0.4524
     18 H1         10.0986    2.6492   -2.4169 H         1 <0>         0.0563
     19 H2         10.1161    2.6392   -0.6371 H         1 <0>         0.0564
     20 H3         11.4901    1.9631   -1.5445 H         1 <0>         0.1017
     21 H4          8.2903   -1.3480   -1.5323 H         1 <0>         0.1327
     22 H5          5.8292   -1.3772   -1.5066 H         1 <0>         0.1313
     23 H6          5.7712    2.8876   -1.4920 H         1 <0>         0.1265
     24 H7          8.2324    2.9253   -1.5064 H         1 <0>         0.1296
     25 H8          3.7883   -0.1592   -1.9929 H         1 <0>         0.0792
     26 H9          3.7641    1.6205   -1.9823 H         1 <0>         0.0783
     27 H10         4.0060    1.6091    0.4855 H         1 <0>         0.0972
     28 H11         4.0301   -0.1707    0.4749 H         1 <0>         0.0980
     29 H12        -0.8918    1.9711    0.0172 H         1 <0>         0.1842
     30 H13        -0.8561   -0.6598    0.0067 H         1 <0>         0.1843
@<TRIPOS>BOND
     1    1    2 1
     2    1   18 1
     3    1   19 1
     4    1   20 1
     5    2    3 1
     6    3    8 ar
     7    3    4 ar
     8    4    5 ar
     9    4   21 1
    10    5    6 ar
    11    5   22 1
    12    6    7 ar
    13    6    9 1
    14    7    8 ar
    15    7   23 1
    16    8   24 1
    17    9   10 1
    18    9   25 1
    19    9   26 1
    20   10   11 1
    21   10   27 1
    22   10   28 1
    23   11   16 am
    24   11   12 am
    25   12   13 2
    26   12   14 1
    27   14   15 2
    28   14   29 1
    29   15   16 1
    30   15   30 1
    31   16   17 2
@<TRIPOS>MOLECULE
ZINC20149028
   48    51     0     0     0
SMALL
USER_CHARGES

@<TRIPOS>ATOM
      1 C1          0.4585    0.4884    0.9561 C.ar      1 <0>        -0.1053
      2 C2          1.6076    1.2518    1.0011 C.ar      1 <0>        -0.0998
      3 C3          2.4549    1.2978   -0.1049 C.ar      1 <0>         0.0176
      4 C4          2.1363    0.5716   -1.2514 C.ar      1 <0>        -0.1040
      5 C5          0.9840   -0.1888   -1.2854 C.ar      1 <0>        -0.0324
      6 C6          0.1465   -0.2303   -0.1835 C.ar      1 <0>        -0.1156
      7 Cl1         0.5845   -1.0937   -2.7121 Cl        1 <0>        -0.0710
      8 C7          3.6902    2.1165   -0.0621 C.2       1 <0>        -0.2037
      9 C8          4.0508    3.1299   -0.9685 C.2       1 <0>         0.0722
     10 N1          5.2047    3.6215   -0.6039 N.2       1 <0>        -0.2871
     11 N2          5.6429    2.9556    0.5466 N.pl3     1 <0>        -0.4647
     12 H1          6.4701    3.1267    1.0233 H         1 <0>         0.4422
     13 C9          4.7029    2.0294    0.8832 C.2       1 <0>         0.1918
     14 C10         4.7529    1.1045    2.0356 C.2       1 <0>        -0.1449
     15 C11         5.0814    1.4409    3.3654 C.2       1 <0>        -0.0773
     16 C12         5.0056    0.2925    4.1007 C.2       1 <0>        -0.0519
     17 N3          4.6408   -0.7344    3.2595 N.pl3     1 <0>        -0.5281
     18 H2          4.5146   -1.6594    3.5227 H         1 <0>         0.4216
     19 C13         4.4814   -0.2472    2.0125 C.2       1 <0>         0.0829
     20 C14         5.2686    0.1735    5.5394 C.2       1 <0>         0.5932
     21 O1          5.5864    1.1561    6.1831 O.2       1 <0>        -0.5224
     22 N4          5.1581   -1.0240    6.1478 N.am      1 <0>        -0.7200
     23 C15         5.4207   -1.1428    7.5842 C.3       1 <0>         0.1955
     24 H3          5.0845   -0.2383    8.0910 H         1 <0>         0.1178
     25 C16         6.9218   -1.3287    7.8146 C.3       1 <0>         0.0662
     26 O2          7.3400   -2.5728    7.2497 O.3       1 <0>        -0.5690
     27 C17         4.6770   -2.3326    8.1341 C.ar      1 <0>        -0.0923
     28 C18         4.6144   -3.5055    7.4046 C.ar      1 <0>        -0.0584
     29 C19         3.9333   -4.5977    7.9074 C.ar      1 <0>        -0.1407
     30 C20         3.3129   -4.5177    9.1426 C.ar      1 <0>         0.1157
     31 C21         3.3759   -3.3421    9.8731 C.ar      1 <0>        -0.0735
     32 C22         4.0629   -2.2522    9.3697 C.ar      1 <0>        -0.0701
     33 Cl2         2.5989   -3.2394   11.4221 Cl        1 <0>        -0.0419
     34 F1          2.6464   -5.5848    9.6348 F         1 <0>        -0.1235
     35 H4         -0.1960    0.4488    1.8142 H         1 <0>         0.1306
     36 H5          1.8497    1.8128    1.8916 H         1 <0>         0.1270
     37 H6          2.7889    0.6038   -2.1113 H         1 <0>         0.1339
     38 H7         -0.7536   -0.8264   -0.2139 H         1 <0>         0.1311
     39 H8          3.4713    3.4477   -1.8226 H         1 <0>         0.1869
     40 H9          5.3438    2.4220    3.7330 H         1 <0>         0.1533
     41 H10         4.1925   -0.8188    1.1429 H         1 <0>         0.1806
     42 H11         4.9048   -1.8072    5.6347 H         1 <0>         0.3970
     43 H12         7.4661   -0.5126    7.3394 H         1 <0>         0.0611
     44 H13         7.1279   -1.3281    8.8850 H         1 <0>         0.0615
     45 H14         8.2829   -2.7572    7.3588 H         1 <0>         0.3842
     46 H15         5.0980   -3.5680    6.4409 H         1 <0>         0.1389
     47 H16         3.8845   -5.5134    7.3369 H         1 <0>         0.1481
     48 H17         4.1162   -1.3370    9.9406 H         1 <0>         0.1467
@<TRIPOS>BOND
     1    1    6 ar
     2    1    2 ar
     3    1   35 1
     4    2    3 ar
     5    2   36 1
     6    3    4 ar
     7    3    8 1
     8    4    5 ar
     9    4   37 1
    10    5    6 ar
    11    5    7 1
    12    6   38 1
    13    8   13 2
    14    8    9 1
    15    9   10 2
    16    9   39 1
    17   10   11 1
    18   11   12 1
    19   11   13 1
    20   13   14 1
    21   14   19 2
    22   14   15 1
    23   15   16 2
    24   15   40 1
    25   16   17 1
    26   16   20 1
    27   17   18 1
    28   17   19 1
    29   19   41 1
    30   20   21 2
    31   20   22 am
    32   22   23 1
    33   22   42 1
    34   23   24 1
    35   23   25 1
    36   23   27 1
    37   25   26 1
    38   25   43 1
    39   25   44 1
    40   26   45 1
    41   27   32 ar
    42   27   28 ar
    43   28   29 ar
    44   28   46 1
    45   29   30 ar
    46   29   47 1
    47   30   31 ar
    48   30   34 1
    49   31   32 ar
    50   31   33 1
    51   32   48 1
@<TRIPOS>MOLECULE
ZINC20149028
   48    51     0     0     0
SMALL
USER_CHARGES

@<TRIPOS>ATOM
      1 C1         -0.0167    1.3786    0.0096 C.ar      1 <0>        -0.1038
      2 C2          1.1676    2.0878    0.0021 C.ar      1 <0>        -0.1106
      3 C3          2.3840    1.4085   -0.0131 C.ar      1 <0>         0.0145
      4 C4          2.3983    0.0151   -0.0207 C.ar      1 <0>        -0.0965
      5 C5          1.2076   -0.6849   -0.0131 C.ar      1 <0>        -0.0326
      6 C6          0.0021   -0.0041    0.0020 C.ar      1 <0>        -0.1163
      7 Cl1         1.2227   -2.4208   -0.0230 Cl        1 <0>        -0.0706
      8 C7          3.6597    2.1660   -0.0217 C.2       1 <0>        -0.2032
      9 C8          3.9817    3.1931   -0.8578 C.2       1 <0>         0.0825
     10 N1          5.2257    3.6075   -0.5427 N.pl3     1 <0>        -0.4697
     11 N2          5.6983    2.8234    0.5164 N.2       1 <0>        -0.2800
     12 H1          5.7109    4.3266   -0.9767 H         1 <0>         0.4446
     13 C9          4.7639    1.9580    0.8421 C.2       1 <0>         0.1753
     14 C10         4.8515    0.9411    1.9196 C.2       1 <0>        -0.1178
     15 C11         6.0090    0.2429    2.3146 C.2       1 <0>        -0.0657
     16 C12         5.6459   -0.5903    3.3354 C.2       1 <0>        -0.0577
     17 N3          4.3004   -0.4148    3.5685 N.pl3     1 <0>        -0.5321
     18 H2          3.7794   -0.8811    4.2408 H         1 <0>         0.4194
     19 C13         3.8255    0.5150    2.7144 C.2       1 <0>         0.0728
     20 C14         6.5335   -1.5100    4.0557 C.2       1 <0>         0.5950
     21 O1          7.7114   -1.5775    3.7574 O.2       1 <0>        -0.5234
     22 N4          6.0445   -2.2801    5.0478 N.am      1 <0>        -0.7212
     23 C15         6.9308   -3.1985    5.7669 C.3       1 <0>         0.1953
     24 H3          7.9206   -2.7511    5.8585 H         1 <0>         0.1174
     25 C16         7.0358   -4.5153    4.9950 C.3       1 <0>         0.0663
     26 O2          5.7601   -5.1589    4.9753 O.3       1 <0>        -0.5686
     27 C17         6.3708   -3.4647    7.1405 C.ar      1 <0>        -0.0909
     28 C18         5.0096   -3.6389    7.3095 C.ar      1 <0>        -0.0580
     29 C19         4.4944   -3.8835    8.5683 C.ar      1 <0>        -0.1408
     30 C20         5.3415   -3.9543    9.6610 C.ar      1 <0>         0.1147
     31 C21         6.7054   -3.7797    9.4910 C.ar      1 <0>        -0.0736
     32 C22         7.2190   -3.5401    8.2292 C.ar      1 <0>        -0.0704
     33 Cl2         7.7697   -3.8679   10.8597 Cl        1 <0>        -0.0431
     34 F1          4.8387   -4.1930   10.8920 F         1 <0>        -0.1241
     35 H4         -0.9598    1.9047    0.0260 H         1 <0>         0.1327
     36 H5          1.1513    3.1677    0.0077 H         1 <0>         0.1287
     37 H6          3.3383   -0.5164   -0.0328 H         1 <0>         0.1337
     38 H7         -0.9269   -0.5549    0.0079 H         1 <0>         0.1317
     39 H8          3.3526    3.6020   -1.6347 H         1 <0>         0.1815
     40 H9          6.9969    0.3459    1.8906 H         1 <0>         0.1533
     41 H10         2.8041    0.8626    2.6654 H         1 <0>         0.1753
     42 H11         5.1056   -2.2264    5.2856 H         1 <0>         0.3967
     43 H12         7.3564   -4.3128    3.9731 H         1 <0>         0.0616
     44 H13         7.7630   -5.1650    5.4820 H         1 <0>         0.0605
     45 H14         5.7521   -6.0018    4.5014 H         1 <0>         0.3836
     46 H15         4.3486   -3.5834    6.4573 H         1 <0>         0.1395
     47 H16         3.4310   -4.0191    8.6996 H         1 <0>         0.1478
     48 H17         8.2825   -3.4083    8.0952 H         1 <0>         0.1466
@<TRIPOS>BOND
     1    1    6 ar
     2    1    2 ar
     3    1   35 1
     4    2    3 ar
     5    2   36 1
     6    3    4 ar
     7    3    8 1
     8    4    5 ar
     9    4   37 1
    10    5    6 ar
    11    5    7 1
    12    6   38 1
    13    8   13 1
    14    8    9 2
    15    9   39 1
    16    9   10 1
    17   10   11 1
    18   10   12 1
    19   11   13 2
    20   13   14 1
    21   14   19 2
    22   14   15 1
    23   15   16 2
    24   15   40 1
    25   16   17 1
    26   16   20 1
    27   17   18 1
    28   17   19 1
    29   19   41 1
    30   20   21 2
    31   20   22 am
    32   22   23 1
    33   22   42 1
    34   23   24 1
    35   23   25 1
    36   23   27 1
    37   25   26 1
    38   25   43 1
    39   25   44 1
    40   26   45 1
    41   27   32 ar
    42   27   28 ar
    43   28   29 ar
    44   28   46 1
    45   29   30 ar
    46   29   47 1
    47   30   31 ar
    48   30   34 1
    49   31   32 ar
    50   31   33 1
    51   32   48 1
@<TRIPOS>MOLECULE
ZINC05133132
   10    10     0     0     0
SMALL
USER_CHARGES

@<TRIPOS>ATOM
      1 C1         -0.0180    1.4754    0.0102 C.2       1 <0>        -0.1404
      2 C2          1.2625    1.8810    0.0001 C.2       1 <0>        -0.1404
      3 C3          2.0977    0.6597   -0.0144 C.2       1 <0>         0.5421
      4 O1          3.3113    0.6294   -0.0258 O.2       1 <0>        -0.4548
      5 N1          1.2840   -0.4115   -0.0124 N.am      1 <0>        -0.6943
      6 C4          0.0021   -0.0041    0.0020 C.2       1 <0>         0.5421
      7 O2         -0.9729   -0.7274    0.0081 O.2       1 <0>        -0.4548
      8 H1         -0.8936    2.1075    0.0259 H         1 <0>         0.1849
      9 H2          1.6147    2.9019    0.0022 H         1 <0>         0.1849
     10 H3          1.5768   -1.3363   -0.0208 H         1 <0>         0.4306
@<TRIPOS>BOND
     1    1    6 1
     2    1    2 2
     3    1    8 1
     4    2    3 1
     5    2    9 1
     6    3    4 2
     7    3    5 am
     8    5    6 am
     9    5   10 1
    10    6    7 2
@<TRIPOS>MOLECULE
ZINC00096688
   23    24     0     0     0
SMALL
USER_CHARGES

@<TRIPOS>ATOM
      1 C1         -0.0167    1.3781    0.0096 C.ar      1 <0>        -0.1082
      2 C2          1.1709    2.0855    0.0021 C.ar      1 <0>        -0.1233
      3 C3          2.3773    1.4107   -0.0130 C.ar      1 <0>        -0.0960
      4 C4          2.3960    0.0285   -0.0201 C.ar      1 <0>        -0.1246
      5 C5          1.2084   -0.6789   -0.0117 C.ar      1 <0>        -0.0961
      6 C6          0.0021   -0.0041    0.0020 C.ar      1 <0>        -0.1233
      7 C7          3.7112   -0.7071   -0.0376 C.3       1 <0>         0.1564
      8 N1          4.1518   -0.9524    1.3379 N.am      1 <0>        -0.5856
      9 C8          4.9169   -0.1203    2.0672 C.2       1 <0>         0.5405
     10 O1          5.3531    0.9506    1.6975 O.2       1 <0>        -0.4529
     11 C9          5.1361   -0.7316    3.3967 C.2       1 <0>        -0.1407
     12 C10         4.4862   -1.9072    3.3953 C.2       1 <0>        -0.1407
     13 C11         3.8485   -2.0415    2.0669 C.2       1 <0>         0.5405
     14 O2          3.1689   -2.9769    1.6968 O.2       1 <0>        -0.4530
     15 H1         -0.9591    1.9053    0.0259 H         1 <0>         0.1248
     16 H2          1.1563    3.1654    0.0076 H         1 <0>         0.1255
     17 H3          3.3051    1.9634   -0.0196 H         1 <0>         0.1266
     18 H4          1.2231   -1.7588   -0.0176 H         1 <0>         0.1265
     19 H5         -0.9258   -0.5567    0.0082 H         1 <0>         0.1255
     20 H6          3.5884   -1.6586   -0.5549 H         1 <0>         0.1047
     21 H7          4.4573   -0.1052   -0.5563 H         1 <0>         0.1047
     22 H8          5.7087   -0.3134    4.2113 H         1 <0>         0.1842
     23 H9          4.4354   -2.6159    4.2086 H         1 <0>         0.1842
@<TRIPOS>BOND
     1    1    6 ar
     2    1    2 ar
     3    1   15 1
     4    2    3 ar
     5    2   16 1
     6    3    4 ar
     7    3   17 1
     8    4    5 ar
     9    4    7 1
    10    5    6 ar
    11    5   18 1
    12    6   19 1
    13    7    8 1
    14    7   20 1
    15    7   21 1
    16    8   13 am
    17    8    9 am
    18    9   10 2
    19    9   11 1
    20   11   12 2
    21   11   22 1
    22   12   13 1
    23   12   23 1
    24   13   14 2
@<TRIPOS>MOLECULE
ZINC28821265
   37    40     0     0     0
SMALL
USER_CHARGES
(5Z)-5-(6-quinolylmethylene)-2-(2-thienylmethylamino)thiazol-4-one
@<TRIPOS>ATOM
      1 C1         -7.6948    9.3694    9.1190 C.ar      1 <0>        -0.1751
      2 C2         -7.6724    9.5307    7.7626 C.ar      1 <0>        -0.0500
      3 C3         -7.1782    8.4719    6.9753 C.ar      1 <0>        -0.1096
      4 C4         -7.1252    8.5695    5.5786 C.ar      1 <0>        -0.0515
      5 C5         -6.6301    7.5023    4.8393 C.ar      1 <0>        -0.0851
      6 C6         -6.1905    6.3306    5.4878 C.ar      1 <0>        -0.0874
      7 C7         -6.2320    6.2255    6.8389 C.ar      1 <0>        -0.0840
      8 C8         -6.7279    7.2898    7.6167 C.ar      1 <0>         0.1394
      9 N1         -6.7782    7.1981    8.9486 N.ar      1 <0>        -0.4764
     10 C9         -7.2372    8.1819    9.6846 C.ar      1 <0>         0.1412
     11 C10        -6.5702    7.5933    3.3742 C.2       1 <0>         0.0465
     12 C11        -5.7923    6.7319    2.6725 C.2       1 <0>        -0.2255
     13 C12        -5.6840    6.5271    1.2076 C.2       1 <0>         0.5507
     14 O1         -6.3476    7.1765    0.4156 O.2       1 <0>        -0.4633
     15 N2         -4.8292    5.6109    0.8095 N.2       1 <0>        -0.6655
     16 C13        -4.1072    4.8963    1.6581 C.2       1 <0>         0.4822
     17 S1         -4.6090    5.5232    3.2534 S.3       1 <0>        -0.0471
     18 N3         -3.1919    3.9168    1.3798 N.pl3     1 <0>        -0.6459
     19 C14        -2.9188    3.5430   -0.0102 C.3       1 <0>         0.2093
     20 C15        -1.8813    2.4504   -0.0420 C.2       1 <0>        -0.1908
     21 C16        -2.0561    1.1064   -0.0210 C.2       1 <0>        -0.1181
     22 C17        -0.9447    0.2853   -0.0549 C.2       1 <0>        -0.1675
     23 C18         0.2867    0.8482   -0.1195 C.2       1 <0>        -0.1543
     24 S2         -0.1035    2.5903   -0.1258 S.3       1 <0>         0.0613
     25 H1         -8.0664   10.1618    9.7518 H         1 <0>         0.1421
     26 H2         -8.0229   10.4447    7.3065 H         1 <0>         0.1433
     27 H3         -7.4661    9.4655    5.0814 H         1 <0>         0.1423
     28 H4         -5.8122    5.5068    4.9007 H         1 <0>         0.1406
     29 H5         -5.8872    5.3219    7.3197 H         1 <0>         0.1423
     30 H6         -7.2613    8.0678   10.7583 H         1 <0>         0.1632
     31 H7         -7.1562    8.3600    2.8463 H         1 <0>         0.1671
     32 H8         -2.6616    3.4105    2.1998 H         1 <0>         0.4556
     33 H9         -3.8451    3.1830   -0.4818 H         1 <0>         0.1055
     34 H10        -2.5448    4.4199   -0.5590 H         1 <0>         0.0980
     35 H11        -3.0488    0.6835    0.0256 H         1 <0>         0.1379
     36 H12        -1.0560   -0.7888   -0.0348 H         1 <0>         0.1388
     37 H13         1.2531    0.3675   -0.1576 H         1 <0>         0.1898
@<TRIPOS>BOND
     1    1   10 ar
     2    1    2 ar
     3    1   25 1
     4    2    3 ar
     5    2   26 1
     6    3    8 ar
     7    3    4 ar
     8    4    5 ar
     9    4   27 1
    10    5    6 ar
    11    5   11 1
    12    6    7 ar
    13    6   28 1
    14    7    8 ar
    15    7   29 1
    16    8    9 ar
    17    9   10 ar
    18   10   30 1
    19   11   12 2
    20   11   31 1
    21   12   17 1
    22   12   13 1
    23   13   14 2
    24   13   15 1
    25   15   16 2
    26   16   17 1
    27   16   18 1
    28   18   19 1
    29   18   32 1
    30   19   20 1
    31   19   33 1
    32   19   34 1
    33   20   24 1
    34   20   21 2
    35   21   22 1
    36   21   35 1
    37   22   23 2
    38   22   36 1
    39   23   24 1
    40   23   37 1
@<TRIPOS>MOLECULE
ZINC13489643
   27    28     0     0     0
SMALL
USER_CHARGES
N-(1H-pyrazolo[5,4-b]pyridin-3-yl)butanamide
@<TRIPOS>ATOM
      1 C1          7.9782    6.1826   -0.0391 C.3       1 <0>        -0.1538
      2 C2          6.4587    6.3616   -0.0243 C.3       1 <0>        -0.1120
      3 C3          5.7835    4.9887   -0.0250 C.3       1 <0>        -0.1352
      4 C4          4.2869    5.1650   -0.0105 C.2       1 <0>         0.5040
      5 O1          3.8075    6.2791   -0.0006 O.2       1 <0>        -0.4839
      6 N1          3.4810    4.0846   -0.0085 N.am      1 <0>        -0.6372
      7 C5          2.0916    4.2483    0.0050 C.2       1 <0>         0.3235
      8 C6          1.0947    3.1778    0.0087 C.ar      1 <0>        -0.2332
      9 C7          1.1628    1.7810    0.0005 C.ar      1 <0>         0.0068
     10 C8         -0.0126    1.0758    0.0080 C.ar      1 <0>        -0.2172
     11 C9         -1.2215    1.7572    0.0174 C.ar      1 <0>         0.1770
     12 N2         -1.2712    3.0713    0.0312 N.ar      1 <0>        -0.5043
     13 C10        -0.1657    3.8069    0.0242 C.ar      1 <0>         0.3300
     14 N3          0.0689    5.1549    0.0292 N.pl3     1 <0>        -0.4897
     15 H1         -0.6357    5.8644    0.0397 H         1 <0>         0.4551
     16 N4          1.4479    5.3852    0.0173 N.2       1 <0>        -0.2206
     17 H2          8.2870    5.6253    0.8454 H         1 <0>         0.0558
     18 H3          8.2707    5.6342   -0.9345 H         1 <0>         0.0558
     19 H4          8.4593    7.1607   -0.0386 H         1 <0>         0.0602
     20 H5          6.1500    6.9188   -0.9088 H         1 <0>         0.0715
     21 H6          6.1662    6.9099    0.8711 H         1 <0>         0.0715
     22 H7          6.0922    4.4314    0.8594 H         1 <0>         0.1001
     23 H8          6.0760    4.4403   -0.9204 H         1 <0>         0.1001
     24 H9          3.8644    3.1936   -0.0164 H         1 <0>         0.4228
     25 H10         2.1152    1.2720   -0.0110 H         1 <0>         0.1385
     26 H11         0.0021   -0.0041    0.0020 H         1 <0>         0.1451
     27 H12        -2.1435    1.1948    0.0186 H         1 <0>         0.1691
@<TRIPOS>BOND
     1    1    2 1
     2    1   17 1
     3    1   18 1
     4    1   19 1
     5    2    3 1
     6    2   20 1
     7    2   21 1
     8    3    4 1
     9    3   22 1
    10    3   23 1
    11    4    5 2
    12    4    6 am
    13    6    7 1
    14    6   24 1
    15    7   16 2
    16    7    8 1
    17    8   13 ar
    18    8    9 ar
    19    9   10 ar
    20    9   25 1
    21   10   11 ar
    22   10   26 1
    23   11   12 ar
    24   11   27 1
    25   12   13 ar
    26   13   14 1
    27   14   15 1
    28   14   16 1
@<TRIPOS>MOLECULE
ZINC13489630
   25    27     0     0     0
SMALL
USER_CHARGES

@<TRIPOS>ATOM
      1 C1         -0.0167    1.3790    0.0096 C.ar      1 <0>        -0.1083
      2 C2          1.1686    2.0920    0.0021 C.ar      1 <0>        -0.1199
      3 C3          2.3774    1.4261   -0.0134 C.ar      1 <0>        -0.0831
      4 C4          2.4023    0.0328   -0.0211 C.ar      1 <0>        -0.0391
      5 C5          1.2051   -0.6804   -0.0130 C.ar      1 <0>        -0.1052
      6 C6          0.0021   -0.0041    0.0020 C.ar      1 <0>        -0.1195
      7 C7          3.6985   -0.6887   -0.0382 C.ar      1 <0>         0.0534
      8 C8          3.7207   -2.0810   -0.0516 C.ar      1 <0>        -0.0164
      9 C9          4.9706   -2.7038   -0.0675 C.ar      1 <0>        -0.1873
     10 C10         5.4365   -4.0883   -0.0835 C.2       1 <0>         0.3720
     11 N1          6.7435   -4.0630   -0.0932 N.2       1 <0>        -0.2869
     12 N2          7.1986   -2.7406   -0.0847 N.pl3     1 <0>        -0.4788
     13 H1          8.1295   -2.4681   -0.0891 H         1 <0>         0.4521
     14 C11         6.1270   -1.8920   -0.0689 C.ar      1 <0>         0.2708
     15 N3          5.9930   -0.5717   -0.0564 N.ar      1 <0>        -0.2416
     16 N4          4.8405   -0.0054   -0.0464 N.ar      1 <0>        -0.1670
     17 N5          4.6321   -5.2306   -0.0873 N.pl3     1 <0>        -0.8243
     18 H2         -0.9603    1.9042    0.0260 H         1 <0>         0.1256
     19 H3          1.1482    3.1718    0.0081 H         1 <0>         0.1284
     20 H4          3.3023    1.9837   -0.0199 H         1 <0>         0.1368
     21 H5          1.2186   -1.7603   -0.0192 H         1 <0>         0.1246
     22 H6         -0.9264   -0.5557    0.0079 H         1 <0>         0.1277
     23 H7          2.8069   -2.6567   -0.0495 H         1 <0>         0.1556
     24 H8          3.6661   -5.1436   -0.0789 H         1 <0>         0.4158
     25 H9          5.0398   -6.1108   -0.0984 H         1 <0>         0.4148
@<TRIPOS>BOND
     1    1    6 ar
     2    1    2 ar
     3    1   18 1
     4    2    3 ar
     5    2   19 1
     6    3    4 ar
     7    3   20 1
     8    4    5 ar
     9    4    7 1
    10    5    6 ar
    11    5   21 1
    12    6   22 1
    13    7   16 ar
    14    7    8 ar
    15    8    9 ar
    16    8   23 1
    17    9   14 ar
    18    9   10 1
    19   10   11 2
    20   10   17 1
    21   11   12 1
    22   12   13 1
    23   12   14 1
    24   14   15 ar
    25   15   16 ar
    26   17   24 1
    27   17   25 1
@<TRIPOS>MOLECULE
ZINC18128386
   32    35     0     0     0
SMALL
USER_CHARGES

@<TRIPOS>ATOM
      1 C1         -0.0144    1.3783   -0.0475 C.ar      1 <0>        -0.1490
      2 C2          1.1682    2.0823    0.1064 C.ar      1 <0>        -0.0585
      3 C3          2.3772    1.4201    0.1626 C.ar      1 <0>        -0.1423
      4 C4          2.4194    0.0322    0.0651 C.ar      1 <0>         0.1621
      5 C5          1.2216   -0.6755   -0.0898 C.ar      1 <0>        -0.1630
      6 C6          0.0078    0.0017   -0.1459 C.ar      1 <0>        -0.0258
      7 C7          1.5784   -2.1123   -0.1637 C.2       1 <0>         0.1819
      8 N1          0.7676   -3.1257   -0.3075 N.2       1 <0>        -0.2626
      9 O1         -0.6275   -2.9070   -0.4115 O.3       1 <0>        -0.3801
     10 C8          3.0517   -2.1495   -0.0391 C.2       1 <0>         0.3100
     11 C9          3.8485   -3.2860   -0.0531 C.2       1 <0>        -0.2149
     12 C10         3.4076   -4.6942    0.0396 C.ar      1 <0>        -0.0612
     13 C11         2.1590   -5.2973    0.1613 C.ar      1 <0>        -0.0785
     14 C12         2.0668   -6.6724    0.2256 C.ar      1 <0>        -0.1110
     15 C13         3.2134   -7.4494    0.1697 C.ar      1 <0>        -0.0614
     16 C14         4.4568   -6.8607    0.0495 C.ar      1 <0>        -0.1104
     17 C15         4.5697   -5.4766   -0.0178 C.ar      1 <0>         0.1440
     18 N2          5.6744   -4.6429   -0.1379 N.am      1 <0>        -0.6463
     19 C16         5.3102   -3.3497   -0.1695 C.2       1 <0>         0.5708
     20 O2          6.0621   -2.3968   -0.2739 O.2       1 <0>        -0.5192
     21 Br1         3.0736   -9.3331    0.2595 Br        1 <0>        -0.0419
     22 N3          3.4858   -0.8573    0.0925 N.pl3     1 <0>        -0.6148
     23 H1         -0.9555    1.9067   -0.0861 H         1 <0>         0.1365
     24 H2          1.1438    3.1593    0.1827 H         1 <0>         0.1384
     25 H3          3.2931    1.9799    0.2821 H         1 <0>         0.1351
     26 H4         -0.9142   -0.5478   -0.2655 H         1 <0>         0.1392
     27 H5         -1.1459   -3.7167   -0.5153 H         1 <0>         0.4144
     28 H6          1.2662   -4.6913    0.2055 H         1 <0>         0.1720
     29 H7          1.0998   -7.1441    0.3200 H         1 <0>         0.1383
     30 H8          5.3430   -7.4765    0.0076 H         1 <0>         0.1374
     31 H9          6.5912   -4.9545   -0.1959 H         1 <0>         0.4211
     32 H10         4.4151   -0.5976    0.1913 H         1 <0>         0.4398
@<TRIPOS>BOND
     1    1    6 ar
     2    1    2 ar
     3    1   23 1
     4    2    3 ar
     5    2   24 1
     6    3    4 ar
     7    3   25 1
     8    4   22 1
     9    4    5 ar
    10    5    6 ar
    11    5    7 1
    12    6   26 1
    13    7    8 2
    14    7   10 1
    15    8    9 1
    16    9   27 1
    17   10   11 2
    18   10   22 1
    19   11   19 1
    20   11   12 1
    21   12   17 ar
    22   12   13 ar
    23   13   14 ar
    24   13   28 1
    25   14   15 ar
    26   14   29 1
    27   15   16 ar
    28   15   21 1
    29   16   17 ar
    30   16   30 1
    31   17   18 1
    32   18   19 am
    33   18   31 1
    34   19   20 2
    35   22   32 1
@<TRIPOS>MOLECULE
ZINC29053046
   50    53     0     0     0
SMALL
USER_CHARGES
6-[2-[[4-(2,4-dichlorophenyl)-5-(4-methyl-1H-imidazol-2-yl)pyrimidin-2-yl]amino]ethylamino]pyridine-3-carbonitrile
@<TRIPOS>ATOM
      1 C1          0.4903    0.0921   -1.7778 C.3       1 <0>        -0.0703
      2 C2          0.3764    1.5719   -1.5167 C.2       1 <0>         0.0037
      3 C3         -0.7179    2.3289   -1.7335 C.2       1 <0>        -0.0515
      4 N1         -0.4003    3.6092   -1.3631 N.pl3     1 <0>        -0.5768
      5 H1         -1.1514    4.4084   -1.4472 H         1 <0>         0.4462
      6 C4          0.8960    3.5909   -0.9363 C.2       1 <0>         0.2685
      7 N2          1.3462    2.3589   -1.0357 N.2       1 <0>        -0.4615
      8 C5          1.6619    4.7547   -0.4470 C.ar      1 <0>        -0.1669
      9 C6          1.1322    6.0462   -0.5218 C.ar      1 <0>         0.2106
     10 N3          1.8462    7.0609   -0.0681 N.ar      1 <0>        -0.5610
     11 C7          3.0554    6.8740    0.4438 C.ar      1 <0>         0.5782
     12 N4          3.6027    5.6720    0.5315 N.ar      1 <0>        -0.5418
     13 C8          2.9504    4.5946    0.1035 C.ar      1 <0>         0.2990
     14 C9          3.5657    3.2517    0.2037 C.ar      1 <0>        -0.0203
     15 C10         2.9714    2.2662    0.9923 C.ar      1 <0>        -0.0182
     16 C11         3.5487    1.0170    1.0822 C.ar      1 <0>        -0.1067
     17 C12         4.7168    0.7391    0.3914 C.ar      1 <0>        -0.0069
     18 C13         5.3120    1.7122   -0.3924 C.ar      1 <0>        -0.1113
     19 C14         4.7396    2.9650   -0.4951 C.ar      1 <0>         0.0134
     20 Cl1         5.4823    4.1824   -1.4850 Cl        1 <0>        -0.0519
     21 Cl2         5.4373   -0.8359    0.5098 Cl        1 <0>        -0.0583
     22 N5          3.7663    7.9689    0.9005 N.pl3     1 <0>        -0.7029
     23 C15         3.1819    9.3095    0.8142 C.3       1 <0>         0.1307
     24 C16         4.1669   10.3328    1.3833 C.3       1 <0>         0.1140
     25 N6          3.5825   11.6734    1.2970 N.pl3     1 <0>        -0.7220
     26 C17         4.2948   12.7706    1.7547 C.ar      1 <0>         0.4343
     27 C18         5.5639   12.5867    2.3003 C.ar      1 <0>        -0.2423
     28 C19         6.2674   13.6732    2.7458 C.ar      1 <0>         0.0173
     29 C20         5.6743   14.9414    2.6463 C.ar      1 <0>        -0.1514
     30 C21         4.3970   15.0506    2.0942 C.ar      1 <0>         0.2122
     31 N7          3.7572   13.9795    1.6721 N.ar      1 <0>        -0.5427
     32 C22         6.3697   16.1065    3.1042 C.1       1 <0>         0.2621
     33 N8          6.9214   17.0307    3.4674 N.1       1 <0>        -0.4223
     34 H2         -0.4650   -0.2854   -2.1713 H         1 <0>         0.0681
     35 H3          0.7316   -0.4283   -0.8392 H         1 <0>         0.0687
     36 H4          1.2875   -0.0901   -2.5135 H         1 <0>         0.0683
     37 H5         -1.6664    1.9897   -2.1229 H         1 <0>         0.1775
     38 H6          0.1505    6.2117   -0.9407 H         1 <0>         0.1657
     39 H7          2.0605    2.4811    1.5313 H         1 <0>         0.1317
     40 H8          3.0893    0.2538    1.6928 H         1 <0>         0.1397
     41 H9          6.2228    1.4901   -0.9286 H         1 <0>         0.1443
     42 H10         4.7705    7.8332    1.3285 H         1 <0>         0.4433
     43 H11         2.9702    9.5501   -0.2381 H         1 <0>         0.0768
     44 H12         2.2467    9.3398    1.3925 H         1 <0>         0.0770
     45 H13         4.3786   10.0921    2.4356 H         1 <0>         0.0754
     46 H14         5.1021   10.3025    0.8050 H         1 <0>         0.0752
     47 H15         2.5783   11.8091    0.8689 H         1 <0>         0.4354
     48 H16         5.9904   11.5967    2.3666 H         1 <0>         0.1400
     49 H17         7.2543   13.5567    3.1686 H         1 <0>         0.1424
     50 H18         3.9298   16.0209    2.0122 H         1 <0>         0.1672
@<TRIPOS>BOND
     1    1    2 1
     2    1   34 1
     3    1   35 1
     4    1   36 1
     5    2    7 1
     6    2    3 2
     7    3    4 1
     8    3   37 1
     9    4    5 1
    10    4    6 1
    11    6    7 2
    12    6    8 1
    13    8   13 ar
    14    8    9 ar
    15    9   10 ar
    16    9   38 1
    17   10   11 ar
    18   11   12 ar
    19   11   22 1
    20   12   13 ar
    21   13   14 1
    22   14   19 ar
    23   14   15 ar
    24   15   16 ar
    25   15   39 1
    26   16   17 ar
    27   16   40 1
    28   17   18 ar
    29   17   21 1
    30   18   19 ar
    31   18   41 1
    32   19   20 1
    33   22   23 1
    34   22   42 1
    35   23   24 1
    36   23   43 1
    37   23   44 1
    38   24   25 1
    39   24   45 1
    40   24   46 1
    41   25   26 1
    42   25   47 1
    43   26   31 ar
    44   26   27 ar
    45   27   28 ar
    46   27   48 1
    47   28   29 ar
    48   28   49 1
    49   29   30 ar
    50   29   32 1
    51   30   31 ar
    52   30   50 1
    53   32   33 3
@<TRIPOS>MOLECULE
ZINC29053046
   51    54     0     0     0
SMALL
USER_CHARGES
6-[2-[[4-(2,4-dichlorophenyl)-5-(5-methyl-1H-imidazol-2-yl)pyrimidin-2-yl]amino]ethylamino]pyridine-3-carbonitrile
@<TRIPOS>ATOM
      1 C1          0.5684   15.5145    4.6744 C.3       1 <0>        -0.1041
      2 C2          1.3295   14.7779    3.6024 C.2       1 <0>         0.0603
      3 C3          2.6015   15.0087    3.2201 C.2       1 <0>        -0.0163
      4 N1          2.9118   14.1487    2.2427 N.pl3     1 <0>        -0.5018
      5 C4          1.8734   13.3801    1.9951 C.cat     1 <0>         0.4180
      6 N2          0.8574   13.7512    2.8275 N.pl3     1 <0>        -0.5355
      7 H1         -0.1739   13.3919    2.9594 H         1 <0>         0.4983
      8 C5          1.8148   12.3045    0.9851 C.ar      1 <0>        -0.2557
      9 C6          0.6330   11.5915    0.7628 C.ar      1 <0>         0.2630
     10 N3          0.6207   10.6366   -0.1500 N.ar      1 <0>        -0.5502
     11 C7          1.7068   10.3467   -0.8539 C.ar      1 <0>         0.6057
     12 N4          2.8506   10.9889   -0.6768 N.ar      1 <0>        -0.5344
     13 C8          2.9493   11.9684    0.2179 C.ar      1 <0>         0.3245
     14 C9          4.2285   12.6889    0.4085 C.ar      1 <0>        -0.0960
     15 C10         4.5032   13.8370   -0.3350 C.ar      1 <0>        -0.0741
     16 C11         5.6961   14.5046   -0.1531 C.ar      1 <0>        -0.1034
     17 C12         6.6216   14.0378    0.7658 C.ar      1 <0>        -0.0060
     18 C13         6.3556   12.8994    1.5068 C.ar      1 <0>        -0.1004
     19 C14         5.1621   12.2255    1.3371 C.ar      1 <0>        -0.0102
     20 Cl1         4.8262   10.8019    2.2722 Cl        1 <0>        -0.0196
     21 Cl2         8.1212   14.8836    0.9884 Cl        1 <0>        -0.0156
     22 N5          1.6439    9.3382   -1.7983 N.pl3     1 <0>        -0.6771
     23 C15         0.3910    8.6088   -2.0086 C.3       1 <0>         0.1187
     24 C16         0.5913    7.5550   -3.0996 C.3       1 <0>         0.1146
     25 N6         -0.6617    6.8255   -3.3099 N.pl3     1 <0>        -0.7264
     26 C17        -0.7248    5.8150   -4.2562 C.ar      1 <0>         0.4308
     27 C18         0.4096    5.5008   -5.0023 C.ar      1 <0>        -0.2419
     28 C19         0.3438    4.5025   -5.9365 C.ar      1 <0>         0.0170
     29 C20        -0.8741    3.8267   -6.1096 C.ar      1 <0>        -0.1418
     30 C21        -1.9715    4.1979   -5.3309 C.ar      1 <0>         0.2117
     31 N7         -1.8634    5.1613   -4.4392 N.ar      1 <0>        -0.5400
     32 C22        -0.9909    2.7757   -7.0752 C.1       1 <0>         0.2563
     33 N8         -1.0836    1.9420   -7.8412 N.1       1 <0>        -0.4128
     34 H2          1.2149   16.2854    5.1192 H         1 <0>         0.1082
     35 H3          0.2540   14.8051    5.4541 H         1 <0>         0.0975
     36 H4         -0.3192   15.9907    4.2324 H         1 <0>         0.0976
     37 H5          3.2584   15.7603    3.6323 H         1 <0>         0.2190
     38 H6         -0.2580   11.8185    1.3293 H         1 <0>         0.1795
     39 H7          3.7826   14.2026   -1.0516 H         1 <0>         0.1593
     40 H8          5.9094   15.3932   -0.7287 H         1 <0>         0.1642
     41 H9          7.0807   12.5402    2.2221 H         1 <0>         0.1660
     42 H10         2.5346    9.0838   -2.3915 H         1 <0>         0.4546
     43 H11         0.0927    8.1149   -1.0721 H         1 <0>         0.0875
     44 H12        -0.3955    9.3126   -2.3186 H         1 <0>         0.0878
     45 H13         0.8896    8.0489   -4.0361 H         1 <0>         0.0767
     46 H14         1.3778    6.8512   -2.7896 H         1 <0>         0.0766
     47 H15        -1.5524    7.0798   -2.7167 H         1 <0>         0.4352
     48 H16         1.3321    6.0398   -4.8447 H         1 <0>         0.1384
     49 H17         1.2093    4.2410   -6.5273 H         1 <0>         0.1440
     50 H18        -2.9154    3.6886   -5.4577 H         1 <0>         0.1697
     51 H19         3.9131   14.1710    1.7879 H         1 <0>         0.4829
@<TRIPOS>BOND
     1    1    2 1
     2    1   34 1
     3    1   35 1
     4    1   36 1
     5    2    6 1
     6    2    3 2
     7    3    4 1
     8    3   37 1
     9    4    5 2
    10    4   51 1
    11    5    6 1
    12    5    8 1
    13    6    7 1
    14    8   13 ar
    15    8    9 ar
    16    9   10 ar
    17    9   38 1
    18   10   11 ar
    19   11   12 ar
    20   11   22 1
    21   12   13 ar
    22   13   14 1
    23   14   19 ar
    24   14   15 ar
    25   15   16 ar
    26   15   39 1
    27   16   17 ar
    28   16   40 1
    29   17   18 ar
    30   17   21 1
    31   18   19 ar
    32   18   41 1
    33   19   20 1
    34   22   23 1
    35   22   42 1
    36   23   24 1
    37   23   43 1
    38   23   44 1
    39   24   25 1
    40   24   45 1
    41   24   46 1
    42   25   26 1
    43   25   47 1
    44   26   31 ar
    45   26   27 ar
    46   27   28 ar
    47   27   48 1
    48   28   29 ar
    49   28   49 1
    50   29   30 ar
    51   29   32 1
    52   30   31 ar
    53   30   50 1
    54   32   33 3
@<TRIPOS>MOLECULE
ZINC29053046
   50    53     0     0     0
SMALL
USER_CHARGES

@<TRIPOS>ATOM
      1 C1         -3.3573    0.5686    0.3705 C.3       1 <0>        -0.0808
      2 C2         -2.6097   -0.7371    0.2847 C.2       1 <0>        -0.0096
      3 C3         -2.4380   -1.4913   -0.8194 C.2       1 <0>        -0.0180
      4 N1         -1.7196   -2.5705   -0.4866 N.2       1 <0>        -0.4547
      5 C4         -1.4315   -2.5213    0.7959 C.2       1 <0>         0.2535
      6 N2         -1.9709   -1.3791    1.3129 N.pl3     1 <0>        -0.5639
      7 H1         -1.9143   -1.0796    2.2338 H         1 <0>         0.4173
      8 C5         -0.6535   -3.5271    1.5467 C.ar      1 <0>        -0.1588
      9 C6         -0.5147   -3.4381    2.9349 C.ar      1 <0>         0.2083
     10 N3          0.1889   -4.3579    3.5706 N.ar      1 <0>        -0.5550
     11 C7          0.7618   -5.3582    2.9144 C.ar      1 <0>         0.5748
     12 N4          0.6600   -5.4860    1.6009 N.ar      1 <0>        -0.5422
     13 C8         -0.0350   -4.6072    0.8838 C.ar      1 <0>         0.2988
     14 C9         -0.1522   -4.7573   -0.5845 C.ar      1 <0>        -0.0043
     15 C10         0.7381   -4.0943   -1.4295 C.ar      1 <0>        -0.0543
     16 C11         0.6244   -4.2375   -2.7964 C.ar      1 <0>        -0.1002
     17 C12        -0.3714   -5.0378   -3.3317 C.ar      1 <0>        -0.0123
     18 C13        -1.2584   -5.6981   -2.4992 C.ar      1 <0>        -0.0999
     19 C14        -1.1505   -5.5673   -1.1286 C.ar      1 <0>         0.0178
     20 Cl1        -2.2583   -6.4024   -0.0849 Cl        1 <0>        -0.0553
     21 Cl2        -0.5078   -5.2129   -5.0534 Cl        1 <0>        -0.0579
     22 N5          1.4884   -6.2964    3.6247 N.pl3     1 <0>        -0.6908
     23 C15         1.6160   -6.1764    5.0792 C.3       1 <0>         0.1268
     24 C16         2.4630   -7.3328    5.6140 C.3       1 <0>         0.1110
     25 N6          2.5906   -7.2128    7.0685 N.pl3     1 <0>        -0.7108
     26 C17         3.3187   -8.1530    7.7802 C.ar      1 <0>         0.4299
     27 C18         3.9301   -9.2055    7.1017 C.ar      1 <0>        -0.2383
     28 C19         4.6486  -10.1325    7.8077 C.ar      1 <0>         0.0169
     29 C20         4.7434   -9.9870    9.2005 C.ar      1 <0>        -0.1472
     30 C21         4.1051   -8.9079    9.8139 C.ar      1 <0>         0.2112
     31 N7          3.4281   -8.0353    9.0961 N.ar      1 <0>        -0.5406
     32 C22         5.4837  -10.9322    9.9808 C.1       1 <0>         0.2614
     33 N8          6.0711  -11.6821   10.5999 N.1       1 <0>        -0.4203
     34 H2         -2.6725    1.3931    0.1720 H         1 <0>         0.0756
     35 H3         -4.1596    0.5770   -0.3672 H         1 <0>         0.0857
     36 H4         -3.7804    0.6801    1.3688 H         1 <0>         0.0657
     37 H5         -2.8161   -1.2635   -1.8050 H         1 <0>         0.1718
     38 H6         -0.9762   -2.6282    3.4803 H         1 <0>         0.1669
     39 H7          1.5149   -3.4696   -1.0138 H         1 <0>         0.1349
     40 H8          1.3132   -3.7242   -3.4510 H         1 <0>         0.1411
     41 H9         -2.0331   -6.3206   -2.9221 H         1 <0>         0.1447
     42 H10         1.9135   -7.0340    3.1598 H         1 <0>         0.4193
     43 H11         2.0972   -5.2297    5.3247 H         1 <0>         0.0798
     44 H12         0.6263   -6.2098    5.5347 H         1 <0>         0.0797
     45 H13         1.9818   -8.2795    5.3684 H         1 <0>         0.0780
     46 H14         3.4527   -7.2994    5.1585 H         1 <0>         0.0780
     47 H15         2.1654   -6.4752    7.5334 H         1 <0>         0.4123
     48 H16         3.8377   -9.2893    6.0290 H         1 <0>         0.1418
     49 H17         5.1312  -10.9573    7.3045 H         1 <0>         0.1438
     50 H18         4.1702   -8.7851   10.8849 H         1 <0>         0.1684
@<TRIPOS>BOND
     1    1    2 1
     2    1   34 1
     3    1   35 1
     4    1   36 1
     5    2    6 1
     6    2    3 2
     7    3    4 1
     8    3   37 1
     9    4    5 2
    10    5    6 1
    11    5    8 1
    12    6    7 1
    13    8   13 ar
    14    8    9 ar
    15    9   10 ar
    16    9   38 1
    17   10   11 ar
    18   11   12 ar
    19   11   22 1
    20   12   13 ar
    21   13   14 1
    22   14   19 ar
    23   14   15 ar
    24   15   16 ar
    25   15   39 1
    26   16   17 ar
    27   16   40 1
    28   17   18 ar
    29   17   21 1
    30   18   19 ar
    31   18   41 1
    32   19   20 1
    33   22   23 1
    34   22   42 1
    35   23   24 1
    36   23   43 1
    37   23   44 1
    38   24   25 1
    39   24   45 1
    40   24   46 1
    41   25   26 1
    42   25   47 1
    43   26   31 ar
    44   26   27 ar
    45   27   28 ar
    46   27   48 1
    47   28   29 ar
    48   28   49 1
    49   29   30 ar
    50   29   32 1
    51   30   31 ar
    52   30   50 1
    53   32   33 3
@<TRIPOS>MOLECULE
ZINC18825325
   49    52     0     0     0
SMALL
USER_CHARGES

@<TRIPOS>ATOM
      1 C1         -2.3093    1.0814    2.5547 C.3       1 <0>        -0.0480
      2 N1         -2.0492   -0.3535    2.3782 N.4       1 <0>        -0.3808
      3 C2         -0.6003   -0.5876    2.3558 C.3       1 <0>        -0.0043
      4 C3         -0.3239   -2.0891    2.2535 C.3       1 <0>        -0.1503
      5 C4         -0.9501   -2.6313    0.9655 C.3       1 <0>        -0.0297
      6 H1         -0.4784   -2.1588    0.1039 H         1 <0>         0.1164
      7 C5         -2.4486   -2.3158    0.9659 C.3       1 <0>         0.0899
      8 H2         -2.8911   -2.6493    0.0273 H         1 <0>         0.1052
      9 C6         -2.6463   -0.8058    1.1159 C.3       1 <0>        -0.0399
     10 O1         -3.0781   -2.9910    2.0567 O.3       1 <0>        -0.5391
     11 C7         -0.7476   -4.1230    0.8958 C.ar      1 <0>        -0.1630
     12 C8         -0.2029   -4.6958   -0.2434 C.ar      1 <0>         0.1998
     13 C9         -0.0104   -6.0706   -0.3226 C.ar      1 <0>        -0.2104
     14 C10        -0.3617   -6.8837    0.7393 C.ar      1 <0>         0.2330
     15 C11        -0.9119   -6.3118    1.8931 C.ar      1 <0>        -0.2679
     16 C12        -1.1006   -4.9209    1.9725 C.ar      1 <0>         0.2083
     17 O2         -1.6270   -4.3787    3.0910 O.3       1 <0>        -0.1851
     18 C13        -1.9796   -5.1227    4.1512 C.2       1 <0>         0.1841
     19 C14        -1.8330   -6.4738    4.1772 C.2       1 <0>        -0.2771
     20 C15        -1.3005   -7.1402    3.0468 C.2       1 <0>         0.4189
     21 O3         -1.1553   -8.3518    3.0351 O.2       1 <0>        -0.4398
     22 C16        -2.5478   -4.4476    5.3347 C.ar      1 <0>        -0.0545
     23 C17        -1.7640   -3.5673    6.0843 C.ar      1 <0>        -0.0804
     24 C18        -2.3013   -2.9397    7.1883 C.ar      1 <0>        -0.1170
     25 C19        -3.6144   -3.1798    7.5551 C.ar      1 <0>        -0.0831
     26 C20        -4.3973   -4.0498    6.8185 C.ar      1 <0>        -0.1070
     27 C21        -3.8744   -4.6817    5.7071 C.ar      1 <0>        -0.0070
     28 Cl1        -4.8604   -5.7681    4.7791 Cl        1 <0>        -0.0419
     29 O4         -0.1750   -8.2258    0.6637 O.3       1 <0>        -0.4711
     30 O5          0.1455   -3.9068   -1.2916 O.3       1 <0>        -0.4863
     31 H3         -3.3850    1.2556    2.5781 H         1 <0>         0.1231
     32 H4         -1.8662    1.4184    3.4919 H         1 <0>         0.1245
     33 H5         -1.8695    1.6351    1.7252 H         1 <0>         0.1223
     34 H6         -0.1638   -0.0788    1.4963 H         1 <0>         0.1288
     35 H7         -0.1557   -0.1983    3.2717 H         1 <0>         0.1325
     36 H8          0.7524   -2.2606    2.2353 H         1 <0>         0.1117
     37 H9         -0.7598   -2.5988    3.1128 H         1 <0>         0.1099
     38 H10        -3.7122   -0.5777    1.1164 H         1 <0>         0.1341
     39 H11        -2.1662   -0.2925    0.2828 H         1 <0>         0.1386
     40 H12        -4.0306   -2.8359    2.1183 H         1 <0>         0.3859
     41 H13         0.4142   -6.5045   -1.2159 H         1 <0>         0.1533
     42 H14        -2.1292   -7.0362    5.0503 H         1 <0>         0.1601
     43 H15        -0.7393   -3.3789    5.8001 H         1 <0>         0.1361
     44 H16        -1.6959   -2.2592    7.7687 H         1 <0>         0.1389
     45 H17        -4.0293   -2.6854    8.4210 H         1 <0>         0.1417
     46 H18        -5.4208   -4.2327    7.1106 H         1 <0>         0.1452
     47 H19         0.6892   -8.5212    0.9815 H         1 <0>         0.4083
     48 H20         1.0780   -3.6509   -1.2985 H         1 <0>         0.4048
     49 H21        -2.4587   -0.8654    3.1453 H         1 <0>         0.4284
@<TRIPOS>BOND
     1    1    2 1
     2    1   31 1
     3    1   32 1
     4    1   33 1
     5    2    9 1
     6    2    3 1
     7    2   49 1
     8    3    4 1
     9    3   34 1
    10    3   35 1
    11    4    5 1
    12    4   36 1
    13    4   37 1
    14    5    6 1
    15    5    7 1
    16    5   11 1
    17    7    8 1
    18    7    9 1
    19    7   10 1
    20    9   38 1
    21    9   39 1
    22   10   40 1
    23   11   16 ar
    24   11   12 ar
    25   12   13 ar
    26   12   30 1
    27   13   14 ar
    28   13   41 1
    29   14   15 ar
    30   14   29 1
    31   15   20 1
    32   15   16 ar
    33   16   17 1
    34   17   18 1
    35   18   19 2
    36   18   22 1
    37   19   20 1
    38   19   42 1
    39   20   21 2
    40   22   27 ar
    41   22   23 ar
    42   23   24 ar
    43   23   43 1
    44   24   25 ar
    45   24   44 1
    46   25   26 ar
    47   25   45 1
    48   26   27 ar
    49   26   46 1
    50   27   28 1
    51   29   47 1
    52   30   48 1
@<TRIPOS>MOLECULE
ZINC28129254
   47    52     0     0     0
SMALL
USER_CHARGES
3-imidazo[3,2-a]pyridin-3-yl-4-BLAHyl-pyrrole-2,5-dione
@<TRIPOS>ATOM
      1 C1         -1.3077    4.1344   -2.4703 C.2       1 <0>        -0.0876
      2 C2          0.0268    3.9710   -2.8683 C.2       1 <0>        -0.1274
      3 C3          0.8798    3.2499   -2.1058 C.2       1 <0>         0.0570
      4 N1          0.4563    2.6749   -0.9459 N.pl3     1 <0>        -0.3358
      5 C4         -0.8408    2.8164   -0.5304 C.2       1 <0>         0.2422
      6 C5         -1.7412    3.5626   -1.3107 C.2       1 <0>        -0.0830
      7 N2         -0.9931    2.1601    0.6182 N.2       1 <0>        -0.4889
      8 C6          0.1551    1.6037    0.9725 C.2       1 <0>         0.1065
      9 C7          1.1010    1.9052    0.0018 C.2       1 <0>        -0.0609
     10 C8          2.5026    1.4889   -0.0141 C.2       1 <0>        -0.0164
     11 C9          2.9937    0.1853    0.0771 C.2       1 <0>        -0.0482
     12 C10         4.4598    0.2963    0.0129 C.2       1 <0>         0.5574
     13 O1          5.2425   -0.6329    0.0587 O.2       1 <0>        -0.4503
     14 N3          4.7914    1.5931   -0.1007 N.am      1 <0>        -0.7000
     15 C11         3.6909    2.3639   -0.1237 C.2       1 <0>         0.5593
     16 O2          3.6744    3.5747   -0.2192 O.2       1 <0>        -0.4409
     17 C12         2.2034   -1.0523    0.2084 C.2       1 <0>        -0.1078
     18 C13         1.4890   -1.6731   -0.7800 C.2       1 <0>         0.1068
     19 N4          0.8654   -2.7674   -0.2758 N.pl3     1 <0>        -0.4969
     20 C14         1.2587   -2.9555    1.0380 C.ar      1 <0>         0.0906
     21 C15         2.0361   -1.8612    1.4253 C.ar      1 <0>        -0.0629
     22 C16         2.4031   -1.7534    2.7660 C.ar      1 <0>        -0.0368
     23 C17         2.0244   -2.7452    3.6480 C.ar      1 <0>        -0.1342
     24 C18         1.3273   -3.8676    3.2203 C.ar      1 <0>        -0.0545
     25 C19         0.9820   -3.9989    1.8879 C.ar      1 <0>        -0.1709
     26 C20         0.3551   -5.2788    1.3818 C.3       1 <0>         0.0611
     27 N5          1.0090   -5.6434    0.1150 N.4       1 <0>        -0.5371
     28 C21         0.4356   -5.0364   -1.0972 C.3       1 <0>        -0.0280
     29 C22        -0.1302   -3.6478   -0.8989 C.3       1 <0>         0.0920
     30 H1         -1.9891    4.7100   -3.0793 H         1 <0>         0.1513
     31 H2          0.3743    4.4218   -3.7861 H         1 <0>         0.1587
     32 H3          1.9060    3.1285   -2.4196 H         1 <0>         0.1603
     33 H4         -2.7669    3.6823   -0.9943 H         1 <0>         0.1586
     34 H5          0.3253    1.0134    1.8608 H         1 <0>         0.1843
     35 H6          5.8497    1.8870   -0.1602 H         1 <0>         0.4658
     36 H7          1.4307   -1.3422   -1.8064 H         1 <0>         0.1789
     37 H8          2.9800   -0.9072    3.1091 H         1 <0>         0.1353
     38 H9          2.2761   -2.6464    4.6937 H         1 <0>         0.1386
     39 H10         1.0555   -4.6372    3.9275 H         1 <0>         0.1407
     40 H11         0.5002   -6.0769    2.1248 H         1 <0>         0.1483
     41 H12        -0.7212   -5.1206    1.2191 H         1 <0>         0.1323
     42 H13         2.0643   -5.3343    0.1449 H         1 <0>         0.4547
     43 H14         1.2139   -4.9561   -1.8704 H         1 <0>         0.1384
     44 H15        -0.3866   -5.6657   -1.4686 H         1 <0>         0.1468
     45 H16        -1.0173   -3.7139   -0.2518 H         1 <0>         0.1073
     46 H17        -0.4202   -3.2384   -1.8778 H         1 <0>         0.1370
     47 H18         0.9498   -6.7325   -0.0281 H         1 <0>         0.4582
@<TRIPOS>BOND
     1    1    6 2
     2    1    2 1
     3    1   30 1
     4    2    3 2
     5    2   31 1
     6    3    4 1
     7    3   32 1
     8    4    9 1
     9    4    5 1
    10    5    6 1
    11    5    7 2
    12    6   33 1
    13    7    8 1
    14    8    9 2
    15    8   34 1
    16    9   10 1
    17   10   15 1
    18   10   11 2
    19   11   12 1
    20   11   17 1
    21   12   13 2
    22   12   14 am
    23   14   15 am
    24   14   35 1
    25   15   16 2
    26   17   21 1
    27   17   18 2
    28   18   19 1
    29   18   36 1
    30   19   29 1
    31   19   20 1
    32   20   25 ar
    33   20   21 ar
    34   21   22 ar
    35   22   23 ar
    36   22   37 1
    37   23   24 ar
    38   23   38 1
    39   24   25 ar
    40   24   39 1
    41   25   26 1
    42   26   27 1
    43   26   40 1
    44   26   41 1
    45   27   28 1
    46   27   42 1
    47   27   47 1
    48   28   29 1
    49   28   43 1
    50   28   44 1
    51   29   45 1
    52   29   46 1
@<TRIPOS>MOLECULE
ZINC13559451
   37    40     0     0     0
SMALL
USER_CHARGES

@<TRIPOS>ATOM
      1 C1         -0.0184    1.5028    0.0103 C.3       1 <0>        -0.1418
      2 C2          0.0021   -0.0041    0.0020 C.2       1 <0>         0.4553
      3 O1          1.0565   -0.5939   -0.0112 O.2       1 <0>        -0.4567
      4 O2         -1.1513   -0.6911    0.0093 O.3       1 <0>        -0.2173
      5 N1         -0.9842   -2.0971    0.0002 N.2       1 <0>        -0.1833
      6 C3         -2.0304   -2.8792    0.0060 C.2       1 <0>         0.1663
      7 C4         -3.4565   -2.4768    0.0152 C.ar      1 <0>        -0.1629
      8 C5         -4.0899   -1.2380    0.0213 C.ar      1 <0>        -0.0295
      9 C6         -5.4685   -1.1729    0.0302 C.ar      1 <0>        -0.1464
     10 C7         -6.2183   -2.3372    0.0334 C.ar      1 <0>        -0.0590
     11 C8         -5.6001   -3.5706    0.0274 C.ar      1 <0>        -0.1427
     12 C9         -4.2108   -3.6563    0.0180 C.ar      1 <0>         0.1652
     13 N2         -3.3597   -4.7538    0.0112 N.pl3     1 <0>        -0.6230
     14 C10        -2.0481   -4.3586   -0.0018 C.2       1 <0>         0.3020
     15 C11        -0.9397   -5.1926   -0.0168 C.2       1 <0>        -0.1990
     16 C12        -0.9271   -6.6710   -0.0308 C.ar      1 <0>        -0.0767
     17 C13        -1.9323   -7.6339   -0.0331 C.ar      1 <0>        -0.0703
     18 C14        -1.5977   -8.9723   -0.0474 C.ar      1 <0>        -0.1079
     19 C15        -0.2657   -9.3556   -0.0596 C.ar      1 <0>        -0.0589
     20 C16         0.7390   -8.4081   -0.0574 C.ar      1 <0>        -0.1081
     21 C17         0.4214   -7.0546   -0.0430 C.ar      1 <0>         0.1609
     22 N3          1.2190   -5.9170   -0.0374 N.am      1 <0>        -0.6528
     23 C18         0.4750   -4.7979   -0.0285 C.2       1 <0>         0.5573
     24 O3          0.8995   -3.6562   -0.0275 O.2       1 <0>        -0.4504
     25 Br1         0.1800  -11.1933   -0.0786 Br        1 <0>        -0.0368
     26 H1          1.0042    1.8801    0.0026 H         1 <0>         0.1082
     27 H2         -0.5455    1.8639   -0.8728 H         1 <0>         0.1015
     28 H3         -0.5286    1.8543    0.9071 H         1 <0>         0.1015
     29 H4         -3.5047   -0.3303    0.0196 H         1 <0>         0.1368
     30 H5         -5.9631   -0.2128    0.0350 H         1 <0>         0.1371
     31 H6         -7.2968   -2.2792    0.0411 H         1 <0>         0.1387
     32 H7         -6.1955   -4.4717    0.0303 H         1 <0>         0.1348
     33 H8         -3.6549   -5.6777    0.0119 H         1 <0>         0.4293
     34 H9         -2.9700   -7.3345   -0.0232 H         1 <0>         0.1250
     35 H10        -2.3747   -9.7224   -0.0489 H         1 <0>         0.1414
     36 H11         1.7733   -8.7191   -0.0666 H         1 <0>         0.1401
     37 H12         2.1889   -5.9290   -0.0437 H         1 <0>         0.4218
@<TRIPOS>BOND
     1    1    2 1
     2    1   26 1
     3    1   27 1
     4    1   28 1
     5    2    3 2
     6    2    4 1
     7    4    5 1
     8    5    6 2
     9    6   14 1
    10    6    7 1
    11    7   12 ar
    12    7    8 ar
    13    8    9 ar
    14    8   29 1
    15    9   10 ar
    16    9   30 1
    17   10   11 ar
    18   10   31 1
    19   11   12 ar
    20   11   32 1
    21   12   13 1
    22   13   14 1
    23   13   33 1
    24   14   15 2
    25   15   23 1
    26   15   16 1
    27   16   21 ar
    28   16   17 ar
    29   17   18 ar
    30   17   34 1
    31   18   19 ar
    32   18   35 1
    33   19   20 ar
    34   19   25 1
    35   20   21 ar
    36   20   36 1
    37   21   22 1
    38   22   23 am
    39   22   37 1
    40   23   24 2
@<TRIPOS>MOLECULE
ZINC00023894
   33    36     0     0     0
SMALL
USER_CHARGES
nitroBLAHone
@<TRIPOS>ATOM
      1 C1         -1.2168    1.7447    0.0173 C.ar      1 <0>        -0.1248
      2 C2         -1.2362    3.1290    0.0291 C.ar      1 <0>        -0.0796
      3 C3         -0.0570    3.8412    0.0349 C.ar      1 <0>        -0.1394
      4 C4          1.1753    3.1829    0.0363 C.ar      1 <0>         0.1820
      5 C5          1.1918    1.7883    0.0003 C.ar      1 <0>        -0.0640
      6 C6         -0.0126    1.0758    0.0080 C.ar      1 <0>        -0.0830
      7 C7          2.4518    1.0187   -0.0940 C.2       1 <0>         0.1319
      8 C8          3.5437    1.4059   -0.7982 C.2       1 <0>        -0.1369
      9 C9          4.5324    0.3579   -0.6653 C.ar      1 <0>        -0.1059
     10 C10         5.8232    0.2044   -1.1840 C.ar      1 <0>         0.0160
     11 C11         6.4967   -0.9417   -0.8407 C.ar      1 <0>        -0.0663
     12 C12         5.9354   -1.9076   -0.0213 C.ar      1 <0>        -0.0488
     13 C13         4.6603   -1.7825    0.5038 C.ar      1 <0>        -0.1164
     14 C14         3.9515   -0.6298    0.1728 C.ar      1 <0>         0.1476
     15 N1          2.6996   -0.1992    0.5082 N.pl3     1 <0>        -0.5707
     16 H1          2.0793   -0.6764    1.0813 H         1 <0>         0.4266
     17 N2          7.8658   -1.1521   -1.3626 N.pl3     1 <0>         0.0308
     18 O1          8.4805   -2.1621   -1.0701 O.2       1 <0>        -0.1636
     19 O2          8.3776   -0.3152   -2.0845 O.3       1 <0>        -0.1642
     20 C15         3.6673    2.7036   -1.5570 C.3       1 <0>        -0.0670
     21 C16         3.4550    3.8281   -0.5735 C.2       1 <0>         0.5304
     22 O3          4.3481    4.6279   -0.3895 O.2       1 <0>        -0.5186
     23 N3          2.3137    3.9655    0.0979 N.am      1 <0>        -0.6643
     24 H2         -2.1437    1.1904    0.0200 H         1 <0>         0.1349
     25 H3         -2.1805    3.6531    0.0288 H         1 <0>         0.1361
     26 H4         -0.0854    4.9208    0.0381 H         1 <0>         0.1372
     27 H5          0.0021   -0.0041    0.0020 H         1 <0>         0.1282
     28 H6          6.2683    0.9519   -1.8238 H         1 <0>         0.1643
     29 H7          6.5127   -2.7888    0.2165 H         1 <0>         0.1559
     30 H8          4.2346   -2.5439    1.1405 H         1 <0>         0.1550
     31 H9          2.9096    2.7484   -2.3393 H         1 <0>         0.1101
     32 H10         4.6609    2.7808   -1.9984 H         1 <0>         0.1188
     33 H11         2.2756    4.7147    0.7128 H         1 <0>         0.4079
@<TRIPOS>BOND
     1    1    6 ar
     2    1    2 ar
     3    1   24 1
     4    2    3 ar
     5    2   25 1
     6    3    4 ar
     7    3   26 1
     8    4   23 1
     9    4    5 ar
    10    5    6 ar
    11    5    7 1
    12    6   27 1
    13    7   15 1
    14    7    8 2
    15    8    9 1
    16    8   20 1
    17    9   14 ar
    18    9   10 ar
    19   10   11 ar
    20   10   28 1
    21   11   12 ar
    22   11   17 1
    23   12   13 ar
    24   12   29 1
    25   13   14 ar
    26   13   30 1
    27   14   15 1
    28   15   16 1
    29   17   18 2
    30   17   19 1
    31   20   21 1
    32   20   31 1
    33   20   32 1
    34   21   22 2
    35   21   23 am
    36   23   33 1
@<TRIPOS>MOLECULE
ZINC02540737
   37    39     0     0     0
SMALL
USER_CHARGES

@<TRIPOS>ATOM
      1 C1          1.8081   -4.6616   -0.1863 C.3       1 <0>        -0.1532
      2 C2          0.9947   -3.3694   -0.0888 C.3       1 <0>        -0.1238
      3 C3         -0.4979   -3.7054   -0.0851 C.3       1 <0>        -0.1108
      4 C4         -1.3114   -2.4133    0.0123 C.3       1 <0>        -0.0498
      5 C5         -2.7792   -2.7336   -0.1052 C.2       1 <0>        -0.1230
      6 C6         -3.6798   -2.9315    0.9703 C.ar      1 <0>         0.0614
      7 C7         -4.9420   -3.2065    0.4005 C.ar      1 <0>         0.2369
      8 N1         -4.7889   -3.1715   -0.9660 N.pl3     1 <0>        -0.5623
      9 H1         -5.4920   -3.3243   -1.6165 H         1 <0>         0.4248
     10 C8         -3.4763   -2.8785   -1.2598 C.2       1 <0>         0.1482
     11 C9         -2.9137   -2.7464   -2.6203 C.ar      1 <0>        -0.0487
     12 C10        -2.1113   -1.6503   -2.9425 C.ar      1 <0>        -0.0701
     13 C11        -1.5883   -1.5309   -4.2122 C.ar      1 <0>        -0.1417
     14 C12        -1.8588   -2.4990   -5.1705 C.ar      1 <0>         0.1212
     15 C13        -2.6570   -3.5907   -4.8541 C.ar      1 <0>        -0.1426
     16 C14        -3.1787   -3.7204   -3.5849 C.ar      1 <0>        -0.0837
     17 O1         -1.3418   -2.3776   -6.4209 O.3       1 <0>        -0.4984
     18 N2         -5.9810   -3.4342    1.1913 N.ar      1 <0>        -0.4505
     19 C15        -5.8299   -3.4027    2.5029 C.ar      1 <0>         0.0851
     20 C16        -4.5912   -3.1329    3.0645 C.ar      1 <0>         0.0409
     21 N3         -3.5445   -2.9034    2.2954 N.ar      1 <0>        -0.4011
     22 H2          2.8715   -4.4222   -0.1889 H         1 <0>         0.0536
     23 H3          1.5814   -5.2990    0.6683 H         1 <0>         0.0533
     24 H4          1.5511   -5.1841   -1.1077 H         1 <0>         0.0520
     25 H5          1.2518   -2.8468    0.8325 H         1 <0>         0.0628
     26 H6          1.2215   -2.7320   -0.9435 H         1 <0>         0.0607
     27 H7         -0.7550   -4.2280   -1.0065 H         1 <0>         0.0595
     28 H8         -0.7247   -4.3429    0.7695 H         1 <0>         0.0621
     29 H9         -1.1197   -1.9348    0.9728 H         1 <0>         0.0793
     30 H10        -1.0209   -1.7394   -0.7936 H         1 <0>         0.0738
     31 H11        -1.9010   -0.8967   -2.1981 H         1 <0>         0.1370
     32 H12        -0.9674   -0.6833   -4.4622 H         1 <0>         0.1370
     33 H13        -2.8654   -4.3412   -5.6021 H         1 <0>         0.1349
     34 H14        -3.7953   -4.5721   -3.3382 H         1 <0>         0.1284
     35 H15        -0.4754   -2.7929   -6.5303 H         1 <0>         0.3956
     36 H16        -6.6791   -3.5885    3.1439 H         1 <0>         0.1767
     37 H17        -4.4828   -3.1100    4.1388 H         1 <0>         0.1746
@<TRIPOS>BOND
     1    1    2 1
     2    1   22 1
     3    1   23 1
     4    1   24 1
     5    2    3 1
     6    2   25 1
     7    2   26 1
     8    3    4 1
     9    3   27 1
    10    3   28 1
    11    4    5 1
    12    4   29 1
    13    4   30 1
    14    5   10 2
    15    5    6 1
    16    6   21 ar
    17    6    7 ar
    18    7    8 1
    19    7   18 ar
    20    8    9 1
    21    8   10 1
    22   10   11 1
    23   11   16 ar
    24   11   12 ar
    25   12   13 ar
    26   12   31 1
    27   13   14 ar
    28   13   32 1
    29   14   15 ar
    30   14   17 1
    31   15   16 ar
    32   15   33 1
    33   16   34 1
    34   17   35 1
    35   18   19 ar
    36   19   20 ar
    37   19   36 1
    38   20   21 ar
    39   20   37 1
