@<TRIPOS>MOLECULE
ZINC11757505
   38    41     0     0     0
SMALL
USER_CHARGES

@<TRIPOS>ATOM
      1 C1         -0.0281    1.3907   -0.0583 C.ar      1 <0>        -0.0637
      2 C2          1.1566    2.0988   -0.0445 C.ar      1 <0>        -0.1515
      3 C3          2.3755    1.4194   -0.0134 C.ar      1 <0>         0.0165
      4 C4          2.3912    0.0249    0.0036 C.ar      1 <0>        -0.1940
      5 C5          1.1960   -0.6773   -0.0105 C.ar      1 <0>         0.2223
      6 C6         -0.0129    0.0089   -0.0415 C.ar      1 <0>        -0.1899
      7 N1          1.2061   -2.0741    0.0060 N.pl3     1 <0>        -0.8776
      8 C7          3.6462    2.1757    0.0009 C.2       1 <0>         0.1184
      9 C8          3.7528    3.5283   -0.0083 C.2       1 <0>        -0.1291
     10 C9          5.1781    3.8379    0.0121 C.ar      1 <0>        -0.2188
     11 C10         5.8544    2.6012    0.0331 C.ar      1 <0>         0.3514
     12 N2          4.9052    1.6157    0.0318 N.pl3     1 <0>        -0.5609
     13 H1          5.0909    0.6638    0.0474 H         1 <0>         0.4244
     14 N3          7.1853    2.6052    0.0545 N.ar      1 <0>        -0.5471
     15 C11         7.8538    3.7386    0.0561 C.ar      1 <0>         0.3574
     16 N4          7.2598    4.9181    0.0374 N.ar      1 <0>        -0.5825
     17 C12         5.9356    5.0184    0.0148 C.ar      1 <0>         0.4158
     18 O1          5.3318    6.2305   -0.0048 O.3       1 <0>        -0.2347
     19 C13         6.1156    7.3356    0.1003 C.ar      1 <0>         0.1036
     20 C14         6.1912    8.0217    1.3047 C.ar      1 <0>        -0.1224
     21 C15         6.9875    9.1454    1.4120 C.ar      1 <0>        -0.0898
     22 C16         7.7107    9.5894    0.3212 C.ar      1 <0>        -0.1384
     23 C17         7.6386    8.9072   -0.8849 C.ar      1 <0>         0.1193
     24 C18         6.8450    7.7755   -0.9935 C.ar      1 <0>        -0.1339
     25 O2          8.3493    9.3449   -1.9573 O.3       1 <0>        -0.4959
     26 H2         -0.9702    1.9184   -0.0778 H         1 <0>         0.1299
     27 H3          1.1405    3.1786   -0.0581 H         1 <0>         0.1290
     28 H4          3.3313   -0.5061    0.0273 H         1 <0>         0.1162
     29 H5         -0.9431   -0.5398   -0.0525 H         1 <0>         0.1239
     30 H6          2.0496   -2.5527    0.0273 H         1 <0>         0.3988
     31 H7          0.3698   -2.5653   -0.0039 H         1 <0>         0.4008
     32 H8          2.9395    4.2385   -0.0275 H         1 <0>         0.1628
     33 H9          8.9331    3.7028    0.0738 H         1 <0>         0.2064
     34 H10         5.6267    7.6768    2.1584 H         1 <0>         0.1335
     35 H11         7.0447    9.6780    2.3498 H         1 <0>         0.1374
     36 H12         8.3323   10.4684    0.4076 H         1 <0>         0.1351
     37 H13         6.7910    7.2405   -1.9302 H         1 <0>         0.1328
     38 H14         9.2366    8.9660   -2.0224 H         1 <0>         0.3945
@<TRIPOS>BOND
     1    1    6 ar
     2    1    2 ar
     3    1   26 1
     4    2    3 ar
     5    2   27 1
     6    3    4 ar
     7    3    8 1
     8    4    5 ar
     9    4   28 1
    10    5    6 ar
    11    5    7 1
    12    6   29 1
    13    7   30 1
    14    7   31 1
    15    8   12 1
    16    8    9 2
    17    9   10 1
    18    9   32 1
    19   10   17 ar
    20   10   11 ar
    21   11   12 1
    22   11   14 ar
    23   12   13 1
    24   14   15 ar
    25   15   16 ar
    26   15   33 1
    27   16   17 ar
    28   17   18 1
    29   18   19 1
    30   19   24 ar
    31   19   20 ar
    32   20   21 ar
    33   20   34 1
    34   21   22 ar
    35   21   35 1
    36   22   23 ar
    37   22   36 1
    38   23   24 ar
    39   23   25 1
    40   24   37 1
    41   25   38 1
