@<TRIPOS>MOLECULE
ZINC03874923
   54    53     0     0     0
SMALL
USER_CHARGES
2-amino-5-[1-(carboxymethylcarbamoyl)-2-hexylsulfanyl-ethyl]amino-5-oxo-pentanoic acid
@<TRIPOS>ATOM
      1 C1          6.3509   10.1337    5.2078 C.3       1 <0>        -0.1538
      2 C2          4.8502   10.0226    4.9311 C.3       1 <0>        -0.1260
      3 C3          4.4989    8.5708    4.5997 C.3       1 <0>        -0.1199
      4 C4          2.9982    8.4596    4.3230 C.3       1 <0>        -0.1158
      5 C5          2.6469    7.0078    3.9916 C.3       1 <0>        -0.1018
      6 C6          1.1463    6.8966    3.7149 C.3       1 <0>        -0.0906
      7 S1          0.7298    5.1754    3.3220 S.3       1 <0>        -0.2402
      8 C7         -1.0592    5.2138    3.0241 C.3       1 <0>        -0.0981
      9 C8         -1.5488    3.8063    2.6774 C.3       1 <0>         0.1490
     10 H1         -1.3329    3.1321    3.5061 H         1 <0>         0.1245
     11 C9         -3.0350    3.8382    2.4299 C.2       1 <0>         0.5012
     12 O1         -3.4778    3.4997    1.3528 O.2       1 <0>        -0.5448
     13 N1         -3.8721    4.2430    3.4056 N.am      1 <0>        -0.6978
     14 C10        -5.3169    4.2740    3.1650 C.3       1 <0>         0.0764
     15 C11        -6.0222    4.7600    4.4049 C.2       1 <0>         0.4591
     16 O2         -5.3836    5.0507    5.3886 O.co2     1 <0>        -0.6346
     17 N2         -0.8631    3.3339    1.4720 N.am      1 <0>        -0.7010
     18 C12        -0.7240    2.0118    1.2503 C.2       1 <0>         0.5208
     19 O3         -1.1666    1.2132    2.0486 O.2       1 <0>        -0.5228
     20 C13        -0.0187    1.5258    0.0104 C.3       1 <0>        -0.1487
     21 C14         0.0021   -0.0041    0.0020 C.3       1 <0>        -0.1120
     22 C15         0.7182   -0.4975   -1.2568 C.3       1 <0>        -0.0158
     23 H2          1.7103   -0.0491   -1.3098 H         1 <0>         0.1395
     24 C16         0.8473   -1.9981   -1.2057 C.2       1 <0>         0.4563
     25 O4          0.0764   -2.6922   -1.8252 O.co2     1 <0>        -0.6178
     26 H3          6.6011   11.1680    5.4439 H         1 <0>         0.0527
     27 H4          6.6132    9.4948    6.0511 H         1 <0>         0.0538
     28 H5          6.9074    9.8176    4.3256 H         1 <0>         0.0530
     29 H6          4.5879   10.6615    4.0879 H         1 <0>         0.0603
     30 H7          4.2937   10.3387    5.8134 H         1 <0>         0.0614
     31 H8          4.7612    7.9319    5.4430 H         1 <0>         0.0631
     32 H9          5.0554    8.2546    3.7174 H         1 <0>         0.0618
     33 H10         2.7359    9.0985    3.4798 H         1 <0>         0.0631
     34 H11         2.4417    8.7758    5.2053 H         1 <0>         0.0650
     35 H12         2.9092    6.3689    4.8349 H         1 <0>         0.0730
     36 H13         3.2035    6.6917    3.1093 H         1 <0>         0.0707
     37 H14         0.8840    7.5355    2.8716 H         1 <0>         0.0809
     38 H15         0.5897    7.2128    4.5972 H         1 <0>         0.0844
     39 H16        -1.2751    5.8881    2.1953 H         1 <0>         0.0931
     40 H17        -1.5694    5.5653    3.9209 H         1 <0>         0.1081
     41 H18        -3.5179    4.5138    4.2670 H         1 <0>         0.4078
     42 H19        -5.5328    4.9483    2.3362 H         1 <0>         0.0737
     43 H20        -5.6657    3.2713    2.9180 H         1 <0>         0.0746
     44 H21        -0.5092    3.9726    0.8335 H         1 <0>         0.4046
     45 H22         1.0039    1.9031    0.0027 H         1 <0>         0.1068
     46 H23        -0.5459    1.8868   -0.8726 H         1 <0>         0.0855
     47 H24         0.5293   -0.3651    0.8851 H         1 <0>         0.1202
     48 H25        -1.0205   -0.3814    0.0098 H         1 <0>         0.0925
     49 H26        -0.9815   -0.5164   -2.4183 H         1 <0>         0.4363
     50 H27        -0.1031    0.8909   -2.5359 H         1 <0>         0.4181
     51 O5         -7.3600    4.8700    4.4165 O.co2     1 <0>        -0.7543
     52 O6          1.8187   -2.5636   -0.4720 O.co2     1 <0>        -0.7028
     53 N3         -0.0427   -0.1233   -2.4619 N.4       1 <0>        -0.6271
     54 H28         0.4366   -0.4918   -3.2917 H         1 <0>         0.4347
@<TRIPOS>BOND
     1    1    2 1
     2    1   26 1
     3    1   27 1
     4    1   28 1
     5    2    3 1
     6    2   29 1
     7    2   30 1
     8    3    4 1
     9    3   31 1
    10    3   32 1
    11    4    5 1
    12    4   33 1
    13    4   34 1
    14    5    6 1
    15    5   35 1
    16    5   36 1
    17    6    7 1
    18    6   37 1
    19    6   38 1
    20    7    8 1
    21    8    9 1
    22    8   39 1
    23    8   40 1
    24    9   10 1
    25    9   11 1
    26    9   17 1
    27   11   12 2
    28   11   13 am
    29   13   14 1
    30   13   41 1
    31   14   15 1
    32   14   42 1
    33   14   43 1
    34   15   16 2
    35   15   51 1
    36   17   18 am
    37   17   44 1
    38   18   19 2
    39   18   20 1
    40   20   21 1
    41   20   45 1
    42   20   46 1
    43   21   22 1
    44   21   47 1
    45   21   48 1
    46   22   23 1
    47   22   24 1
    48   22   53 1
    49   24   25 2
    50   24   52 1
    51   49   53 1
    52   50   53 1
    53   53   54 1
