@<TRIPOS>MOLECULE
ZINC00058129
   20    21     0     0     0
SMALL
USER_CHARGES

@<TRIPOS>ATOM
      1 C1         -0.0184    1.5028    0.0103 C.3       1 <0>        -0.1641
      2 C2          0.0021   -0.0041    0.0020 C.2       1 <0>         0.4946
      3 O1          0.0203   -0.6160    1.0488 O.2       1 <0>        -0.4663
      4 N1          0.0001   -0.6716   -1.1688 N.am      1 <0>        -0.6421
      5 C3          0.0189   -2.0623   -1.1765 C.ar      1 <0>         0.5664
      6 N2          0.0165   -2.6928   -2.3365 N.ar      1 <0>        -0.6121
      7 C4          0.0343   -4.0284   -2.3821 C.ar      1 <0>         0.3106
      8 C5          0.0555   -4.7447   -1.1736 C.ar      1 <0>        -0.1687
      9 C6          0.0572   -4.0353    0.0268 C.ar      1 <0>         0.4904
     10 N3          0.0441   -2.7082   -0.0179 N.ar      1 <0>        -0.5907
     11 O2          0.0769   -4.6869    1.2149 O.3       1 <0>        -0.6892
     12 N4          0.0699   -6.0806   -1.5217 N.pl3     1 <0>        -0.5549
     13 C7          0.0577   -6.1409   -2.8721 C.2       1 <0>         0.2367
     14 N5          0.0368   -4.9378   -3.3749 N.2       1 <0>        -0.5104
     15 H1          0.0861   -6.8345   -0.9116 H         1 <0>         0.4189
     16 H2          1.0042    1.8801    0.0026 H         1 <0>         0.0907
     17 H3         -0.5455    1.8639   -0.8728 H         1 <0>         0.0777
     18 H4         -0.5286    1.8543    0.9071 H         1 <0>         0.0917
     19 H5         -0.0145   -0.1822   -2.0061 H         1 <0>         0.4116
     20 H6          0.0640   -7.0529   -3.4505 H         1 <0>         0.2093
@<TRIPOS>BOND
     1    1    2 1
     2    1   16 1
     3    1   17 1
     4    1   18 1
     5    2    3 2
     6    2    4 am
     7    4   19 1
     8    4    5 1
     9    5    6 ar
    10    5   10 ar
    11    6    7 ar
    12    7   14 1
    13    7    8 ar
    14    8    9 ar
    15    8   12 1
    16    9   10 ar
    17    9   11 1
    18   12   15 1
    19   12   13 1
    20   13   20 1
    21   13   14 2
@<TRIPOS>MOLECULE
ZINC00058129
   21    22     0     0     0
SMALL
USER_CHARGES
N-(6-oxo-1,9-dihydropurin-2-yl)acetamide
@<TRIPOS>ATOM
      1 C1         -3.7498    5.9899    0.0868 C.3       1 <0>        -0.1611
      2 C2         -2.4288    5.2650    0.0642 C.2       1 <0>         0.4767
      3 O1         -1.3921    5.8940    0.0579 O.2       1 <0>        -0.4337
      4 N1         -2.3995    3.9177    0.0509 N.am      1 <0>        -0.5927
      5 C3         -1.1906    3.2543    0.0303 C.2       1 <0>         0.5544
      6 N2         -1.1841    1.8919    0.0171 N.am      1 <0>        -0.6355
      7 H1         -2.0492    1.3903    0.0140 H         1 <0>         0.4326
      8 C4         -0.0145    1.2149    0.0083 C.2       1 <0>         0.5890
      9 O2          0.0021   -0.0041    0.0016 O.2       1 <0>        -0.5291
     10 C5          1.1907    1.9569    0.0012 C.2       1 <0>        -0.1831
     11 C6          1.1162    3.3543    0.0095 C.2       1 <0>         0.3049
     12 N3         -0.0801    3.9542    0.0238 N.2       1 <0>        -0.4688
     13 N4          2.4089    3.8034   -0.0000 N.2       1 <0>        -0.4738
     14 H2          2.8641    0.6914   -0.0210 H         1 <0>         0.4395
     15 C7          3.2230    2.7087   -0.0135 C.2       1 <0>         0.2465
     16 N5          2.5039    1.6242   -0.0127 N.pl3     1 <0>        -0.4879
     17 H3         -4.3049    5.7057    0.9807 H         1 <0>         0.0952
     18 H4         -3.5739    7.0655    0.0950 H         1 <0>         0.1007
     19 H5         -4.3261    5.7227   -0.7990 H         1 <0>         0.1016
     20 H6         -2.8539    3.5663    0.8695 H         1 <0>         0.3931
     21 H7          4.3026    2.7378   -0.0234 H         1 <0>         0.2314
@<TRIPOS>BOND
     1    1    2 1
     2    1   17 1
     3    1   18 1
     4    1   19 1
     5    2    3 2
     6    2    4 am
     7    4    5 1
     8    4   20 1
     9    5    6 1
    10    5   12 2
    11    6    7 1
    12    6    8 am
    13    8   10 1
    14    8    9 2
    15   10   16 1
    16   10   11 2
    17   11   13 1
    18   11   12 1
    19   13   15 2
    20   14   16 1
    21   15   21 1
    22   15   16 1
@<TRIPOS>MOLECULE
ZINC13517187
   15    16     0     0     0
SMALL
USER_CHARGES

@<TRIPOS>ATOM
      1 C1         -0.0157    1.3045    0.0092 C.2       1 <0>         0.2809
      2 N1          1.2464    1.7761   -0.0003 N.pl3     1 <0>        -0.5168
      3 H1          1.5140    2.7085    0.0024 H         1 <0>         0.4398
      4 C2          2.0863    0.6806   -0.0142 C.2       1 <0>        -0.1540
      5 C3          1.2645   -0.4394   -0.0124 C.2       1 <0>         0.3193
      6 N2          0.0021   -0.0041    0.0020 N.2       1 <0>        -0.5005
      7 N3          1.8472   -1.6964   -0.0251 N.am      1 <0>        -0.6100
      8 H2          1.2884   -2.4892   -0.0240 H         1 <0>         0.4409
      9 C4          3.1879   -1.8190   -0.0394 C.2       1 <0>         0.7163
     10 O1          3.6812   -2.9304   -0.0508 O.2       1 <0>        -0.5314
     11 N4          3.9949   -0.7440   -0.0418 N.am      1 <0>        -0.6498
     12 H3          4.9567   -0.8688   -0.0525 H         1 <0>         0.4421
     13 C5          3.4870    0.5060   -0.0285 C.2       1 <0>         0.5973
     14 O2          4.2283    1.4723   -0.0308 O.2       1 <0>        -0.5105
     15 H4         -0.9071    1.9140    0.0251 H         1 <0>         0.2366
@<TRIPOS>BOND
     1    1    6 2
     2    1    2 1
     3    1   15 1
     4    2    3 1
     5    2    4 1
     6    4   13 1
     7    4    5 2
     8    5    6 1
     9    5    7 1
    10    7    8 1
    11    7    9 am
    12    9   10 2
    13    9   11 am
    14   11   12 1
    15   11   13 am
    16   13   14 2
@<TRIPOS>MOLECULE
ZINC13517187
   14    15     0     0     0
SMALL
USER_CHARGES

@<TRIPOS>ATOM
      1 C1         -0.0160    1.3261    0.0093 C.2       1 <0>         0.1226
      2 N1          1.2100    1.7972    0.0002 N.2       1 <0>        -0.4738
      3 C2          2.0620    0.7458   -0.0136 C.2       1 <0>        -0.1667
      4 C3          1.2579   -0.4160   -0.0122 C.2       1 <0>         0.2153
      5 N2          0.0021   -0.0041    0.0020 N.2       1 <0>        -0.5565
      6 N3          1.8730   -1.6563   -0.0240 N.am      1 <0>        -0.6044
      7 H1          1.3360   -2.4642   -0.0236 H         1 <0>         0.4206
      8 C4          3.2171   -1.7410   -0.0367 C.2       1 <0>         0.7120
      9 O1          3.7413   -2.8382   -0.0474 O.2       1 <0>        -0.5819
     10 N4          3.9940   -0.6445   -0.0382 N.am      1 <0>        -0.6385
     11 H2          4.9587   -0.7446   -0.0475 H         1 <0>         0.4262
     12 C5          3.4513    0.6052   -0.0280 C.2       1 <0>         0.5529
     13 O2          4.2449    1.6914   -0.0298 O.3       1 <0>        -0.6075
     14 H3         -0.9101    1.9316    0.0252 H         1 <0>         0.1796
@<TRIPOS>BOND
     1    1    5 1
     2    1    2 2
     3    1   14 1
     4    2    3 1
     5    3   12 2
     6    3    4 1
     7    4    5 2
     8    4    6 1
     9    6    7 1
    10    6    8 am
    11    8    9 2
    12    8   10 am
    13   10   11 1
    14   10   12 1
    15   12   13 1
@<TRIPOS>MOLECULE
ZINC03861263
   15    15     0     0     0
SMALL
USER_CHARGES

@<TRIPOS>ATOM
      1 C1         -0.0156    1.2958    0.0092 C.2       1 <0>         0.1726
      2 N1          1.2639    1.7668   -0.0005 N.pl3     1 <0>        -0.5955
      3 H1          1.5312    2.6992    0.0024 H         1 <0>         0.4231
      4 C2          2.1007    0.6881   -0.0143 C.2       1 <0>         0.3403
      5 C3          1.2914   -0.4345   -0.0126 C.2       1 <0>        -0.0583
      6 N2          0.0021   -0.0041    0.0020 N.2       1 <0>        -0.4114
      7 C4          1.7426   -1.8336   -0.0252 C.2       1 <0>         0.4514
      8 N3          0.8671   -2.8017   -0.0219 N.2       1 <0>        -0.7284
      9 O1          3.0655   -2.1177   -0.0401 O.3       1 <0>        -0.5390
     10 N4          3.4840    0.7125   -0.0278 N.pl3     1 <0>        -0.8394
     11 H2         -0.9054    1.9076    0.0250 H         1 <0>         0.2174
     12 H3          1.1648   -3.7248   -0.0302 H         1 <0>         0.3354
     13 H4          3.2645   -3.0640   -0.0475 H         1 <0>         0.4049
     14 H5          3.9541    1.5610   -0.0277 H         1 <0>         0.4003
     15 H6          3.9837   -0.1188   -0.0373 H         1 <0>         0.4265
@<TRIPOS>BOND
     1    1    6 2
     2    1    2 1
     3    1   11 1
     4    2    3 1
     5    2    4 1
     6    4    5 2
     7    4   10 1
     8    5    6 1
     9    5    7 1
    10    7    8 2
    11    7    9 1
    12    8   12 1
    13    9   13 1
    14   10   14 1
    15   10   15 1
@<TRIPOS>MOLECULE
ZINC00391789
   18    19     0     0     0
SMALL
USER_CHARGES

@<TRIPOS>ATOM
      1 C1         -0.0127    1.0858    0.0080 C.3       1 <0>         0.0670
      2 N1         -0.7213    1.5711   -1.1789 N.pl3     1 <0>        -0.4112
      3 C2         -2.0414    1.8214   -1.2777 C.2       1 <0>         0.2703
      4 N2         -2.3218    2.2417   -2.4849 N.2       1 <0>        -0.4995
      5 C3         -1.2075    2.2837   -3.2197 C.2       1 <0>         0.3157
      6 C4         -0.1620    1.8645   -2.4065 C.2       1 <0>        -0.1567
      7 C5          1.1455    1.8184   -2.9362 C.2       1 <0>         0.5987
      8 N3          1.3502    2.1856   -4.2183 N.am      1 <0>        -0.6503
      9 C6          0.3300    2.5929   -4.9929 C.2       1 <0>         0.7164
     10 N4         -0.9332    2.6428   -4.5294 N.am      1 <0>        -0.6099
     11 O1          0.5522    2.9171   -6.1437 O.2       1 <0>        -0.5329
     12 O2          2.0782    1.4519   -2.2439 O.2       1 <0>        -0.5117
     13 H1          0.0021   -0.0041    0.0020 H         1 <0>         0.0890
     14 H2          1.0099    1.4631    0.0003 H         1 <0>         0.1013
     15 H3         -0.5229    1.4373    0.9048 H         1 <0>         0.0994
     16 H4         -2.7597    1.6940   -0.4813 H         1 <0>         0.2326
     17 H5         -1.6505    2.9419   -5.1099 H         1 <0>         0.4402
     18 H6          2.2471    2.1556   -4.5865 H         1 <0>         0.4415
@<TRIPOS>BOND
     1    1   13 1
     2    1   14 1
     3    1   15 1
     4    1    2 1
     5    2    3 1
     6    2    6 1
     7    3   16 1
     8    3    4 2
     9    4    5 1
    10    5   10 1
    11    5    6 2
    12    6    7 1
    13    7    8 am
    14    7   12 2
    15    8    9 am
    16    8   18 1
    17    9   10 am
    18    9   11 2
    19   10   17 1
@<TRIPOS>MOLECULE
ZINC07486121
   17    18     0     0     0
SMALL
USER_CHARGES

@<TRIPOS>ATOM
      1 C1         -0.0156    1.2967    0.0092 C.2       1 <0>         0.2364
      2 N1          1.2604    1.7798   -0.0004 N.pl3     1 <0>        -0.5836
      3 H1          1.5204    2.7143    0.0024 H         1 <0>         0.4296
      4 C2          2.1083    0.7013   -0.0143 C.ar      1 <0>         0.3464
      5 C3          1.2865   -0.4379   -0.0126 C.ar      1 <0>        -0.1574
      6 N2          0.0021   -0.0041    0.0020 N.2       1 <0>        -0.4549
      7 C4          1.9003   -1.7023   -0.0248 C.ar      1 <0>         0.5450
      8 N3          3.2272   -1.7643   -0.0375 N.ar      1 <0>        -0.6303
      9 C5          3.9654   -0.6618   -0.0386 C.ar      1 <0>         0.6318
     10 N4          3.4285    0.5476   -0.0277 N.ar      1 <0>        -0.6170
     11 N5          5.3454   -0.7808   -0.0516 N.pl3     1 <0>        -0.8167
     12 N6          1.1389   -2.8575   -0.0233 N.pl3     1 <0>        -0.8154
     13 H2         -0.9083    1.9044    0.0250 H         1 <0>         0.2240
     14 H3          5.7563   -1.6595   -0.0596 H         1 <0>         0.4164
     15 H4          5.9008    0.0144   -0.0526 H         1 <0>         0.4155
     16 H5          0.1706   -2.8002   -0.0137 H         1 <0>         0.4206
     17 H6          1.5733   -3.7248   -0.0318 H         1 <0>         0.4098
@<TRIPOS>BOND
     1    1    6 2
     2    1    2 1
     3    1   13 1
     4    2    3 1
     5    2    4 1
     6    4   10 ar
     7    4    5 ar
     8    5    6 1
     9    5    7 ar
    10    7    8 ar
    11    7   12 1
    12    8    9 ar
    13    9   10 ar
    14    9   11 1
    15   11   14 1
    16   11   15 1
    17   12   16 1
    18   12   17 1
@<TRIPOS>MOLECULE
ZINC02041003
   15    16     0     0     0
SMALL
USER_CHARGES

@<TRIPOS>ATOM
      1 C1         -0.0169    1.3948    0.0097 C.2       1 <0>        -0.2178
      2 C2         -1.3676    1.7793    0.0179 C.2       1 <0>         0.4331
      3 N1         -2.1110    0.6196    0.0149 N.am      1 <0>        -0.6240
      4 H1         -3.0798    0.5709    0.0190 H         1 <0>         0.4301
      5 C3         -1.2747   -0.4348    0.0054 C.2       1 <0>         0.6813
      6 O1         -1.6196   -1.6015   -0.0002 O.2       1 <0>        -0.5847
      7 N2          0.0021   -0.0041    0.0020 N.am      1 <0>        -0.6039
      8 H2          0.7938   -0.5644   -0.0087 H         1 <0>         0.4291
      9 N3         -1.6812    3.0697    0.0259 N.2       1 <0>        -0.6337
     10 C4         -0.7342    4.0026    0.0263 C.2       1 <0>         0.6663
     11 O2         -1.0580    5.1794    0.0338 O.2       1 <0>        -0.5872
     12 N4          0.5723    3.6814    0.0192 N.am      1 <0>        -0.6526
     13 H3          1.2425    4.3827    0.0203 H         1 <0>         0.4078
     14 C5          0.9584    2.3699    0.0056 C.2       1 <0>         0.5189
     15 O3          2.2674    2.0362   -0.0077 O.3       1 <0>        -0.6626
@<TRIPOS>BOND
     1    1    7 1
     2    1   14 2
     3    1    2 1
     4    2    3 1
     5    2    9 2
     6    3    4 1
     7    3    5 am
     8    5    6 2
     9    5    7 am
    10    7    8 1
    11    9   10 1
    12   10   11 2
    13   10   12 am
    14   12   13 1
    15   12   14 1
    16   14   15 1
@<TRIPOS>MOLECULE
ZINC02041003
   15    16     0     0     0
SMALL
USER_CHARGES

@<TRIPOS>ATOM
      1 C1         -0.0169    1.3922    0.0097 C.2       1 <0>        -0.2341
      2 C2         -1.3506    1.7796    0.0178 C.2       1 <0>         0.4083
      3 N1         -2.1053    0.6246    0.0149 N.am      1 <0>        -0.6206
      4 C3         -1.2749   -0.4350    0.0054 C.2       1 <0>         0.6771
      5 N2          0.0021   -0.0041    0.0020 N.am      1 <0>        -0.6018
      6 H1          0.7938   -0.5644   -0.0082 H         1 <0>         0.4277
      7 O1         -1.6233   -1.6011    0.0010 O.2       1 <0>        -0.5857
      8 N3         -1.6597    3.0822    0.0263 N.2       1 <0>        -0.6131
      9 C4         -0.7226    4.0016    0.0271 C.2       1 <0>         0.6295
     10 N4          0.5979    3.6777    0.0194 N.am      1 <0>        -0.6560
     11 C5          0.9786    2.3810    0.0055 C.2       1 <0>         0.5767
     12 O2          2.1607    2.0772   -0.0065 O.2       1 <0>        -0.5861
     13 O3         -1.0796    5.3034    0.0353 O.3       1 <0>        -0.6607
     14 H2          1.2681    4.3789    0.0202 H         1 <0>         0.4084
     15 H3         -3.0744    0.5830    0.0195 H         1 <0>         0.4303
@<TRIPOS>BOND
     1    1    5 1
     2    1   11 1
     3    1    2 2
     4    2    3 1
     5    2    8 1
     6    3    4 am
     7    3   15 1
     8    4    5 am
     9    4    7 2
    10    5    6 1
    11    8    9 2
    12    9   10 1
    13    9   13 1
    14   10   11 am
    15   10   14 1
    16   11   12 2
