@<TRIPOS>MOLECULE
ZINC03607120
   49    52     0     0     0
SMALL
USER_CHARGES

@<TRIPOS>ATOM
      1 C1          0.0703    1.3683    0.2046 C.3       1 <0>        -0.1796
      2 C2          0.0786   -0.1604    0.1419 C.3       1 <0>         0.0099
      3 H1          0.5768   -0.4839   -0.7721 H         1 <0>         0.1447
      4 C3         -1.3629   -0.6799    0.1494 C.3       1 <0>         0.1287
      5 N1         -1.3287   -2.1489    0.2204 N.pl3     1 <0>        -0.6633
      6 C4         -0.4982   -2.7735    1.2617 C.3       1 <0>         0.1158
      7 C5          0.9024   -2.1551    1.2017 C.3       1 <0>        -0.0286
      8 N2          0.7965   -0.6943    1.3061 N.4       1 <0>        -0.4998
      9 C6         -2.0641   -2.9282   -0.6747 C.ar      1 <0>         0.1506
     10 C7         -3.3735   -3.2950   -0.3599 C.ar      1 <0>         0.0557
     11 C8         -4.1045   -4.0580   -1.2269 C.ar      1 <0>        -0.0533
     12 C9         -3.5393   -4.4733   -2.4353 C.ar      1 <0>        -0.1534
     13 C10        -2.2212   -4.1102   -2.7648 C.ar      1 <0>         0.1952
     14 C11        -1.4891   -3.3276   -1.8740 C.ar      1 <0>         0.0537
     15 O1         -0.2137   -2.9609   -2.1757 O.3       1 <0>        -0.3146
     16 C12         0.8307   -3.8424   -1.7584 C.3       1 <0>         0.0065
     17 N3         -1.6627   -4.5214   -3.9586 N.pl3     1 <0>        -0.4586
     18 C13        -2.3247   -5.2694   -4.8484 C.2       1 <0>         0.1374
     19 C14        -3.6248   -5.6876   -4.6354 C.2       1 <0>        -0.2779
     20 C15        -4.3034   -5.2962   -3.3880 C.2       1 <0>         0.4114
     21 O2         -5.4490   -5.6398   -3.1537 O.2       1 <0>        -0.4305
     22 C16        -4.3174   -6.5064   -5.6352 C.2       1 <0>         0.5340
     23 O3         -3.7442   -6.8252   -6.6689 O.co2     1 <0>        -0.6962
     24 O4         -5.4689   -6.8713   -5.4364 O.co2     1 <0>        -0.6575
     25 C17        -0.2869   -4.1212   -4.2641 C.3       1 <0>         0.0291
     26 C18         0.2950   -4.5620   -5.6087 C.3       1 <0>        -0.1804
     27 C19         0.7744   -5.2220   -4.3143 C.3       1 <0>        -0.1927
     28 F1         -3.9212   -2.8942    0.8082 F         1 <0>        -0.1324
     29 H2          1.0957    1.7377    0.1996 H         1 <0>         0.0828
     30 H3         -0.4630    1.7645   -0.6595 H         1 <0>         0.1081
     31 H4         -0.4279    1.6917    1.1186 H         1 <0>         0.0816
     32 H5         -1.8906   -0.2834    1.0168 H         1 <0>         0.0808
     33 H6         -1.8690   -0.3691   -0.7646 H         1 <0>         0.1173
     34 H7         -0.9387   -2.5884    2.2414 H         1 <0>         0.0842
     35 H8         -0.4328   -3.8468    1.0831 H         1 <0>         0.1147
     36 H9          1.5035   -2.5359    2.0274 H         1 <0>         0.1401
     37 H10         1.3757   -2.4184    0.2557 H         1 <0>         0.1327
     38 H11         1.7216   -0.2930    1.3424 H         1 <0>         0.4267
     39 H12        -5.1170   -4.3397   -0.9782 H         1 <0>         0.1587
     40 H13         0.6892   -4.8186   -2.2222 H         1 <0>         0.0714
     41 H14         1.7944   -3.4327   -2.0609 H         1 <0>         0.0963
     42 H15         0.8052   -3.9483   -0.6738 H         1 <0>         0.0397
     43 H16        -1.8271   -5.5556   -5.7632 H         1 <0>         0.1757
     44 H17         0.0158   -3.1473   -3.8793 H         1 <0>         0.1743
     45 H18        -0.3457   -5.1497   -6.2660 H         1 <0>         0.1146
     46 H19         0.9807   -3.8780   -6.1088 H         1 <0>         0.1127
     47 H20         1.7755   -4.9723   -3.9629 H         1 <0>         0.1060
     48 H21         0.4491   -6.2440   -4.1201 H         1 <0>         0.1034
     49 H22         0.2951   -0.4542    2.1481 H         1 <0>         0.4245
@<TRIPOS>BOND
     1    1    2 1
     2    1   29 1
     3    1   30 1
     4    1   31 1
     5    2    3 1
     6    2    8 1
     7    2    4 1
     8    4    5 1
     9    4   32 1
    10    4   33 1
    11    5    6 1
    12    5    9 1
    13    6    7 1
    14    6   34 1
    15    6   35 1
    16    7    8 1
    17    7   36 1
    18    7   37 1
    19    8   38 1
    20    8   49 1
    21    9   14 ar
    22    9   10 ar
    23   10   11 ar
    24   10   28 1
    25   11   12 ar
    26   11   39 1
    27   12   20 1
    28   12   13 ar
    29   13   14 ar
    30   13   17 1
    31   14   15 1
    32   15   16 1
    33   16   40 1
    34   16   41 1
    35   16   42 1
    36   17   18 1
    37   17   25 1
    38   18   19 2
    39   18   43 1
    40   19   20 1
    41   19   22 1
    42   20   21 2
    43   22   23 2
    44   22   24 1
    45   25   27 1
    46   25   26 1
    47   25   44 1
    48   26   27 1
    49   26   45 1
    50   26   46 1
    51   27   47 1
    52   27   48 1
@<TRIPOS>MOLECULE
ZINC03607120
   50    53     0     0     0
SMALL
USER_CHARGES

@<TRIPOS>ATOM
      1 C1         -1.9629    1.9071    1.0651 C.3       1 <0>        -0.1825
      2 C2         -1.3410    0.6063    0.5532 C.3       1 <0>         0.0155
      3 H1         -1.0256    0.7369   -0.4819 H         1 <0>         0.1457
      4 C3         -2.3756   -0.5210    0.6337 C.3       1 <0>         0.0593
      5 N1         -1.7192   -1.7839    0.2616 N.pl3     1 <0>        -0.6066
      6 C4         -0.4542   -2.1302    0.9277 C.3       1 <0>         0.0712
      7 C5          0.4898   -0.9269    0.8333 C.3       1 <0>        -0.0219
      8 N2         -0.1773    0.2615    1.3798 N.4       1 <0>        -0.5060
      9 C6         -2.2567   -2.5930   -0.6546 C.2       1 <0>         0.2448
     10 C7         -3.0907   -2.0586   -1.6661 C.2       1 <0>         0.0267
     11 C8         -3.6408   -2.8722   -2.6012 C.2       1 <0>        -0.0085
     12 C9         -3.3846   -4.2586   -2.5705 C.2       1 <0>        -0.1429
     13 C10        -2.5506   -4.8072   -1.5623 C.2       1 <0>         0.2277
     14 C11        -1.9877   -3.9744   -0.6154 C.2       1 <0>        -0.0045
     15 O1         -1.1805   -4.4876    0.3549 O.3       1 <0>        -0.3077
     16 C12        -1.6957   -4.5007    1.6877 C.3       1 <0>         0.0036
     17 N3         -2.3028   -6.1668   -1.5378 N.pl3     1 <0>        -0.3990
     18 C13        -2.8385   -6.9837   -2.4549 C.2       1 <0>         0.2488
     19 C14        -3.6594   -6.4987   -3.4599 C.2       1 <0>        -0.2886
     20 C15        -3.9469   -5.1135   -3.5318 C.2       1 <0>         0.3591
     21 O2         -4.7454   -4.6254   -4.5048 O.3       1 <0>        -0.4269
     22 C16        -4.2309   -7.4202   -4.4506 C.2       1 <0>         0.5375
     23 O3         -4.0831   -8.6280   -4.3197 O.co2     1 <0>        -0.6304
     24 O4         -4.8549   -6.9802   -5.4071 O.co2     1 <0>        -0.6499
     25 C17        -1.4403   -6.7236   -0.4926 C.3       1 <0>         0.0037
     26 C18        -1.1776   -8.2306   -0.5219 C.3       1 <0>        -0.1701
     27 C19        -2.0918   -7.6341    0.5502 C.3       1 <0>        -0.1695
     28 F1         -3.3402   -0.7312   -1.6996 F         1 <0>        -0.1155
     29 H2         -1.2267    2.7089    1.0080 H         1 <0>         0.0909
     30 H3         -2.8269    2.1628    0.4516 H         1 <0>         0.1125
     31 H4         -2.2782    1.7763    2.1003 H         1 <0>         0.0855
     32 H5         -2.7596   -0.5938    1.6513 H         1 <0>         0.1016
     33 H6         -3.1944   -0.3166   -0.0561 H         1 <0>         0.1596
     34 H7         -0.6441   -2.3655    1.9749 H         1 <0>         0.1014
     35 H8         -0.0026   -2.9897    0.4323 H         1 <0>         0.1553
     36 H9          1.3957   -1.1300    1.4044 H         1 <0>         0.1516
     37 H10         0.7499   -0.7500   -0.2103 H         1 <0>         0.1375
     38 H11         0.4698    1.0357    1.3869 H         1 <0>         0.4352
     39 H12        -4.2761   -2.4580   -3.3701 H         1 <0>         0.1787
     40 H13        -0.9190   -4.8376    2.3742 H         1 <0>         0.1111
     41 H14        -2.0139   -3.4955    1.9641 H         1 <0>         0.0542
     42 H15        -2.5473   -5.1789    1.7414 H         1 <0>         0.0640
     43 H16        -2.6258   -8.0416   -2.4099 H         1 <0>         0.2115
     44 H17        -0.6284   -6.0772   -0.1594 H         1 <0>         0.1887
     45 H18        -1.6465   -8.8078   -1.3188 H         1 <0>         0.1175
     46 H19        -0.1926   -8.5759   -0.2081 H         1 <0>         0.1294
     47 H20        -1.7081   -7.5871    1.5694 H         1 <0>         0.1215
     48 H21        -3.1621   -7.8189    0.4586 H         1 <0>         0.1095
     49 H22        -0.4808    0.0713    2.3231 H         1 <0>         0.4268
     50 H23        -5.1481   -5.3059   -5.0615 H         1 <0>         0.4428
@<TRIPOS>BOND
     1    1    2 1
     2    1   29 1
     3    1   30 1
     4    1   31 1
     5    2    3 1
     6    2    8 1
     7    2    4 1
     8    4    5 1
     9    4   32 1
    10    4   33 1
    11    5    6 1
    12    5    9 2
    13    6    7 1
    14    6   34 1
    15    6   35 1
    16    7    8 1
    17    7   36 1
    18    7   37 1
    19    8   38 1
    20    8   49 1
    21    9   14 1
    22    9   10 1
    23   10   11 2
    24   10   28 1
    25   11   12 1
    26   11   39 1
    27   12   20 2
    28   12   13 1
    29   13   14 2
    30   13   17 1
    31   14   15 1
    32   15   16 1
    33   16   40 1
    34   16   41 1
    35   16   42 1
    36   17   18 1
    37   17   25 1
    38   18   19 2
    39   18   43 1
    40   19   20 1
    41   19   22 1
    42   20   21 1
    43   21   50 1
    44   22   23 2
    45   22   24 1
    46   25   27 1
    47   25   26 1
    48   25   44 1
    49   26   27 1
    50   26   45 1
    51   26   46 1
    52   27   47 1
    53   27   48 1
@<TRIPOS>MOLECULE
ZINC38197764
   50    53     0     0     0
SMALL
USER_CHARGES

@<TRIPOS>ATOM
      1 C1          0.0386    1.3298    0.2361 C.3       1 <0>        -0.1813
      2 C2          0.0623   -0.1987    0.1732 C.3       1 <0>         0.0090
      3 H1         -0.9592   -0.5788    0.1808 H         1 <0>         0.1425
      4 C3          0.7644   -0.6463   -1.1131 C.3       1 <0>         0.1280
      5 N1          0.8914   -2.1117   -1.0894 N.pl3     1 <0>        -0.6678
      6 C4          1.4624   -2.7387    0.1127 C.3       1 <0>         0.1147
      7 C5          0.7273   -2.1923    1.3411 C.3       1 <0>        -0.0228
      8 N2          0.7893   -0.7253    1.3352 N.4       1 <0>        -0.5012
      9 C6          0.4813   -2.8856   -2.1768 C.ar      1 <0>         0.1560
     10 C7         -0.8326   -3.3530   -2.2379 C.ar      1 <0>         0.0795
     11 C8         -1.2474   -4.1115   -3.2965 C.ar      1 <0>        -0.0600
     12 C9         -0.3526   -4.4214   -4.3238 C.ar      1 <0>        -0.1373
     13 C10         0.9740   -3.9568   -4.2744 C.ar      1 <0>         0.1716
     14 C11         1.3819   -3.1796   -3.1919 C.ar      1 <0>         0.0847
     15 O1          2.6594   -2.7149   -3.1275 O.3       1 <0>        -0.3129
     16 C12         3.6212   -3.5488   -2.4781 C.3       1 <0>         0.0148
     17 N3          1.8577   -4.2637   -5.2894 N.pl3     1 <0>        -0.4460
     18 C13         1.5124   -5.0017   -6.3519 C.2       1 <0>         0.2455
     19 C14         0.2399   -5.5124   -6.5097 C.2       1 <0>        -0.3202
     20 C15        -0.7715   -5.2369   -5.4760 C.2       1 <0>         0.4290
     21 O2         -1.9087   -5.6654   -5.5705 O.2       1 <0>        -0.4348
     22 C16        -0.1001   -6.3176   -7.6908 C.2       1 <0>         0.5479
     23 O3          0.7426   -6.5388   -8.5387 O.2       1 <0>        -0.5283
     24 O4         -1.3464   -6.8112   -7.8341 O.3       1 <0>        -0.4810
     25 C17         3.2307   -3.7606   -5.2006 C.3       1 <0>         0.0132
     26 C18         4.1789   -4.0873   -6.3560 C.3       1 <0>        -0.1762
     27 C19         4.3482   -4.7874   -5.0062 C.3       1 <0>        -0.1836
     28 F1         -1.6987   -3.0544   -1.2451 F         1 <0>        -0.1275
     29 H2          1.0602    1.7097    0.2285 H         1 <0>         0.0835
     30 H3         -0.5008    1.7206   -0.6268 H         1 <0>         0.1085
     31 H4         -0.4606    1.6480    1.1513 H         1 <0>         0.0862
     32 H5          0.1731   -0.3439   -1.9774 H         1 <0>         0.1163
     33 H6          1.7545   -0.1937   -1.1665 H         1 <0>         0.0871
     34 H7          1.3325   -3.8196    0.0589 H         1 <0>         0.1157
     35 H8          2.5230   -2.4973    0.1831 H         1 <0>         0.0847
     36 H9         -0.3143   -2.5122    1.3135 H         1 <0>         0.1355
     37 H10         1.2004   -2.5724    2.2466 H         1 <0>         0.1429
     38 H11         1.7532   -0.4309    1.2891 H         1 <0>         0.4251
     39 H12        -2.2650   -4.4709   -3.3387 H         1 <0>         0.1659
     40 H13         4.5960   -3.0615   -2.4963 H         1 <0>         0.1052
     41 H14         3.3180   -3.7163   -1.4446 H         1 <0>         0.0472
     42 H15         3.6831   -4.5048   -2.9981 H         1 <0>         0.0661
     43 H16         2.2540   -5.2037   -7.1106 H         1 <0>         0.1874
     44 H17         3.3461   -2.7927   -4.7128 H         1 <0>         0.1869
     45 H18         3.7812   -4.6767   -7.1822 H         1 <0>         0.1104
     46 H19         4.9183   -3.3343   -6.6287 H         1 <0>         0.1234
     47 H20         5.1989   -4.4949   -4.3907 H         1 <0>         0.1177
     48 H21         4.0618   -5.8373   -4.9443 H         1 <0>         0.1065
     49 H22         0.3714   -0.3688    2.1816 H         1 <0>         0.4307
     50 H23        -1.4745   -7.3275   -8.6416 H         1 <0>         0.4114
@<TRIPOS>BOND
     1    1    2 1
     2    1   29 1
     3    1   30 1
     4    1   31 1
     5    2    3 1
     6    2    8 1
     7    2    4 1
     8    4    5 1
     9    4   32 1
    10    4   33 1
    11    5    6 1
    12    5    9 1
    13    6    7 1
    14    6   34 1
    15    6   35 1
    16    7    8 1
    17    7   36 1
    18    7   37 1
    19    8   38 1
    20    8   49 1
    21    9   14 ar
    22    9   10 ar
    23   10   11 ar
    24   10   28 1
    25   11   12 ar
    26   11   39 1
    27   12   20 1
    28   12   13 ar
    29   13   14 ar
    30   13   17 1
    31   14   15 1
    32   15   16 1
    33   16   40 1
    34   16   41 1
    35   16   42 1
    36   17   18 1
    37   17   25 1
    38   18   19 2
    39   18   43 1
    40   19   20 1
    41   19   22 1
    42   20   21 2
    43   22   23 2
    44   22   24 1
    45   24   50 1
    46   25   27 1
    47   25   26 1
    48   25   44 1
    49   26   27 1
    50   26   45 1
    51   26   46 1
    52   27   47 1
    53   27   48 1
@<TRIPOS>MOLECULE
ZINC38197764
   50    53     0     0     0
SMALL
USER_CHARGES

@<TRIPOS>ATOM
      1 H1         -1.3342    1.3900   -0.0066 H         1 <0>         0.1387
      2 C1         -0.9091    2.3514    0.2818 C.3       1 <0>        -0.0186
      3 C2         -1.0282    2.5282    1.7991 C.3       1 <0>         0.0536
      4 N1         -0.1865    1.5149    2.4541 N.pl3     1 <0>        -0.6068
      5 C3          1.2093    1.3804    2.0094 C.3       1 <0>         0.0771
      6 C4          1.2227    1.2578    0.4821 C.3       1 <0>         0.0116
      7 H2          0.7332    0.3295    0.1877 H         1 <0>         0.1446
      8 N2          0.5065    2.3968   -0.1057 N.4       1 <0>        -0.5059
      9 C5          2.6692    1.2521   -0.0166 C.3       1 <0>        -0.1818
     10 H3          1.7764    2.2610    2.3111 H         1 <0>         0.1013
     11 H4          1.6504    0.4875    2.4524 H         1 <0>         0.1545
     12 C6         -0.6754    0.7397    3.4252 C.2       1 <0>         0.2448
     13 C7         -2.0608    0.4514    3.4680 C.2       1 <0>         0.0271
     14 C8         -2.5668   -0.3354    4.4500 C.2       1 <0>        -0.0086
     15 C9         -1.7132   -0.8713    5.4363 C.2       1 <0>        -0.1428
     16 C10        -0.3229   -0.5903    5.4050 C.2       1 <0>         0.2276
     17 C11         0.1891    0.2065    4.4001 C.2       1 <0>        -0.0048
     18 O1          1.5233    0.4796    4.3553 O.3       1 <0>        -0.3077
     19 C12         1.9224    1.8169    4.6625 C.3       1 <0>         0.0036
     20 N3          0.5087   -1.1190    6.3744 N.pl3     1 <0>        -0.3990
     21 C13         0.0241   -1.8983    7.3506 C.2       1 <0>         0.2488
     22 C14        -1.3252   -2.2031    7.4264 C.2       1 <0>        -0.2886
     23 C15        -2.2223   -1.6874    6.4590 C.2       1 <0>         0.3592
     24 O2         -3.5400   -1.9748    6.5193 O.3       1 <0>        -0.4268
     25 C16        -1.8251   -3.0608    8.5088 C.2       1 <0>         0.5375
     26 O3         -1.0747   -3.4069    9.4116 O.co2     1 <0>        -0.6305
     27 O4         -2.9922   -3.4294    8.5081 O.co2     1 <0>        -0.6499
     28 C17         1.9429   -0.8228    6.3333 C.3       1 <0>         0.0038
     29 C18         2.8250   -1.4503    7.4146 C.3       1 <0>        -0.1701
     30 C19         2.5167    0.0478    7.4529 C.3       1 <0>        -0.1695
     31 F1         -2.8832    0.9630    2.5261 F         1 <0>        -0.1151
     32 H5         -1.4496    3.1533   -0.2212 H         1 <0>         0.1521
     33 H6         -0.6870    3.5247    2.0797 H         1 <0>         0.1018
     34 H7         -2.0663    2.3941    2.1032 H         1 <0>         0.1604
     35 H8          0.5801    2.3562   -1.1112 H         1 <0>         0.4352
     36 H9          3.2008    0.4069    0.4204 H         1 <0>         0.1117
     37 H10         2.6786    1.1649   -1.1030 H         1 <0>         0.0909
     38 H11         3.1585    2.1806    0.2777 H         1 <0>         0.0854
     39 H12        -3.6246   -0.5513    4.4768 H         1 <0>         0.1788
     40 H13         1.3801    2.5138    4.0235 H         1 <0>         0.0541
     41 H14         1.6982    2.0320    5.7073 H         1 <0>         0.0642
     42 H15         2.9934    1.9248    4.4911 H         1 <0>         0.1109
     43 H16         0.6991   -2.2972    8.0933 H         1 <0>         0.2115
     44 H17         2.3711   -0.7089    5.3375 H         1 <0>         0.1886
     45 H18         2.3382   -2.0834    8.1564 H         1 <0>         0.1175
     46 H19         3.8338   -1.7495    7.1301 H         1 <0>         0.1294
     47 H20         3.3228    0.7343    7.1937 H         1 <0>         0.1215
     48 H21         1.8272    0.4003    8.2200 H         1 <0>         0.1095
     49 H22         0.9169    3.2574    0.2246 H         1 <0>         0.4268
     50 H23        -3.7986   -2.4717    7.3076 H         1 <0>         0.4428
@<TRIPOS>BOND
     1    1    2 1
     2    2    8 1
     3    2    3 1
     4    2   32 1
     5    3    4 1
     6    3   33 1
     7    3   34 1
     8    4    5 1
     9    4   12 2
    10    5    6 1
    11    5   10 1
    12    5   11 1
    13    6    7 1
    14    6    8 1
    15    6    9 1
    16    8   35 1
    17    8   49 1
    18    9   36 1
    19    9   37 1
    20    9   38 1
    21   12   17 1
    22   12   13 1
    23   13   14 2
    24   13   31 1
    25   14   15 1
    26   14   39 1
    27   15   23 2
    28   15   16 1
    29   16   17 2
    30   16   20 1
    31   17   18 1
    32   18   19 1
    33   19   40 1
    34   19   41 1
    35   19   42 1
    36   20   21 1
    37   20   28 1
    38   21   22 2
    39   21   43 1
    40   22   23 1
    41   22   25 1
    42   23   24 1
    43   24   50 1
    44   25   26 2
    45   25   27 1
    46   28   30 1
    47   28   29 1
    48   28   44 1
    49   29   30 1
    50   29   45 1
    51   29   46 1
    52   30   47 1
    53   30   48 1
