@<TRIPOS>MOLECULE
ZINC03780893
   68    70     0     0     0
SMALL
USER_CHARGES

@<TRIPOS>ATOM
      1 C1          0.3974   -1.4467    1.3474 C.3       1 <0>        -0.1544
      2 C2          1.0352   -2.6689    0.6837 C.3       1 <0>        -0.1054
      3 C3          1.4028   -2.3302   -0.7623 C.3       1 <0>        -0.0533
      4 C4          0.1401   -1.9338   -1.5300 C.3       1 <0>        -0.1451
      5 C5          2.3952   -1.1659   -0.7769 C.3       1 <0>        -0.1507
      6 C6          2.0310   -3.5340   -1.4160 C.2       1 <0>         0.4575
      7 O1          2.2848   -4.5151   -0.7581 O.2       1 <0>        -0.5029
      8 O2          2.3085   -3.5163   -2.7292 O.3       1 <0>        -0.3195
      9 C7          2.8166   -4.7232   -3.3013 C.3       1 <0>         0.0961
     10 H1          3.5368   -5.1654   -2.6130 H         1 <0>         0.0786
     11 C8          1.6609   -5.7004   -3.5060 C.3       1 <0>        -0.1327
     12 C9          2.2174   -6.9798   -4.1468 C.3       1 <0>        -0.0588
     13 H2          2.9972   -7.4018   -3.5129 H         1 <0>         0.0840
     14 C10         2.7955   -6.6046   -5.4873 C.2       1 <0>        -0.1388
     15 C11         3.3557   -5.4245   -5.6766 C.2       1 <0>        -0.0859
     16 C12         3.5151   -4.3952   -4.5985 C.3       1 <0>        -0.0421
     17 H3          4.5808   -4.3174   -4.3833 H         1 <0>         0.0844
     18 C13         3.0798   -3.0417   -5.1636 C.3       1 <0>        -0.0595
     19 H4          2.0514   -3.1074   -5.5190 H         1 <0>         0.0733
     20 C14         4.0029   -2.6777   -6.3279 C.3       1 <0>        -0.0610
     21 H5          3.5964   -1.8087   -6.8453 H         1 <0>         0.0826
     22 C15         4.1387   -3.8072   -7.3028 C.2       1 <0>        -0.1375
     23 C16         3.8604   -5.0669   -7.0224 C.2       1 <0>        -0.1245
     24 C17         5.3865   -2.3275   -5.7767 C.3       1 <0>        -0.1623
     25 C18         3.1787   -1.9739   -4.0723 C.3       1 <0>        -0.1130
     26 C19         3.3578   -0.5989   -4.7190 C.3       1 <0>        -0.1430
     27 C20         3.9489    0.3728   -3.6956 C.3       1 <0>         0.1069
     28 H6          3.2707    0.4650   -2.8473 H         1 <0>         0.0868
     29 C21         4.1429    1.7450   -4.3464 C.3       1 <0>        -0.1541
     30 C22         4.7732    2.7039   -3.3313 C.3       1 <0>         0.1045
     31 H7          4.9246    3.6786   -3.7950 H         1 <0>         0.0783
     32 C23         6.1243    2.1328   -2.8823 C.3       1 <0>        -0.2058
     33 C24         5.9101    0.7040   -2.4329 C.2       1 <0>         0.4952
     34 O3          6.3486    0.3121   -1.3775 O.2       1 <0>        -0.4521
     35 O4          5.2152   -0.1203   -3.2440 O.3       1 <0>        -0.3644
     36 O5          3.9091    2.8404   -2.2013 O.3       1 <0>        -0.5628
     37 C25         1.0916   -7.9991   -4.3326 C.3       1 <0>        -0.1420
     38 H8          1.1044   -0.6172    1.3370 H         1 <0>         0.0592
     39 H9         -0.5022   -1.1643    0.8005 H         1 <0>         0.0594
     40 H10         0.1355   -1.6880    2.3776 H         1 <0>         0.0589
     41 H11         1.9347   -2.9513    1.2307 H         1 <0>         0.0722
     42 H12         0.3281   -3.4984    0.6942 H         1 <0>         0.0684
     43 H13        -0.3143   -1.0631   -1.0572 H         1 <0>         0.0753
     44 H14         0.4020   -1.6925   -2.5602 H         1 <0>         0.0696
     45 H15        -0.5669   -2.7633   -1.5196 H         1 <0>         0.0600
     46 H16         3.0916   -1.2715    0.0550 H         1 <0>         0.0638
     47 H17         2.9480   -1.1714   -1.7164 H         1 <0>         0.0724
     48 H18         1.8532   -0.2252   -0.6798 H         1 <0>         0.0739
     49 H19         1.2069   -5.9389   -2.5442 H         1 <0>         0.0741
     50 H20         0.9151   -5.2545   -4.1641 H         1 <0>         0.0749
     51 H21         2.7512   -7.3106   -6.3033 H         1 <0>         0.1156
     52 H22         4.4904   -3.5766   -8.2976 H         1 <0>         0.1060
     53 H23         3.9951   -5.8321   -7.7725 H         1 <0>         0.1181
     54 H24         5.7921   -3.1857   -5.2409 H         1 <0>         0.0546
     55 H25         6.0506   -2.0667   -6.6008 H         1 <0>         0.0514
     56 H26         5.3026   -1.4805   -5.0958 H         1 <0>         0.0864
     57 H27         2.2666   -1.9788   -3.4756 H         1 <0>         0.1007
     58 H28         4.0337   -2.1880   -3.4310 H         1 <0>         0.0730
     59 H29         4.0318   -0.6833   -5.5714 H         1 <0>         0.0956
     60 H30         2.3902   -0.2272   -5.0562 H         1 <0>         0.0833
     61 H31         4.7993    1.6479   -5.2111 H         1 <0>         0.0948
     62 H32         3.1767    2.1362   -4.6649 H         1 <0>         0.0976
     63 H33         6.8274    2.1547   -3.7149 H         1 <0>         0.1174
     64 H34         6.5160    2.7236   -2.0543 H         1 <0>         0.1066
     65 H35         4.2470    3.4348   -1.5174 H         1 <0>         0.3858
     66 H36         0.3226   -7.5773   -4.9798 H         1 <0>         0.0571
     67 H37         1.4929   -8.9047   -4.7877 H         1 <0>         0.0591
     68 H38         0.6573   -8.2417   -3.3627 H         1 <0>         0.0580
@<TRIPOS>BOND
     1    1    2 1
     2    1   38 1
     3    1   39 1
     4    1   40 1
     5    2    3 1
     6    2   41 1
     7    2   42 1
     8    3    4 1
     9    3    5 1
    10    3    6 1
    11    4   43 1
    12    4   44 1
    13    4   45 1
    14    5   46 1
    15    5   47 1
    16    5   48 1
    17    6    7 2
    18    6    8 1
    19    8    9 1
    20    9   10 1
    21    9   16 1
    22    9   11 1
    23   11   12 1
    24   11   49 1
    25   11   50 1
    26   12   13 1
    27   12   14 1
    28   12   37 1
    29   14   15 2
    30   14   51 1
    31   15   23 1
    32   15   16 1
    33   16   17 1
    34   16   18 1
    35   18   19 1
    36   18   20 1
    37   18   25 1
    38   20   21 1
    39   20   22 1
    40   20   24 1
    41   22   23 2
    42   22   52 1
    43   23   53 1
    44   24   54 1
    45   24   55 1
    46   24   56 1
    47   25   26 1
    48   25   57 1
    49   25   58 1
    50   26   27 1
    51   26   59 1
    52   26   60 1
    53   27   28 1
    54   27   35 1
    55   27   29 1
    56   29   30 1
    57   29   61 1
    58   29   62 1
    59   30   31 1
    60   30   32 1
    61   30   36 1
    62   32   33 1
    63   32   63 1
    64   32   64 1
    65   33   34 2
    66   33   35 1
    67   36   65 1
    68   37   66 1
    69   37   67 1
    70   37   68 1
@<TRIPOS>MOLECULE
ZINC01886617
   55    57     0     0     0
SMALL
USER_CHARGES

@<TRIPOS>ATOM
      1 C1          0.0134    1.4790    0.0510 C.3       1 <0>        -0.1670
      2 C2          0.0183   -0.0427   -0.1077 C.3       1 <0>         0.1306
      3 C3          0.8420   -0.6703    1.0185 C.3       1 <0>        -0.1668
      4 N1         -1.3566   -0.5446   -0.0453 N.pl3     1 <0>        -0.4669
      5 C4         -2.2080   -0.3832    1.0270 C.ar      1 <0>         0.1050
      6 C5         -2.0650    0.2378    2.2645 C.ar      1 <0>        -0.1288
      7 C6         -3.1156    0.2401    3.1558 C.ar      1 <0>        -0.1043
      8 C7         -4.3191   -0.3717    2.8332 C.ar      1 <0>        -0.1467
      9 C8         -4.4812   -0.9872    1.6239 C.ar      1 <0>        -0.0705
     10 C9         -3.4295   -1.0012    0.7060 C.ar      1 <0>        -0.0871
     11 C10        -3.2702   -1.5570   -0.6451 C.2       1 <0>        -0.1386
     12 C11        -1.9878   -1.2404   -1.0504 C.2       1 <0>         0.1435
     13 C12        -1.3922   -1.5938   -2.3457 C.2       1 <0>        -0.1299
     14 C13        -1.9850   -1.2159   -3.4762 C.2       1 <0>        -0.1279
     15 C14        -1.4424   -1.6802   -4.8032 C.3       1 <0>         0.1396
     16 H1         -1.0750   -0.8220   -5.3659 H         1 <0>         0.1112
     17 C15        -2.5543   -2.3712   -5.5952 C.3       1 <0>        -0.1783
     18 C16        -2.0387   -2.7315   -6.9899 C.3       1 <0>         0.1381
     19 H2         -1.6504   -1.8365   -7.4762 H         1 <0>         0.0933
     20 C17        -3.1843   -3.3087   -7.8238 C.3       1 <0>        -0.2183
     21 C18        -2.7081   -3.5492   -9.2332 C.2       1 <0>         0.4908
     22 O1         -1.5590   -3.2835   -9.5421 O.co2     1 <0>        -0.6818
     23 O2         -3.4720   -4.0094  -10.0646 O.co2     1 <0>        -0.7124
     24 O3         -0.9961   -3.7022   -6.8763 O.3       1 <0>        -0.5282
     25 O4         -0.3711   -2.6002   -4.5843 O.3       1 <0>        -0.5381
     26 C19        -4.2851   -2.3037   -1.4206 C.ar      1 <0>        -0.0081
     27 C20        -4.0867   -3.6530   -1.7169 C.ar      1 <0>        -0.0763
     28 C21        -5.0362   -4.3446   -2.4399 C.ar      1 <0>        -0.1503
     29 C22        -6.1855   -3.7020   -2.8718 C.ar      1 <0>         0.0970
     30 C23        -6.3872   -2.3623   -2.5808 C.ar      1 <0>        -0.1515
     31 C24        -5.4468   -1.6628   -1.8535 C.ar      1 <0>        -0.0807
     32 F1         -7.1123   -4.3840   -3.5796 F         1 <0>        -0.1399
     33 H3          1.0364    1.8525    0.0045 H         1 <0>         0.0755
     34 H4         -0.5734    1.9262   -0.7514 H         1 <0>         0.0637
     35 H5         -0.4262    1.7426    1.0130 H         1 <0>         0.0653
     36 H6          0.4579   -0.3062   -1.0697 H         1 <0>         0.1028
     37 H7          0.4024   -0.4068    1.9805 H         1 <0>         0.0652
     38 H8          0.8455   -1.7544    0.9054 H         1 <0>         0.0638
     39 H9          1.8650   -0.2969    0.9720 H         1 <0>         0.0756
     40 H10        -1.1327    0.7164    2.5255 H         1 <0>         0.1188
     41 H11        -3.0015    0.7225    4.1154 H         1 <0>         0.1221
     42 H12        -5.1330   -0.3615    3.5430 H         1 <0>         0.1201
     43 H13        -5.4200   -1.4616    1.3792 H         1 <0>         0.1195
     44 H14        -0.4733   -2.1602   -2.3810 H         1 <0>         0.1340
     45 H15        -2.8548   -0.5766   -3.4423 H         1 <0>         0.1183
     46 H16        -2.8604   -3.2790   -5.0753 H         1 <0>         0.0655
     47 H17        -3.4076   -1.6990   -5.6857 H         1 <0>         0.0757
     48 H18        -3.5136   -4.2510   -7.3858 H         1 <0>         0.0566
     49 H19        -4.0155   -2.6038   -7.8364 H         1 <0>         0.0610
     50 H20        -1.2708   -4.5265   -6.4519 H         1 <0>         0.3502
     51 H21        -0.6262   -3.3901   -4.0882 H         1 <0>         0.3670
     52 H22        -3.1912   -4.1547   -1.3811 H         1 <0>         0.1295
     53 H23        -4.8836   -5.3887   -2.6701 H         1 <0>         0.1351
     54 H24        -7.2845   -1.8661   -2.9201 H         1 <0>         0.1343
     55 H25        -5.6072   -0.6199   -1.6231 H         1 <0>         0.1296
@<TRIPOS>BOND
     1    1    2 1
     2    1   33 1
     3    1   34 1
     4    1   35 1
     5    2    3 1
     6    2    4 1
     7    2   36 1
     8    3   37 1
     9    3   38 1
    10    3   39 1
    11    4   12 1
    12    4    5 1
    13    5   10 ar
    14    5    6 ar
    15    6    7 ar
    16    6   40 1
    17    7    8 ar
    18    7   41 1
    19    8    9 ar
    20    8   42 1
    21    9   10 ar
    22    9   43 1
    23   10   11 1
    24   11   12 2
    25   11   26 1
    26   12   13 1
    27   13   14 2
    28   13   44 1
    29   14   15 1
    30   14   45 1
    31   15   16 1
    32   15   17 1
    33   15   25 1
    34   17   18 1
    35   17   46 1
    36   17   47 1
    37   18   19 1
    38   18   20 1
    39   18   24 1
    40   20   21 1
    41   20   48 1
    42   20   49 1
    43   21   22 2
    44   21   23 1
    45   24   50 1
    46   25   51 1
    47   26   31 ar
    48   26   27 ar
    49   27   28 ar
    50   27   52 1
    51   28   29 ar
    52   28   53 1
    53   29   30 ar
    54   29   32 1
    55   30   31 ar
    56   30   54 1
    57   31   55 1
@<TRIPOS>MOLECULE
ZINC03798763
   65    66     0     0     0
SMALL
USER_CHARGES

@<TRIPOS>ATOM
      1 C1          0.5827    0.9928   -1.0170 C.3       1 <0>        -0.1564
      2 C2          0.4349   -0.5218   -1.1757 C.3       1 <0>        -0.1068
      3 C3         -0.9826   -0.9402   -0.7801 C.3       1 <0>        -0.0889
      4 H1         -1.7058   -0.3695   -1.3627 H         1 <0>         0.1160
      5 C4         -1.1981   -0.6664    0.7097 C.3       1 <0>        -0.1470
      6 C5         -1.1667   -2.4109   -1.0524 C.2       1 <0>         0.4532
      7 O1         -0.2575   -3.0580   -1.5154 O.2       1 <0>        -0.5045
      8 O2         -2.3408   -3.0019   -0.7806 O.3       1 <0>        -0.3187
      9 C6         -2.4449   -4.3987   -1.0638 C.3       1 <0>         0.0961
     10 H2         -1.7923   -4.6394   -1.9030 H         1 <0>         0.0931
     11 C7         -1.9899   -5.1889    0.1614 C.3       1 <0>        -0.1285
     12 C8         -2.1343   -6.6858   -0.1477 C.3       1 <0>         0.1424
     13 H3         -1.7909   -7.2739    0.7034 H         1 <0>         0.0676
     14 C9         -3.5941   -6.9603   -0.4032 C.2       1 <0>        -0.2058
     15 C10        -4.3655   -6.0500   -0.9678 C.2       1 <0>        -0.0413
     16 C11        -3.8705   -4.7175   -1.4436 C.3       1 <0>        -0.0483
     17 H4         -3.9230   -4.7251   -2.5323 H         1 <0>         0.0860
     18 C12        -4.8506   -3.6456   -0.9629 C.3       1 <0>        -0.0616
     19 H5         -4.9349   -3.6876    0.1230 H         1 <0>         0.0713
     20 C13        -6.2178   -3.9137   -1.5946 C.3       1 <0>        -0.0644
     21 H6         -6.9590   -3.2667   -1.1254 H         1 <0>         0.0846
     22 C14        -6.6378   -5.3416   -1.4239 C.2       1 <0>        -0.1215
     23 C15        -5.8082   -6.3314   -1.1499 C.2       1 <0>        -0.1397
     24 C16        -6.1489   -3.5909   -3.0885 C.3       1 <0>        -0.1542
     25 C17        -4.3481   -2.2637   -1.3856 C.3       1 <0>        -0.1120
     26 C18        -5.5071   -1.2657   -1.3472 C.3       1 <0>        -0.1680
     27 C19        -5.0046    0.1162   -1.7700 C.3       1 <0>         0.1141
     28 H7         -4.1620    0.4043   -1.1414 H         1 <0>         0.0930
     29 C20        -6.1315    1.1389   -1.6125 C.3       1 <0>        -0.1876
     30 C21        -5.5953    2.5394   -1.9154 C.3       1 <0>         0.1381
     31 H8         -4.7320    2.7429   -1.2817 H         1 <0>         0.0916
     32 C22        -6.6871    3.5747   -1.6377 C.3       1 <0>        -0.2197
     33 C23        -6.1228    4.9604   -1.8177 C.2       1 <0>         0.4905
     34 O3         -4.9556    5.1065   -2.1383 O.co2     1 <0>        -0.6810
     35 O4         -6.8335    5.9355   -1.6426 O.co2     1 <0>        -0.7140
     36 O5         -5.2064    2.6139   -3.2884 O.3       1 <0>        -0.5279
     37 O6         -4.5872    0.0739   -3.1360 O.3       1 <0>        -0.5418
     38 O7         -1.3673   -7.0175   -1.3069 O.3       1 <0>        -0.5546
     39 H9          1.5925    1.2908   -1.2988 H         1 <0>         0.0578
     40 H10        -0.1380    1.4976   -1.6603 H         1 <0>         0.0636
     41 H11         0.3988    1.2689    0.0213 H         1 <0>         0.0587
     42 H12         0.6188   -0.7979   -2.2140 H         1 <0>         0.0708
     43 H13         1.1556   -1.0266   -0.5324 H         1 <0>         0.0661
     44 H14        -2.2079   -0.9645    0.9915 H         1 <0>         0.0679
     45 H15        -0.4749   -1.2371    1.2923 H         1 <0>         0.0573
     46 H16        -1.0649    0.3973    0.9066 H         1 <0>         0.0772
     47 H17        -0.9475   -4.9581    0.3809 H         1 <0>         0.0774
     48 H18        -2.6122   -4.9291    1.0178 H         1 <0>         0.0860
     49 H19        -4.0144   -7.9144   -0.1211 H         1 <0>         0.1155
     50 H20        -7.6859   -5.5769   -1.5358 H         1 <0>         0.1072
     51 H21        -6.1808   -7.3405   -1.0537 H         1 <0>         0.1188
     52 H22        -5.3956   -4.2206   -3.5620 H         1 <0>         0.0547
     53 H23        -7.1200   -3.7795   -3.5462 H         1 <0>         0.0529
     54 H24        -5.8819   -2.5425   -3.2218 H         1 <0>         0.0775
     55 H25        -3.5646   -1.9371   -0.7017 H         1 <0>         0.1072
     56 H26        -3.9477   -2.3167   -2.3980 H         1 <0>         0.0647
     57 H27        -6.2906   -1.5923   -2.0311 H         1 <0>         0.0730
     58 H28        -5.9075   -1.2127   -0.3348 H         1 <0>         0.0658
     59 H29        -6.9379    0.9007   -2.3061 H         1 <0>         0.0603
     60 H30        -6.5101    1.1079   -0.5908 H         1 <0>         0.0717
     61 H31        -7.5139    3.4260   -2.3323 H         1 <0>         0.0552
     62 H32        -7.0462    3.4586   -0.6152 H         1 <0>         0.0600
     63 H33        -5.9264    2.4432   -3.9110 H         1 <0>         0.3493
     64 H34        -5.2878   -0.1762   -3.7538 H         1 <0>         0.3622
     65 H35        -1.4154   -7.9505   -1.5567 H         1 <0>         0.3778
@<TRIPOS>BOND
     1    1    2 1
     2    1   39 1
     3    1   40 1
     4    1   41 1
     5    2    3 1
     6    2   42 1
     7    2   43 1
     8    3    4 1
     9    3    5 1
    10    3    6 1
    11    5   44 1
    12    5   45 1
    13    5   46 1
    14    6    7 2
    15    6    8 1
    16    8    9 1
    17    9   10 1
    18    9   16 1
    19    9   11 1
    20   11   12 1
    21   11   47 1
    22   11   48 1
    23   12   13 1
    24   12   14 1
    25   12   38 1
    26   14   15 2
    27   14   49 1
    28   15   23 1
    29   15   16 1
    30   16   17 1
    31   16   18 1
    32   18   19 1
    33   18   20 1
    34   18   25 1
    35   20   21 1
    36   20   22 1
    37   20   24 1
    38   22   23 2
    39   22   50 1
    40   23   51 1
    41   24   52 1
    42   24   53 1
    43   24   54 1
    44   25   26 1
    45   25   55 1
    46   25   56 1
    47   26   27 1
    48   26   57 1
    49   26   58 1
    50   27   28 1
    51   27   29 1
    52   27   37 1
    53   29   30 1
    54   29   59 1
    55   29   60 1
    56   30   31 1
    57   30   32 1
    58   30   36 1
    59   32   33 1
    60   32   61 1
    61   32   62 1
    62   33   34 2
    63   33   35 1
    64   36   63 1
    65   37   64 1
    66   38   65 1
@<TRIPOS>MOLECULE
ZINC01534965
   54    57     0     0     0
SMALL
USER_CHARGES

@<TRIPOS>ATOM
      1 C1          0.0272    1.3534    0.4046 C.ar      1 <0>        -0.1197
      2 C2          1.2231    2.0662    0.4443 C.ar      1 <0>        -0.1014
      3 C3          2.4221    1.4336    0.3184 C.ar      1 <0>        -0.0948
      4 C4          2.4614    0.0392    0.1457 C.ar      1 <0>         0.1338
      5 C5          1.2433   -0.6821    0.1062 C.ar      1 <0>        -0.0902
      6 C6          0.0264    0.0009    0.2386 C.ar      1 <0>        -0.0920
      7 C7          1.2817   -2.0874   -0.0677 C.ar      1 <0>         0.0164
      8 C8          2.5392   -2.6952   -0.1929 C.ar      1 <0>        -0.0760
      9 C9          3.6942   -1.8999   -0.1419 C.ar      1 <0>         0.2092
     10 N1          3.6291   -0.6027    0.0203 N.ar      1 <0>        -0.4761
     11 C10         5.0441   -2.5562   -0.2767 C.3       1 <0>        -0.1207
     12 C11         6.2791   -1.6918   -0.0153 C.3       1 <0>        -0.1574
     13 C12         5.9304   -2.1156   -1.4434 C.3       1 <0>        -0.1559
     14 C13         2.6467   -4.1553   -0.3759 C.2       1 <0>        -0.1285
     15 C14         2.0387   -4.7425   -1.3994 C.2       1 <0>        -0.1473
     16 C15         2.0534   -6.2443   -1.5237 C.3       1 <0>         0.1413
     17 H1          2.6119   -6.5297   -2.4152 H         1 <0>         0.1083
     18 C16         0.6175   -6.7609   -1.6344 C.3       1 <0>        -0.1765
     19 C17         0.6364   -8.2701   -1.8854 C.3       1 <0>         0.1384
     20 H2          1.2444   -8.4846   -2.7643 H         1 <0>         0.0930
     21 C18        -0.7919   -8.7660   -2.1200 C.3       1 <0>        -0.2174
     22 C19        -0.7623  -10.2271   -2.4880 C.2       1 <0>         0.4910
     23 O1          0.3025  -10.8170   -2.5564 O.co2     1 <0>        -0.6814
     24 O2         -1.8031  -10.8192   -2.7174 O.co2     1 <0>        -0.7128
     25 O3          1.1909   -8.9352   -0.7486 O.3       1 <0>        -0.5273
     26 O4          2.6762   -6.8118   -0.3695 O.3       1 <0>        -0.5368
     27 C20         0.0384   -2.8861   -0.1151 C.ar      1 <0>        -0.0583
     28 C21        -0.2611   -3.7780    0.9163 C.ar      1 <0>        -0.0650
     29 C22        -1.4222   -4.5201    0.8673 C.ar      1 <0>        -0.1494
     30 C23        -2.2914   -4.3817   -0.2035 C.ar      1 <0>         0.1116
     31 C24        -1.9990   -3.4976   -1.2303 C.ar      1 <0>        -0.1499
     32 C25        -0.8433   -2.7468   -1.1887 C.ar      1 <0>        -0.0748
     33 F1         -3.4275   -5.1115   -0.2469 F         1 <0>        -0.1337
     34 H3         -0.9106    1.8785    0.5110 H         1 <0>         0.1268
     35 H4          1.1990    3.1378    0.5768 H         1 <0>         0.1287
     36 H5          3.3402    2.0015    0.3507 H         1 <0>         0.1342
     37 H6         -0.9068   -0.5419    0.2096 H         1 <0>         0.1293
     38 H7          5.0897   -3.6033    0.0225 H         1 <0>         0.1266
     39 H8          6.1153   -0.6484    0.2543 H         1 <0>         0.1066
     40 H9          7.1376   -2.1701    0.4562 H         1 <0>         0.0967
     41 H10         6.5594   -2.8728   -1.9115 H         1 <0>         0.1007
     42 H11         5.5371   -1.3511   -2.1135 H         1 <0>         0.0940
     43 H12         3.2201   -4.7463    0.3229 H         1 <0>         0.1351
     44 H13         1.5335   -4.1440   -2.1431 H         1 <0>         0.1120
     45 H14         0.0842   -6.5536   -0.7066 H         1 <0>         0.0633
     46 H15         0.1143   -6.2612   -2.4621 H         1 <0>         0.0728
     47 H16        -1.3769   -8.6324   -1.2100 H         1 <0>         0.0556
     48 H17        -1.2458   -8.1962   -2.9307 H         1 <0>         0.0599
     49 H18         0.6996   -8.7884    0.0713 H         1 <0>         0.3494
     50 H19         2.2313   -6.5987    0.4622 H         1 <0>         0.3651
     51 H20         0.4156   -3.8869    1.7510 H         1 <0>         0.1329
     52 H21        -1.6547   -5.2106    1.6645 H         1 <0>         0.1400
     53 H22        -2.6797   -3.3937   -2.0623 H         1 <0>         0.1390
     54 H23        -0.6186   -2.0549   -1.9870 H         1 <0>         0.1316
@<TRIPOS>BOND
     1    1    6 ar
     2    1    2 ar
     3    1   34 1
     4    2    3 ar
     5    2   35 1
     6    3    4 ar
     7    3   36 1
     8    4   10 ar
     9    4    5 ar
    10    5    6 ar
    11    5    7 ar
    12    6   37 1
    13    7    8 ar
    14    7   27 1
    15    8    9 ar
    16    8   14 1
    17    9   10 ar
    18    9   11 1
    19   11   13 1
    20   11   12 1
    21   11   38 1
    22   12   13 1
    23   12   39 1
    24   12   40 1
    25   13   41 1
    26   13   42 1
    27   14   15 2
    28   14   43 1
    29   15   16 1
    30   15   44 1
    31   16   17 1
    32   16   18 1
    33   16   26 1
    34   18   19 1
    35   18   45 1
    36   18   46 1
    37   19   20 1
    38   19   21 1
    39   19   25 1
    40   21   22 1
    41   21   47 1
    42   21   48 1
    43   22   23 2
    44   22   24 1
    45   25   49 1
    46   26   50 1
    47   27   32 ar
    48   27   28 ar
    49   28   29 ar
    50   28   51 1
    51   29   30 ar
    52   29   52 1
    53   30   31 ar
    54   30   33 1
    55   31   32 ar
    56   31   53 1
    57   32   54 1
@<TRIPOS>MOLECULE
ZINC11330186
   66    67     0     0     0
SMALL
USER_CHARGES

@<TRIPOS>ATOM
      1 C1          0.3247    1.0805    0.3265 C.3       1 <0>        -0.1411
      2 C2          0.1185   -0.4285    0.1796 C.3       1 <0>        -0.0467
      3 C3          0.7180   -1.1454    1.3910 C.3       1 <0>        -0.1366
      4 C4         -1.3561   -0.7283    0.0975 C.ar      1 <0>         0.1593
      5 C5         -1.8800   -1.2359   -1.0741 C.ar      1 <0>        -0.1339
      6 C6         -3.2469   -1.5119   -1.1447 C.ar      1 <0>         0.0239
      7 C7         -4.0350   -1.2561   -0.0035 C.ar      1 <0>        -0.0913
      8 C8         -3.4178   -0.7427    1.1358 C.ar      1 <0>         0.1609
      9 N1         -2.1221   -0.5057    1.1491 N.ar      1 <0>        -0.4678
     10 C9         -4.2401   -0.4616    2.3670 C.3       1 <0>        -0.0597
     11 C10        -3.7132   -1.2987    3.5343 C.3       1 <0>        -0.1398
     12 C11        -4.1401    1.0241    2.7188 C.3       1 <0>        -0.1379
     13 C12        -5.4863   -1.5266   -0.0156 C.2       1 <0>        -0.1190
     14 C13        -6.0381   -2.2307    0.9643 C.2       1 <0>        -0.1631
     15 C14        -7.5195   -2.5068    0.9519 C.3       1 <0>         0.1407
     16 H1         -7.9889   -2.0091    1.8005 H         1 <0>         0.1107
     17 C15        -7.7581   -4.0149    1.0494 C.3       1 <0>        -0.1808
     18 C16        -9.2594   -4.2875    1.1624 C.3       1 <0>         0.1375
     19 H2         -9.6680   -3.7276    2.0036 H         1 <0>         0.0938
     20 C17        -9.4907   -5.7835    1.3849 C.3       1 <0>        -0.2190
     21 C18       -10.9580   -6.0355    1.6186 C.2       1 <0>         0.4904
     22 O1        -11.7457   -5.1050    1.6081 O.co2     1 <0>        -0.6809
     23 O2        -11.3574   -7.1701    1.8181 O.co2     1 <0>        -0.7131
     24 O3         -9.9098   -3.8790   -0.0426 O.3       1 <0>        -0.5276
     25 O4         -8.0861   -2.0124   -0.2632 O.3       1 <0>        -0.5369
     26 C19        -3.8517   -2.0571   -2.3825 C.ar      1 <0>        -0.0553
     27 C20        -3.8617   -1.2952   -3.5505 C.ar      1 <0>        -0.0778
     28 C21        -4.4255   -1.8072   -4.7005 C.ar      1 <0>        -0.1524
     29 C22        -4.9818   -3.0764   -4.6964 C.ar      1 <0>         0.1058
     30 C23        -4.9742   -3.8373   -3.5382 C.ar      1 <0>        -0.1479
     31 C24        -4.4076   -3.3361   -2.3848 C.ar      1 <0>        -0.0607
     32 F1         -5.5337   -3.5734   -5.8249 F         1 <0>        -0.1373
     33 C25        -0.9882   -1.4886   -2.2623 C.3       1 <0>         0.1026
     34 O5         -0.3673   -2.7687   -2.1282 O.3       1 <0>        -0.3789
     35 C26         0.5041   -3.1081   -3.2086 C.3       1 <0>         0.0299
     36 H3          1.3912    1.2973    0.3859 H         1 <0>         0.0595
     37 H4         -0.1024    1.5912   -0.5365 H         1 <0>         0.0507
     38 H5         -0.1678    1.4278    1.2347 H         1 <0>         0.0652
     39 H6          0.6110   -0.7758   -0.7286 H         1 <0>         0.0853
     40 H7          0.2255   -0.7981    2.2992 H         1 <0>         0.0660
     41 H8          0.5711   -2.2204    1.2864 H         1 <0>         0.0535
     42 H9          1.7846   -0.9286    1.4504 H         1 <0>         0.0560
     43 H10        -5.2814   -0.7202    2.1753 H         1 <0>         0.1001
     44 H11        -2.6718   -1.0400    3.7260 H         1 <0>         0.0643
     45 H12        -4.3080   -1.0953    4.4248 H         1 <0>         0.0615
     46 H13        -3.7844   -2.3571    3.2836 H         1 <0>         0.0514
     47 H14        -4.7349    1.2274    3.6093 H         1 <0>         0.0601
     48 H15        -3.0987    1.2828    2.9105 H         1 <0>         0.0625
     49 H16        -4.5154    1.6205    1.8872 H         1 <0>         0.0511
     50 H17        -6.0988   -1.1512   -0.8220 H         1 <0>         0.1311
     51 H18        -5.4256   -2.6060    1.7707 H         1 <0>         0.1196
     52 H19        -7.3664   -4.5031    0.1570 H         1 <0>         0.0635
     53 H20        -7.2503   -4.4069    1.9306 H         1 <0>         0.0759
     54 H21        -9.1627   -6.3367    0.5049 H         1 <0>         0.0560
     55 H22        -8.9224   -6.1137    2.2544 H         1 <0>         0.0612
     56 H23        -9.5954   -4.3371   -0.8340 H         1 <0>         0.3498
     57 H24        -7.7147   -2.4122   -1.0616 H         1 <0>         0.3654
     58 H25        -3.4290   -0.3056   -3.5545 H         1 <0>         0.1322
     59 H26        -4.4337   -1.2179   -5.6055 H         1 <0>         0.1380
     60 H27        -5.4089   -4.8260   -3.5398 H         1 <0>         0.1407
     61 H28        -4.3984   -3.9315   -1.4837 H         1 <0>         0.1336
     62 H29        -1.5840   -1.4676   -3.1748 H         1 <0>         0.0632
     63 H30        -0.2209   -0.7160   -2.3115 H         1 <0>         0.0623
     64 H31         0.9354   -4.0934   -3.0318 H         1 <0>         0.0874
     65 H32        -0.0607   -3.1207   -4.1408 H         1 <0>         0.0415
     66 H33         1.3024   -2.3691   -3.2775 H         1 <0>         0.0414
@<TRIPOS>BOND
     1    1    2 1
     2    1   36 1
     3    1   37 1
     4    1   38 1
     5    2    3 1
     6    2    4 1
     7    2   39 1
     8    3   40 1
     9    3   41 1
    10    3   42 1
    11    4    9 ar
    12    4    5 ar
    13    5    6 ar
    14    5   33 1
    15    6    7 ar
    16    6   26 1
    17    7    8 ar
    18    7   13 1
    19    8    9 ar
    20    8   10 1
    21   10   11 1
    22   10   12 1
    23   10   43 1
    24   11   44 1
    25   11   45 1
    26   11   46 1
    27   12   47 1
    28   12   48 1
    29   12   49 1
    30   13   14 2
    31   13   50 1
    32   14   15 1
    33   14   51 1
    34   15   16 1
    35   15   17 1
    36   15   25 1
    37   17   18 1
    38   17   52 1
    39   17   53 1
    40   18   19 1
    41   18   20 1
    42   18   24 1
    43   20   21 1
    44   20   54 1
    45   20   55 1
    46   21   22 2
    47   21   23 1
    48   24   56 1
    49   25   57 1
    50   26   31 ar
    51   26   27 ar
    52   27   28 ar
    53   27   58 1
    54   28   29 ar
    55   28   59 1
    56   29   30 ar
    57   29   32 1
    58   30   31 ar
    59   30   60 1
    60   31   61 1
    61   33   34 1
    62   33   62 1
    63   33   63 1
    64   34   35 1
    65   35   64 1
    66   35   65 1
    67   35   66 1
@<TRIPOS>MOLECULE
ZINC03920719
   75    78     0     0     0
SMALL
USER_CHARGES
7-[2-(4-fluorophenyl)-5-isopropyl-3-phenyl-4-(phenylcarbamoyl)pyrrol-1-yl]-3,5-dihydroxy-heptanoic acid
@<TRIPOS>ATOM
      1 C1         -0.0291    1.0885    0.0221 C.3       1 <0>        -0.1495
      2 C2         -0.7404    1.5920    1.2797 C.3       1 <0>        -0.0367
      3 C3         -0.0014    1.0867    2.5205 C.3       1 <0>        -0.1498
      4 C4         -0.7521    3.0989    1.2809 C.2       1 <0>         0.1023
      5 C5          0.3559    3.8992    1.2751 C.2       1 <0>        -0.2125
      6 C6         -0.1353    5.2868    1.2756 C.2       1 <0>        -0.0756
      7 C7         -1.5139    5.1979    1.2908 C.2       1 <0>         0.0710
      8 N1         -1.8559    3.8705    1.2937 N.pl3     1 <0>        -0.4179
      9 C8         -3.2298    3.3622    1.3087 C.3       1 <0>         0.0911
     10 C9         -3.6921    3.1842    2.7563 C.3       1 <0>        -0.1657
     11 C10        -5.1269    2.6533    2.7719 C.3       1 <0>         0.1174
     12 H1         -5.7663    3.3172    2.1900 H         1 <0>         0.1000
     13 C11        -5.6329    2.5933    4.2145 C.3       1 <0>        -0.1845
     14 C12        -7.1065    2.1819    4.2215 C.3       1 <0>         0.1331
     15 H2         -7.6767    2.8622    3.5890 H         1 <0>         0.0942
     16 C13        -7.6461    2.2424    5.6519 C.3       1 <0>        -0.1934
     17 C14        -9.1258    1.9568    5.6431 C.2       1 <0>         0.4594
     18 O1         -9.6908    1.7283    4.5998 O.co2     1 <0>        -0.6235
     19 O2         -7.2313    0.8491    3.7214 O.3       1 <0>        -0.5292
     20 O3         -5.1564    1.3433    2.2019 O.3       1 <0>        -0.5411
     21 C15        -2.4556    6.3354    1.3026 C.ar      1 <0>        -0.0288
     22 C16        -3.5671    6.3339    0.4570 C.ar      1 <0>        -0.0847
     23 C17        -4.4457    7.3967    0.4757 C.ar      1 <0>        -0.1472
     24 C18        -4.2216    8.4697    1.3238 C.ar      1 <0>         0.1052
     25 C19        -3.1174    8.4790    2.1613 C.ar      1 <0>        -0.1481
     26 C20        -2.2349    7.4193    2.1550 C.ar      1 <0>        -0.0610
     27 F1         -5.0831    9.5103    1.3345 F         1 <0>        -0.1371
     28 C21         0.6797    6.5226    1.2673 C.ar      1 <0>        -0.0074
     29 C22         0.6319    7.3859    0.1724 C.ar      1 <0>        -0.0979
     30 C23         1.3903    8.5385    0.1729 C.ar      1 <0>        -0.1174
     31 C24         2.2049    8.8336    1.2515 C.ar      1 <0>        -0.1206
     32 C25         2.2607    7.9789    2.3380 C.ar      1 <0>        -0.1185
     33 C26         1.5031    6.8258    2.3520 C.ar      1 <0>        -0.1080
     34 C27         1.7604    3.4609    1.2674 C.2       1 <0>         0.6092
     35 O4          2.3353    3.2799    0.2107 O.2       1 <0>        -0.5115
     36 N2          2.4100    3.2598    2.4310 N.am      1 <0>        -0.6690
     37 C28         3.7128    2.7511    2.4258 C.ar      1 <0>         0.1482
     38 C29         4.1303    1.8966    3.4379 C.ar      1 <0>        -0.1465
     39 C30         5.4160    1.3922    3.4272 C.ar      1 <0>        -0.1021
     40 C31         6.2905    1.7455    2.4160 C.ar      1 <0>        -0.1374
     41 C32         5.8796    2.6003    1.4096 C.ar      1 <0>        -0.1028
     42 C33         4.5937    3.1040    1.4116 C.ar      1 <0>        -0.1202
     43 H3         -0.0207   -0.0015    0.0213 H         1 <0>         0.0627
     44 H4          0.9956    1.4598    0.0110 H         1 <0>         0.0697
     45 H5         -0.5556    1.4484   -0.8618 H         1 <0>         0.0573
     46 H6         -1.7651    1.2207    1.2909 H         1 <0>         0.0851
     47 H7          1.0234    1.4580    2.5093 H         1 <0>         0.0627
     48 H8         -0.5081    1.4454    3.4164 H         1 <0>         0.0584
     49 H9          0.0071   -0.0032    2.5196 H         1 <0>         0.0662
     50 H10        -3.8851    4.0711    0.8026 H         1 <0>         0.0982
     51 H11        -3.2675    2.4018    0.7946 H         1 <0>         0.1035
     52 H12        -3.0369    2.4752    3.2623 H         1 <0>         0.0731
     53 H13        -3.6544    4.1446    3.2704 H         1 <0>         0.0795
     54 H14        -5.0490    1.8626    4.7742 H         1 <0>         0.0654
     55 H15        -5.5274    3.5744    4.6777 H         1 <0>         0.0761
     56 H16        -7.1362    1.4988    6.2644 H         1 <0>         0.0634
     57 H17        -7.4703    3.2357    6.0648 H         1 <0>         0.0680
     58 H18        -6.7482    0.1887    4.2368 H         1 <0>         0.3526
     59 H19        -4.6084    0.6984    2.6698 H         1 <0>         0.3668
     60 H20        -3.7405    5.5002   -0.2073 H         1 <0>         0.1329
     61 H21        -5.3080    7.3946   -0.1745 H         1 <0>         0.1400
     62 H22        -2.9475    9.3179    2.8199 H         1 <0>         0.1387
     63 H23        -1.3746    7.4278    2.8079 H         1 <0>         0.1350
     64 H24        -0.0002    7.1544   -0.6721 H         1 <0>         0.1198
     65 H25         1.3511    9.2097   -0.6723 H         1 <0>         0.1213
     66 H26         2.7995    9.7352    1.2455 H         1 <0>         0.1197
     67 H27         2.8988    8.2146    3.1769 H         1 <0>         0.1211
     68 H28         1.5472    6.1596    3.2008 H         1 <0>         0.1177
     69 H29         1.9740    3.4680    3.2721 H         1 <0>         0.4106
     70 H30         3.4492    1.6238    4.2304 H         1 <0>         0.1243
     71 H31         5.7401    0.7247    4.2119 H         1 <0>         0.1244
     72 H32         7.2966    1.3527    2.4119 H         1 <0>         0.1209
     73 H33         6.5649    2.8740    0.6211 H         1 <0>         0.1234
     74 H34         4.2735    3.7718    0.6255 H         1 <0>         0.1385
     75 O5         -9.8161    1.9564    6.7942 O.co2     1 <0>        -0.7819
@<TRIPOS>BOND
     1    1    2 1
     2    1   43 1
     3    1   44 1
     4    1   45 1
     5    2    3 1
     6    2    4 1
     7    2   46 1
     8    3   47 1
     9    3   48 1
    10    3   49 1
    11    4    8 1
    12    4    5 2
    13    5    6 1
    14    5   34 1
    15    6    7 2
    16    6   28 1
    17    7    8 1
    18    7   21 1
    19    8    9 1
    20    9   10 1
    21    9   50 1
    22    9   51 1
    23   10   11 1
    24   10   52 1
    25   10   53 1
    26   11   12 1
    27   11   13 1
    28   11   20 1
    29   13   14 1
    30   13   54 1
    31   13   55 1
    32   14   15 1
    33   14   16 1
    34   14   19 1
    35   16   17 1
    36   16   56 1
    37   16   57 1
    38   17   18 2
    39   17   75 1
    40   19   58 1
    41   20   59 1
    42   21   26 ar
    43   21   22 ar
    44   22   23 ar
    45   22   60 1
    46   23   24 ar
    47   23   61 1
    48   24   25 ar
    49   24   27 1
    50   25   26 ar
    51   25   62 1
    52   26   63 1
    53   28   33 ar
    54   28   29 ar
    55   29   30 ar
    56   29   64 1
    57   30   31 ar
    58   30   65 1
    59   31   32 ar
    60   31   66 1
    61   32   33 ar
    62   32   67 1
    63   33   68 1
    64   34   35 2
    65   34   36 am
    66   36   37 1
    67   36   69 1
    68   37   42 ar
    69   37   38 ar
    70   38   39 ar
    71   38   70 1
    72   39   40 ar
    73   39   71 1
    74   40   41 ar
    75   40   72 1
    76   41   42 ar
    77   41   73 1
    78   42   74 1
@<TRIPOS>MOLECULE
ZINC01535101
   60    61     0     0     0
SMALL
USER_CHARGES

@<TRIPOS>ATOM
      1 C1         -0.0187    1.5258    0.0104 C.3       1 <0>        -0.1409
      2 C2          0.0021   -0.0041    0.0020 C.3       1 <0>        -0.0463
      3 C3          0.7421   -0.5109    1.2415 C.3       1 <0>        -0.1397
      4 C4         -1.4117   -0.5257    0.0127 C.ar      1 <0>         0.2278
      5 C5         -1.8760   -1.3353   -1.0280 C.ar      1 <0>        -0.1693
      6 C6         -3.2069   -1.7971   -0.9689 C.ar      1 <0>         0.2647
      7 N1         -3.9618   -1.4454    0.0684 N.ar      1 <0>        -0.5246
      8 C7         -3.4757   -0.6762    1.0295 C.ar      1 <0>         0.5493
      9 N2         -2.2276   -0.2284    1.0086 N.ar      1 <0>        -0.5329
     10 N3         -4.2934   -0.3326    2.0912 N.pl3     1 <0>        -0.9075
     11 C8         -3.7783    0.5177    3.1673 C.3       1 <0>         0.0882
     12 S1         -5.8545   -0.8825    2.1458 S.o2      1 <0>         2.6002
     13 O1         -6.5501    0.0779    2.9287 O.2       1 <0>        -0.9460
     14 O2         -6.2087   -1.1036    0.7875 O.2       1 <0>        -0.8995
     15 C9         -5.7616   -2.4623    3.0324 C.3       1 <0>        -0.6666
     16 C10        -3.7545   -2.6574   -2.0425 C.ar      1 <0>        -0.0730
     17 C11        -3.3515   -2.4685   -3.3646 C.ar      1 <0>        -0.0484
     18 C12        -3.8641   -3.2727   -4.3609 C.ar      1 <0>        -0.1588
     19 C13        -4.7781   -4.2672   -4.0503 C.ar      1 <0>         0.1214
     20 C14        -5.1816   -4.4588   -2.7383 C.ar      1 <0>        -0.1645
     21 C15        -4.6707   -3.6632   -1.7342 C.ar      1 <0>        -0.0393
     22 F1         -5.2778   -5.0522   -5.0298 F         1 <0>        -0.1353
     23 C16        -0.9973   -1.6965   -2.1576 C.2       1 <0>        -0.1273
     24 C17        -0.8837   -2.9650   -2.5306 C.2       1 <0>        -0.1484
     25 C18         0.0134   -3.3337   -3.6840 C.3       1 <0>         0.1408
     26 H1         -0.5894   -3.7311   -4.5006 H         1 <0>         0.1118
     27 C19         1.0187   -4.3938   -3.2295 C.3       1 <0>        -0.1809
     28 C20         1.8469   -4.8587   -4.4290 C.3       1 <0>         0.1375
     29 H2          1.1800   -5.2028   -5.2196 H         1 <0>         0.0939
     30 C21         2.7650   -6.0054   -4.0012 C.3       1 <0>        -0.2191
     31 C22         3.4904   -6.5447   -5.2069 C.2       1 <0>         0.4904
     32 O3          3.2916   -6.0571   -6.3066 O.co2     1 <0>        -0.6807
     33 O4          4.2762   -7.4687   -5.0828 O.co2     1 <0>        -0.7130
     34 O5          2.6373   -3.7708   -4.9126 O.3       1 <0>        -0.5275
     35 O6          0.7154   -2.1723   -4.1317 O.3       1 <0>        -0.5365
     36 H3          1.0039    1.9031    0.0027 H         1 <0>         0.0655
     37 H4         -0.5459    1.8868   -0.8726 H         1 <0>         0.0546
     38 H5         -0.5289    1.8773    0.9072 H         1 <0>         0.0648
     39 H6          0.5123   -0.3556   -0.8948 H         1 <0>         0.0972
     40 H7          0.2319   -0.1594    2.1383 H         1 <0>         0.0641
     41 H8          0.7568   -1.6008    1.2356 H         1 <0>         0.0541
     42 H9          1.7647   -0.1336    1.2338 H         1 <0>         0.0655
     43 H10        -3.9626    1.5639    2.9234 H         1 <0>         0.0726
     44 H11        -4.2826    0.2679    4.1007 H         1 <0>         0.0812
     45 H12        -2.7064    0.3539    3.2782 H         1 <0>         0.0952
     46 H13        -5.3578   -2.2954    4.0309 H         1 <0>         0.1267
     47 H14        -6.7594   -2.8939    3.1114 H         1 <0>         0.1345
     48 H15        -5.1117   -3.1471    2.4875 H         1 <0>         0.1302
     49 H16        -2.6396   -1.6936   -3.6076 H         1 <0>         0.1457
     50 H17        -3.5530   -3.1270   -5.3848 H         1 <0>         0.1437
     51 H18        -5.8943   -5.2348   -2.5013 H         1 <0>         0.1394
     52 H19        -4.9823   -3.8161   -0.7115 H         1 <0>         0.1375
     53 H20        -0.4469   -0.9285   -2.6806 H         1 <0>         0.1384
     54 H21        -1.4342   -3.7330   -2.0077 H         1 <0>         0.1159
     55 H22         1.6798   -3.9677   -2.4748 H         1 <0>         0.0647
     56 H23         0.4839   -5.2438   -2.8059 H         1 <0>         0.0752
     57 H24         3.4902   -5.6386   -3.2748 H         1 <0>         0.0563
     58 H25         2.1691   -6.7991   -3.5506 H         1 <0>         0.0608
     59 H26         3.2554   -3.4133   -4.2604 H         1 <0>         0.3500
     60 H27         1.2734   -1.7649   -3.4551 H         1 <0>         0.3660
@<TRIPOS>BOND
     1    1    2 1
     2    1   36 1
     3    1   37 1
     4    1   38 1
     5    2    3 1
     6    2    4 1
     7    2   39 1
     8    3   40 1
     9    3   41 1
    10    3   42 1
    11    4    9 ar
    12    4    5 ar
    13    5    6 ar
    14    5   23 1
    15    6    7 ar
    16    6   16 1
    17    7    8 ar
    18    8    9 ar
    19    8   10 1
    20   10   11 1
    21   10   12 1
    22   11   43 1
    23   11   44 1
    24   11   45 1
    25   12   13 2
    26   12   14 2
    27   12   15 1
    28   15   46 1
    29   15   47 1
    30   15   48 1
    31   16   21 ar
    32   16   17 ar
    33   17   18 ar
    34   17   49 1
    35   18   19 ar
    36   18   50 1
    37   19   20 ar
    38   19   22 1
    39   20   21 ar
    40   20   51 1
    41   21   52 1
    42   23   24 2
    43   23   53 1
    44   24   25 1
    45   24   54 1
    46   25   26 1
    47   25   27 1
    48   25   35 1
    49   27   28 1
    50   27   55 1
    51   27   56 1
    52   28   29 1
    53   28   30 1
    54   28   34 1
    55   30   31 1
    56   30   57 1
    57   30   58 1
    58   31   32 2
    59   31   33 1
    60   34   59 1
    61   35   60 1
@<TRIPOS>MOLECULE
ZINC03932194
   76    79     0     0     0
SMALL
USER_CHARGES
7-[2-(4-fluorophenyl)-4-[(2-hydroxyphenyl)carbamoyl]-5-isopropyl-3-phenyl-pyrrol-1-yl]-3,5-dihydroxy-heptanoic acid
@<TRIPOS>ATOM
      1 C1         -1.8615   -4.1120    0.2591 C.3       1 <0>        -0.1481
      2 C2         -1.0702   -3.2604    1.2538 C.3       1 <0>        -0.0377
      3 C3          0.0299   -4.1112    1.8916 C.3       1 <0>        -0.1489
      4 C4         -0.4476   -2.0932    0.5320 C.2       1 <0>         0.1051
      5 C5          0.4438   -2.1848   -0.5000 C.2       1 <0>        -0.2145
      6 C6          0.7759   -0.8033   -0.8844 C.2       1 <0>        -0.0754
      7 C7          0.0452    0.0087   -0.0385 C.2       1 <0>         0.0698
      8 N1         -0.6764   -0.7945    0.8060 N.pl3     1 <0>        -0.4173
      9 C8         -1.5742   -0.3083    1.8566 C.3       1 <0>         0.0935
     10 C9         -0.8210   -0.2567    3.1874 C.3       1 <0>        -0.1677
     11 C10        -1.7892    0.1317    4.3066 C.3       1 <0>         0.1179
     12 H1         -2.2836    1.0687    4.0504 H         1 <0>         0.1001
     13 C11        -1.0140    0.3050    5.6143 C.3       1 <0>        -0.1851
     14 C12        -1.9596    0.8137    6.7042 C.3       1 <0>         0.1334
     15 H2         -2.4481    1.7269    6.3642 H         1 <0>         0.0941
     16 C13        -1.1615    1.1056    7.9764 C.3       1 <0>        -0.1936
     17 C14        -2.0699    1.7214    9.0092 C.2       1 <0>         0.4596
     18 O1         -3.2360    1.9077    8.7539 O.co2     1 <0>        -0.6238
     19 O2         -2.9480   -0.1810    6.9796 O.3       1 <0>        -0.5295
     20 O3         -2.7693   -0.8958    4.4665 O.3       1 <0>        -0.5414
     21 C15         0.0463    1.4854   -0.0398 C.ar      1 <0>        -0.0296
     22 C16        -1.1606    2.1872   -0.0770 C.ar      1 <0>        -0.0819
     23 C17        -1.1536    3.5662   -0.0732 C.ar      1 <0>        -0.1489
     24 C18         0.0483    4.2556   -0.0435 C.ar      1 <0>         0.1058
     25 C19         1.2492    3.5645   -0.0113 C.ar      1 <0>        -0.1486
     26 C20         1.2543    2.1855   -0.0096 C.ar      1 <0>        -0.0594
     27 F1          0.0494    5.6066   -0.0456 F         1 <0>        -0.1373
     28 C21         1.7021   -0.3728   -1.9560 C.ar      1 <0>        -0.0106
     29 C22         1.2153    0.3141   -3.0685 C.ar      1 <0>        -0.1021
     30 C23         2.0843    0.7164   -4.0618 C.ar      1 <0>        -0.1206
     31 C24         3.4344    0.4313   -3.9610 C.ar      1 <0>        -0.1203
     32 C25         3.9226   -0.2537   -2.8626 C.ar      1 <0>        -0.1189
     33 C26         3.0646   -0.6573   -1.8603 C.ar      1 <0>        -0.1017
     34 C27         0.9674   -3.4191   -1.1062 C.2       1 <0>         0.6107
     35 O4          1.9814   -3.9291   -0.6683 O.2       1 <0>        -0.5112
     36 N2          0.3237   -3.9846   -2.1465 N.am      1 <0>        -0.6570
     37 C28         0.7761   -5.2016   -2.6723 C.ar      1 <0>         0.1288
     38 C29         2.1069   -5.5679   -2.5322 C.ar      1 <0>        -0.1225
     39 C30         2.5500   -6.7708   -3.0484 C.ar      1 <0>        -0.1070
     40 C31         1.6721   -7.6073   -3.7129 C.ar      1 <0>        -0.1262
     41 C32         0.3456   -7.2468   -3.8606 C.ar      1 <0>        -0.1254
     42 C33        -0.1077   -6.0446   -3.3422 C.ar      1 <0>         0.0705
     43 O5         -1.4119   -5.6882   -3.4874 O.3       1 <0>        -0.4918
     44 H3         -1.1911   -4.4807   -0.5174 H         1 <0>         0.0641
     45 H4         -2.3118   -4.9563    0.7812 H         1 <0>         0.0652
     46 H5         -2.6452   -3.5059   -0.1953 H         1 <0>         0.0576
     47 H6         -1.7406   -2.8918    2.0303 H         1 <0>         0.0854
     48 H7          0.5936   -3.5045    2.6003 H         1 <0>         0.0573
     49 H8         -0.4204   -4.9555    2.4137 H         1 <0>         0.0631
     50 H9          0.7002   -4.4799    1.1152 H         1 <0>         0.0691
     51 H10        -1.9268    0.6906    1.5997 H         1 <0>         0.0973
     52 H11        -2.4261   -0.9822    1.9472 H         1 <0>         0.1037
     53 H12        -0.3930   -1.2362    3.4009 H         1 <0>         0.0742
     54 H13        -0.0227    0.4828    3.1247 H         1 <0>         0.0791
     55 H14        -0.5931   -0.6538    5.9169 H         1 <0>         0.0658
     56 H15        -0.2090    1.0249    5.4667 H         1 <0>         0.0762
     57 H16        -0.7460    0.1762    8.3659 H         1 <0>         0.0636
     58 H17        -0.3513    1.7975    7.7463 H         1 <0>         0.0681
     59 H18        -2.5841   -1.0223    7.2875 H         1 <0>         0.3528
     60 H19        -2.3999   -1.7595    4.6958 H         1 <0>         0.3670
     61 H20        -2.0976    1.6510   -0.1046 H         1 <0>         0.1325
     62 H21        -2.0864    4.1100   -0.0975 H         1 <0>         0.1396
     63 H22         2.1828    4.1070    0.0120 H         1 <0>         0.1389
     64 H23         2.1907    1.6479    0.0148 H         1 <0>         0.1347
     65 H24         0.1610    0.5336   -3.1503 H         1 <0>         0.1192
     66 H25         1.7093    1.2515   -4.9217 H         1 <0>         0.1203
     67 H26         4.1101    0.7450   -4.7429 H         1 <0>         0.1192
     68 H27         4.9776   -0.4734   -2.7897 H         1 <0>         0.1214
     69 H28         3.4469   -1.1919   -1.0034 H         1 <0>         0.1235
     70 H29        -0.4529   -3.5489   -2.5311 H         1 <0>         0.4123
     71 H30         2.7956   -4.9146   -2.0172 H         1 <0>         0.1581
     72 H31         3.5855   -7.0564   -2.9362 H         1 <0>         0.1273
     73 H32         2.0236   -8.5447   -4.1180 H         1 <0>         0.1256
     74 H33        -0.3374   -7.9023   -4.3804 H         1 <0>         0.1305
     75 H34        -1.5945   -5.1834   -4.2917 H         1 <0>         0.3842
     76 O6         -1.5835    2.0629   10.2127 O.co2     1 <0>        -0.7820
@<TRIPOS>BOND
     1    1    2 1
     2    1   44 1
     3    1   45 1
     4    1   46 1
     5    2    3 1
     6    2    4 1
     7    2   47 1
     8    3   48 1
     9    3   49 1
    10    3   50 1
    11    4    8 1
    12    4    5 2
    13    5    6 1
    14    5   34 1
    15    6    7 2
    16    6   28 1
    17    7    8 1
    18    7   21 1
    19    8    9 1
    20    9   10 1
    21    9   51 1
    22    9   52 1
    23   10   11 1
    24   10   53 1
    25   10   54 1
    26   11   12 1
    27   11   13 1
    28   11   20 1
    29   13   14 1
    30   13   55 1
    31   13   56 1
    32   14   15 1
    33   14   16 1
    34   14   19 1
    35   16   17 1
    36   16   57 1
    37   16   58 1
    38   17   18 2
    39   17   76 1
    40   19   59 1
    41   20   60 1
    42   21   26 ar
    43   21   22 ar
    44   22   23 ar
    45   22   61 1
    46   23   24 ar
    47   23   62 1
    48   24   25 ar
    49   24   27 1
    50   25   26 ar
    51   25   63 1
    52   26   64 1
    53   28   33 ar
    54   28   29 ar
    55   29   30 ar
    56   29   65 1
    57   30   31 ar
    58   30   66 1
    59   31   32 ar
    60   31   67 1
    61   32   33 ar
    62   32   68 1
    63   33   69 1
    64   34   35 2
    65   34   36 am
    66   36   37 1
    67   36   70 1
    68   37   42 ar
    69   37   38 ar
    70   38   39 ar
    71   38   71 1
    72   39   40 ar
    73   39   72 1
    74   40   41 ar
    75   40   73 1
    76   41   42 ar
    77   41   74 1
    78   42   43 1
    79   43   75 1
@<TRIPOS>MOLECULE
ZINC03833876
   62    64     0     0     0
SMALL
USER_CHARGES

@<TRIPOS>ATOM
      1 C1          0.5789    0.9814    1.0341 C.3       1 <0>        -0.1531
      2 C2          0.8139   -0.5284    0.9553 C.3       1 <0>        -0.1101
      3 C3          1.1861   -0.9124   -0.4782 C.3       1 <0>        -0.0847
      4 H1          2.0432   -0.3217   -0.8017 H         1 <0>         0.1064
      5 C4         -0.0007   -0.6386   -1.4041 C.3       1 <0>        -0.1470
      6 C5          1.5368   -2.3771   -0.5309 C.2       1 <0>         0.4520
      7 O1          1.4935   -3.0452    0.4749 O.2       1 <0>        -0.5036
      8 O2          1.8974   -2.9394   -1.6951 O.3       1 <0>        -0.3191
      9 C6          2.2164   -4.3322   -1.6716 C.3       1 <0>         0.0911
     10 H2          2.6208   -4.5862   -0.6919 H         1 <0>         0.0832
     11 C7          0.9402   -5.1378   -1.9060 C.3       1 <0>        -0.1337
     12 C8          1.3034   -6.6295   -1.9064 C.3       1 <0>        -0.0884
     13 C9          2.2585   -6.8664   -3.0481 C.2       1 <0>        -0.1448
     14 C10         3.1187   -5.9350   -3.4156 C.2       1 <0>        -0.0863
     15 C11         3.2627   -4.6137   -2.7224 C.3       1 <0>        -0.0443
     16 H3          4.2319   -4.6162   -2.2237 H         1 <0>         0.0833
     17 C12         3.3195   -3.5192   -3.7900 C.3       1 <0>        -0.0602
     18 H4          2.4218   -3.5629   -4.4067 H         1 <0>         0.0742
     19 C13         4.5539   -3.7507   -4.6632 C.3       1 <0>        -0.0605
     20 H5          4.5079   -3.0870   -5.5267 H         1 <0>         0.0819
     21 C14         4.6382   -5.1682   -5.1408 C.2       1 <0>        -0.1378
     22 C15         4.0018   -6.1795   -4.5792 C.2       1 <0>        -0.1249
     23 C16         5.8083   -3.4245   -3.8502 C.3       1 <0>        -0.1567
     24 C17         3.4129   -2.1489   -3.1158 C.3       1 <0>        -0.1183
     25 C18         3.9433   -1.1223   -4.1186 C.3       1 <0>        -0.1335
     26 C19         4.0368    0.2480   -3.4445 C.3       1 <0>         0.1101
     27 H6          3.0671    0.5132   -3.0233 H         1 <0>         0.0840
     28 C20         4.4498    1.2991   -4.4782 C.3       1 <0>        -0.1541
     29 C21         4.5826    2.6621   -3.7913 C.3       1 <0>         0.1044
     30 H7          4.8890    3.4108   -4.5218 H         1 <0>         0.0785
     31 C22         5.6411    2.5592   -2.6858 C.3       1 <0>        -0.2056
     32 C23         5.2941    1.3793   -1.8045 C.2       1 <0>         0.4949
     33 O3          5.2672    1.4888   -0.6015 O.2       1 <0>        -0.4528
     34 O4          5.0151    0.2012   -2.3999 O.3       1 <0>        -0.3661
     35 O5          3.3264    3.0353   -3.2214 O.3       1 <0>        -0.5627
     36 H8          1.4883    1.5064    0.7418 H         1 <0>         0.0569
     37 H9         -0.2327    1.2584    0.3613 H         1 <0>         0.0587
     38 H10         0.3137    1.2550    2.0553 H         1 <0>         0.0599
     39 H11         1.6255   -0.8054    1.6281 H         1 <0>         0.0720
     40 H12        -0.0956   -1.0534    1.2475 H         1 <0>         0.0701
     41 H13        -0.2544    0.4208   -1.3660 H         1 <0>         0.0751
     42 H14         0.2645   -0.9122   -2.4254 H         1 <0>         0.0683
     43 H15        -0.8578   -1.2293   -1.0806 H         1 <0>         0.0609
     44 H16         0.2257   -4.9340   -1.1086 H         1 <0>         0.0717
     45 H17         0.5055   -4.8655   -2.8678 H         1 <0>         0.0756
     46 H18         1.7818   -6.8938   -0.9633 H         1 <0>         0.0792
     47 H19         0.4039   -7.2290   -2.0464 H         1 <0>         0.0798
     48 H20         2.2391   -7.8106   -3.5721 H         1 <0>         0.1153
     49 H21         5.2626   -5.3767   -5.9970 H         1 <0>         0.1062
     50 H22         4.1204   -7.1793   -4.9700 H         1 <0>         0.1185
     51 H23         5.8517   -4.0713   -2.9739 H         1 <0>         0.0551
     52 H24         6.6929   -3.5871   -4.4660 H         1 <0>         0.0534
     53 H25         5.7739   -2.3827   -3.5314 H         1 <0>         0.0768
     54 H26         2.4240   -1.8445   -2.7729 H         1 <0>         0.1085
     55 H27         4.0904   -2.2085   -2.2641 H         1 <0>         0.0668
     56 H28         4.9322   -1.4267   -4.4615 H         1 <0>         0.0875
     57 H29         3.2658   -1.0628   -4.9704 H         1 <0>         0.0853
     58 H30         5.4065    1.0193   -4.9191 H         1 <0>         0.0948
     59 H31         3.6921    1.3580   -5.2597 H         1 <0>         0.0977
     60 H32         6.6243    2.4084   -3.1314 H         1 <0>         0.1174
     61 H33         5.6424    3.4734   -2.0922 H         1 <0>         0.1069
     62 H34         3.3381    3.8901   -2.7695 H         1 <0>         0.3858
@<TRIPOS>BOND
     1    1    2 1
     2    1   36 1
     3    1   37 1
     4    1   38 1
     5    2    3 1
     6    2   39 1
     7    2   40 1
     8    3    4 1
     9    3    5 1
    10    3    6 1
    11    5   41 1
    12    5   42 1
    13    5   43 1
    14    6    7 2
    15    6    8 1
    16    8    9 1
    17    9   10 1
    18    9   15 1
    19    9   11 1
    20   11   12 1
    21   11   44 1
    22   11   45 1
    23   12   13 1
    24   12   46 1
    25   12   47 1
    26   13   14 2
    27   13   48 1
    28   14   22 1
    29   14   15 1
    30   15   16 1
    31   15   17 1
    32   17   18 1
    33   17   19 1
    34   17   24 1
    35   19   20 1
    36   19   21 1
    37   19   23 1
    38   21   22 2
    39   21   49 1
    40   22   50 1
    41   23   51 1
    42   23   52 1
    43   23   53 1
    44   24   25 1
    45   24   54 1
    46   24   55 1
    47   25   26 1
    48   25   56 1
    49   25   57 1
    50   26   27 1
    51   26   34 1
    52   26   28 1
    53   28   29 1
    54   28   58 1
    55   28   59 1
    56   29   30 1
    57   29   31 1
    58   29   35 1
    59   31   32 1
    60   31   60 1
    61   31   61 1
    62   32   33 2
    63   32   34 1
    64   35   62 1
@<TRIPOS>MOLECULE
ZINC03984042
   62    64     0     0     0
SMALL
USER_CHARGES

@<TRIPOS>ATOM
      1 C1          0.0882   -0.1785    1.6716 C.3       1 <0>        -0.1514
      2 C2          0.5868   -1.5926    1.3675 C.3       1 <0>        -0.1107
      3 C3          1.3343   -1.5938    0.0326 C.3       1 <0>        -0.0816
      4 H1          2.0850   -0.8035    0.0358 H         1 <0>         0.1111
      5 C4          0.3430   -1.3509   -1.1072 C.3       1 <0>        -0.1442
      6 C5          2.0092   -2.9268   -0.1641 C.2       1 <0>         0.4524
      7 O1          2.1099   -3.6955    0.7626 O.2       1 <0>        -0.5063
      8 O2          2.4983   -3.2602   -1.3688 O.3       1 <0>        -0.3204
      9 C6          3.0758   -4.5610   -1.4973 C.3       1 <0>         0.0973
     10 H2          3.7568   -4.7299   -0.6631 H         1 <0>         0.0760
     11 C7          1.9626   -5.6054   -1.4487 C.3       1 <0>        -0.1425
     12 C8          2.5950   -6.9943   -1.6163 C.3       1 <0>        -0.0878
     13 C9          3.2564   -7.0342   -2.9701 C.2       1 <0>        -0.1425
     14 C10         3.7984   -5.9492   -3.4911 C.2       1 <0>        -0.0890
     15 C11         3.8553   -4.6265   -2.7881 C.3       1 <0>        -0.0408
     16 H3          4.9010   -4.4355   -2.5466 H         1 <0>         0.0837
     17 C12         3.4268   -3.5417   -3.7783 C.3       1 <0>        -0.0616
     18 H4          2.4279   -3.7636   -4.1541 H         1 <0>         0.0750
     19 C13         4.4199   -3.5207   -4.9416 C.3       1 <0>        -0.0622
     20 H5          4.0290   -2.8788   -5.7310 H         1 <0>         0.0838
     21 C14         4.6527   -4.8923   -5.4977 C.2       1 <0>        -0.1392
     22 C15         4.3874   -6.0110   -4.8486 C.2       1 <0>        -0.1230
     23 C16         5.7520   -2.9510   -4.4498 C.3       1 <0>        -0.1603
     24 C17         3.4215   -2.1811   -3.0786 C.3       1 <0>        -0.1126
     25 C18         3.5957   -1.0723   -4.1184 C.3       1 <0>        -0.1390
     26 C19         3.7610    0.2723   -3.4073 C.3       1 <0>         0.1102
     27 H6          4.5548    0.1958   -2.6642 H         1 <0>         0.0772
     28 C20         4.1221    1.3513   -4.4317 C.3       1 <0>        -0.1560
     29 C21         4.2461    2.7036   -3.7224 C.3       1 <0>         0.1084
     30 H7          5.0305    2.6494   -2.9675 H         1 <0>         0.0660
     31 C22         2.9079    3.0356   -3.0501 C.3       1 <0>        -0.2060
     32 C23         2.4966    1.8525   -2.2012 C.2       1 <0>         0.4904
     33 O3          2.1457    2.0022   -1.0548 O.2       1 <0>        -0.4463
     34 O4          2.5332    0.6253   -2.7605 O.3       1 <0>        -0.3600
     35 O5          4.5695    3.7168   -4.6768 O.3       1 <0>        -0.5561
     36 H8          0.9381    0.4662    1.8953 H         1 <0>         0.0571
     37 H9         -0.4463    0.2123    0.8057 H         1 <0>         0.0595
     38 H10        -0.5825   -0.2065    2.5303 H         1 <0>         0.0574
     39 H11         1.2593   -1.9192    2.1608 H         1 <0>         0.0736
     40 H12        -0.2629   -2.2727    1.3087 H         1 <0>         0.0660
     41 H13        -0.1451   -0.3868   -0.9650 H         1 <0>         0.0704
     42 H14         0.8755   -1.3518   -2.0583 H         1 <0>         0.0753
     43 H15        -0.4077   -2.1412   -1.1105 H         1 <0>         0.0549
     44 H16         1.4482   -5.5495   -0.4893 H         1 <0>         0.0793
     45 H17         1.2539   -5.4246   -2.2569 H         1 <0>         0.0737
     46 H18         3.3387   -7.1584   -0.8365 H         1 <0>         0.0791
     47 H19         1.8229   -7.7615   -1.5592 H         1 <0>         0.0793
     48 H20         3.2875   -7.9627   -3.5209 H         1 <0>         0.1152
     49 H21         5.0676   -4.9708   -6.4917 H         1 <0>         0.1068
     50 H22         4.5939   -6.9664   -5.3078 H         1 <0>         0.1187
     51 H23         6.1405   -3.5768   -3.6464 H         1 <0>         0.0575
     52 H24         6.4656   -2.9327   -5.2736 H         1 <0>         0.0565
     53 H25         5.5990   -1.9374   -4.0792 H         1 <0>         0.0745
     54 H26         2.4742   -2.0444   -2.5570 H         1 <0>         0.1119
     55 H27         4.2409   -2.1383   -2.3611 H         1 <0>         0.0603
     56 H28         4.4805   -1.2755   -4.7215 H         1 <0>         0.1063
     57 H29         2.7171   -1.0370   -4.7626 H         1 <0>         0.0788
     58 H30         5.0714    1.1004   -4.9049 H         1 <0>         0.0972
     59 H31         3.3412    1.4086   -5.1900 H         1 <0>         0.0912
     60 H32         3.0221    3.9178   -2.4201 H         1 <0>         0.1056
     61 H33         2.1506    3.2226   -3.8114 H         1 <0>         0.1169
     62 H34         4.6633    4.6006   -4.2957 H         1 <0>         0.3852
@<TRIPOS>BOND
     1    1    2 1
     2    1   36 1
     3    1   37 1
     4    1   38 1
     5    2    3 1
     6    2   39 1
     7    2   40 1
     8    3    4 1
     9    3    5 1
    10    3    6 1
    11    5   41 1
    12    5   42 1
    13    5   43 1
    14    6    7 2
    15    6    8 1
    16    8    9 1
    17    9   10 1
    18    9   15 1
    19    9   11 1
    20   11   12 1
    21   11   44 1
    22   11   45 1
    23   12   13 1
    24   12   46 1
    25   12   47 1
    26   13   14 2
    27   13   48 1
    28   14   22 1
    29   14   15 1
    30   15   16 1
    31   15   17 1
    32   17   18 1
    33   17   19 1
    34   17   24 1
    35   19   20 1
    36   19   21 1
    37   19   23 1
    38   21   22 2
    39   21   49 1
    40   22   50 1
    41   23   51 1
    42   23   52 1
    43   23   53 1
    44   24   25 1
    45   24   54 1
    46   24   55 1
    47   25   26 1
    48   25   56 1
    49   25   57 1
    50   26   27 1
    51   26   34 1
    52   26   28 1
    53   28   29 1
    54   28   58 1
    55   28   59 1
    56   29   30 1
    57   29   31 1
    58   29   35 1
    59   31   32 1
    60   31   60 1
    61   31   61 1
    62   32   33 2
    63   32   34 1
    64   35   62 1
@<TRIPOS>MOLECULE
ZINC04521332
   62    64     0     0     0
SMALL
USER_CHARGES
[8-[2-(4-hydroxy-6-oxo-tetrahydropyran-2-yl)ethyl]-7-methyl-1,2,3,7,8,8a-hexahydronaphthalen-1-yl] 2-methylbutanoate
@<TRIPOS>ATOM
      1 C1         -2.0185   -8.9262    8.0472 C.3       1 <0>        -0.1541
      2 C2         -1.8683   -7.5814    7.3332 C.3       1 <0>        -0.1111
      3 C3         -0.4259   -7.4192    6.8492 C.3       1 <0>        -0.0836
      4 H1         -0.1524   -8.2732    6.2295 H         1 <0>         0.1078
      5 C4          0.5115   -7.3437    8.0560 C.3       1 <0>        -0.1468
      6 C5         -0.3068   -6.1532    6.0405 C.2       1 <0>         0.4626
      7 O1         -1.2760   -5.4525    5.8688 O.2       1 <0>        -0.5050
      8 O2          0.8761   -5.8039    5.5108 O.3       1 <0>        -0.3496
      9 C6          0.9169   -4.5717    4.7438 C.3       1 <0>         0.1019
     10 H2         -0.0512   -4.4207    4.2664 H         1 <0>         0.0872
     11 C7          1.1913   -3.4055    5.6910 C.3       1 <0>        -0.1395
     12 C8          2.5622   -3.6262    6.3453 C.3       1 <0>        -0.0876
     13 C9          3.5965   -3.6422    5.2496 C.2       1 <0>        -0.1511
     14 C10         3.2956   -4.0862    4.0588 C.2       1 <0>        -0.0703
     15 C11         1.9782   -4.6925    3.6758 C.3       1 <0>        -0.0432
     16 H3          2.1454   -5.7544    3.4954 H         1 <0>         0.0925
     17 C12         1.5317   -4.0666    2.3526 C.3       1 <0>        -0.0722
     18 H4          0.5567   -4.4641    2.0707 H         1 <0>         0.0809
     19 C13         2.5607   -4.4109    1.2747 C.3       1 <0>        -0.0574
     20 H5          2.4878   -5.4728    1.0397 H         1 <0>         0.0832
     21 C14         3.9567   -4.1046    1.7246 C.2       1 <0>        -0.1397
     22 C15         4.3127   -3.9603    2.9893 C.2       1 <0>        -0.1289
     23 C16         2.2534   -3.6003    0.0140 C.3       1 <0>        -0.1503
     24 C17         1.4407   -2.5472    2.5085 C.3       1 <0>        -0.1174
     25 C18         2.8467   -1.9662    2.6713 C.3       1 <0>        -0.1587
     26 C19         2.7694   -0.4382    2.6786 C.3       1 <0>         0.1081
     27 H6          2.2570   -0.0942    1.7801 H         1 <0>         0.0815
     28 C20         4.1844    0.1456    2.7159 C.3       1 <0>        -0.1490
     29 C21         4.1018    1.6739    2.7766 C.3       1 <0>         0.1041
     30 H7          5.1076    2.0928    2.8072 H         1 <0>         0.0781
     31 C22         3.3372    2.0818    4.0419 C.3       1 <0>        -0.2056
     32 C23         2.0193    1.3392    4.0634 C.2       1 <0>         0.4945
     33 O3          0.9801    1.9232    4.2605 O.2       1 <0>        -0.4570
     34 O4          2.0378    0.0061    3.8557 O.3       1 <0>        -0.3703
     35 O5          3.4131    2.1619    1.6235 O.3       1 <0>        -0.5637
     36 H8         -3.0461   -9.0417    8.3920 H         1 <0>         0.0607
     37 H9         -1.7740   -9.7334    7.3568 H         1 <0>         0.0565
     38 H10        -1.3425   -8.9615    8.9015 H         1 <0>         0.0596
     39 H11        -2.1128   -6.7741    8.0236 H         1 <0>         0.0712
     40 H12        -2.5443   -7.5461    6.4789 H         1 <0>         0.0721
     41 H13         0.4253   -8.2594    8.6409 H         1 <0>         0.0747
     42 H14         1.5391   -7.2281    7.7112 H         1 <0>         0.0690
     43 H15         0.2380   -6.4896    8.6756 H         1 <0>         0.0606
     44 H16         1.1983   -2.4709    5.1303 H         1 <0>         0.0945
     45 H17         0.4195   -3.3674    6.4597 H         1 <0>         0.0709
     46 H18         2.7741   -2.8147    7.0415 H         1 <0>         0.0733
     47 H19         2.5695   -4.5787    6.8753 H         1 <0>         0.0795
     48 H20         4.5905   -3.2711    5.4514 H         1 <0>         0.1146
     49 H21         4.7198   -3.9952    0.9683 H         1 <0>         0.1115
     50 H22         5.3418   -3.7515    3.2420 H         1 <0>         0.1218
     51 H23         2.3933   -2.5393    0.2211 H         1 <0>         0.0627
     52 H24         2.9261   -3.9058   -0.7874 H         1 <0>         0.0574
     53 H25         1.2219   -3.7781   -0.2899 H         1 <0>         0.0594
     54 H26         0.8443   -2.3074    3.3888 H         1 <0>         0.0733
     55 H27         0.9707   -2.1186    1.6234 H         1 <0>         0.0665
     56 H28         3.4737   -2.2943    1.8422 H         1 <0>         0.1075
     57 H29         3.2765   -2.3128    3.6111 H         1 <0>         0.1137
     58 H30         4.7252   -0.1540    1.8181 H         1 <0>         0.0962
     59 H31         4.7079   -0.2256    3.5969 H         1 <0>         0.0943
     60 H32         3.9210    1.8192    4.9242 H         1 <0>         0.1166
     61 H33         3.1531    3.1561    4.0293 H         1 <0>         0.1058
     62 H34         3.3242    3.1244    1.5965 H         1 <0>         0.3858
@<TRIPOS>BOND
     1    1    2 1
     2    1   36 1
     3    1   37 1
     4    1   38 1
     5    2    3 1
     6    2   39 1
     7    2   40 1
     8    3    4 1
     9    3    5 1
    10    3    6 1
    11    5   41 1
    12    5   42 1
    13    5   43 1
    14    6    7 2
    15    6    8 1
    16    8    9 1
    17    9   10 1
    18    9   15 1
    19    9   11 1
    20   11   12 1
    21   11   44 1
    22   11   45 1
    23   12   13 1
    24   12   46 1
    25   12   47 1
    26   13   14 2
    27   13   48 1
    28   14   22 1
    29   14   15 1
    30   15   16 1
    31   15   17 1
    32   17   18 1
    33   17   19 1
    34   17   24 1
    35   19   20 1
    36   19   21 1
    37   19   23 1
    38   21   22 2
    39   21   49 1
    40   22   50 1
    41   23   51 1
    42   23   52 1
    43   23   53 1
    44   24   25 1
    45   24   54 1
    46   24   55 1
    47   25   26 1
    48   25   56 1
    49   25   57 1
    50   26   27 1
    51   26   34 1
    52   26   28 1
    53   28   29 1
    54   28   58 1
    55   28   59 1
    56   29   30 1
    57   29   31 1
    58   29   35 1
    59   31   32 1
    60   31   60 1
    61   31   61 1
    62   32   33 2
    63   32   34 1
    64   35   62 1
@<TRIPOS>MOLECULE
ZINC29551618
   62    64     0     0     0
SMALL
USER_CHARGES
[(1S,7S,8S,8aS)-8-[2-[(2S,4R)-4-hydroxy-6-oxo-tetrahydropyran-2-yl]ethyl]-7-methyl-1,2,3,7,8,8a-hexahydronaphthalen-1-yl] (2S)-2-methylbutanoate
@<TRIPOS>ATOM
      1 C1          1.6635    6.9812    4.8895 C.3       1 <0>        -0.1558
      2 C2          1.6963    6.4776    3.4451 C.3       1 <0>        -0.1116
      3 C3          1.1840    5.0368    3.3956 C.3       1 <0>        -0.0836
      4 H1          0.1800    4.9814    3.8415 H         1 <0>         0.1086
      5 C4          2.1452    4.1271    4.1633 C.3       1 <0>        -0.1485
      6 C5          1.1002    4.5824    1.9612 C.2       1 <0>         0.4625
      7 O1          1.4176    5.3340    1.0699 O.2       1 <0>        -0.5058
      8 O2          0.6729    3.3429    1.6736 O.3       1 <0>        -0.3502
      9 C6          0.6177    2.9736    0.2705 C.3       1 <0>         0.0967
     10 H2          0.3873    3.8735   -0.3187 H         1 <0>         0.0887
     11 C7          1.9763    2.4172   -0.1508 C.3       1 <0>        -0.1395
     12 C8          2.2626    1.1595    0.6810 C.3       1 <0>        -0.0881
     13 C9          1.1856    0.1512    0.3748 C.2       1 <0>        -0.1571
     14 C10        -0.0418    0.5356    0.0774 C.2       1 <0>        -0.0706
     15 C11        -0.4905    1.9669    0.0703 C.3       1 <0>        -0.0480
     16 H3         -1.1276    2.1081    0.9558 H         1 <0>         0.0939
     17 C12        -1.2636    2.2178   -1.2264 C.3       1 <0>        -0.0672
     18 H4         -1.5684    3.2732   -1.2834 H         1 <0>         0.0814
     19 C13        -2.4998    1.3175   -1.2431 C.3       1 <0>        -0.0592
     20 H5         -3.1936    1.6562   -0.4596 H         1 <0>         0.0831
     21 C14        -2.1513   -0.1067   -0.9339 C.2       1 <0>        -0.1351
     22 C15        -1.0393   -0.4824   -0.3264 C.2       1 <0>        -0.1371
     23 C16        -3.1468    1.3836   -2.6280 C.3       1 <0>        -0.1551
     24 C17        -0.3731    1.8890   -2.4264 C.3       1 <0>        -0.1213
     25 C18        -0.2268    0.3713   -2.5523 C.3       1 <0>        -0.1494
     26 C19         0.5339    0.0371   -3.8370 C.3       1 <0>         0.1067
     27 H6          1.4791    0.5978   -3.8845 H         1 <0>         0.0760
     28 C20         0.7875   -1.4715   -3.9037 C.3       1 <0>        -0.1480
     29 C21         1.5022   -1.8087   -5.2159 C.3       1 <0>         0.1178
     30 H7          2.4974   -1.3428   -5.2654 H         1 <0>         0.0628
     31 C22         0.6162   -1.3776   -6.3911 C.3       1 <0>        -0.2038
     32 C23         0.2316    0.0720   -6.1922 C.2       1 <0>         0.4906
     33 O3          0.3591    0.8769   -7.0842 O.2       1 <0>        -0.4537
     34 O4         -0.2571    0.4415   -4.9897 O.3       1 <0>        -0.3724
     35 O5          1.7365   -3.2167   -5.2849 O.3       1 <0>        -0.5923
     36 H8          2.0318    8.0171    4.9251 H         1 <0>         0.0614
     37 H9          2.3043    6.3425    5.5151 H         1 <0>         0.0602
     38 H10         0.6308    6.9461    5.2667 H         1 <0>         0.0571
     39 H11         1.0555    7.1163    2.8195 H         1 <0>         0.0726
     40 H12         2.7290    6.5127    3.0679 H         1 <0>         0.0717
     41 H13         1.7769    3.0912    4.1277 H         1 <0>         0.0697
     42 H14         2.2064    4.4587    5.2103 H         1 <0>         0.0759
     43 H15         3.1434    4.1773    3.7038 H         1 <0>         0.0612
     44 H16         1.9529    2.1638   -1.2210 H         1 <0>         0.0870
     45 H17         2.7543    3.1735    0.0299 H         1 <0>         0.0725
     46 H18         3.2502    0.7578    0.4102 H         1 <0>         0.0750
     47 H19         2.2521    1.4169    1.7504 H         1 <0>         0.0817
     48 H20         1.4352   -0.9198    0.4019 H         1 <0>         0.1173
     49 H21        -2.8892   -0.8605   -1.2458 H         1 <0>         0.1138
     50 H22        -0.8571   -1.5478   -0.1223 H         1 <0>         0.1243
     51 H23        -4.0373    0.7381   -2.6478 H         1 <0>         0.0561
     52 H24        -2.4274    1.0393   -3.3856 H         1 <0>         0.0744
     53 H25        -3.4408    2.4209   -2.8462 H         1 <0>         0.0583
     54 H26        -0.8299    2.2906   -3.3429 H         1 <0>         0.0782
     55 H27         0.6187    2.3423   -2.2821 H         1 <0>         0.0668
     56 H28         0.3287   -0.0166   -1.6858 H         1 <0>         0.1207
     57 H29        -1.2241   -0.0917   -2.5857 H         1 <0>         0.1027
     58 H30         1.4163   -1.7755   -3.0539 H         1 <0>         0.0975
     59 H31        -0.1724   -2.0070   -3.8597 H         1 <0>         0.0911
     60 H32         1.1736   -1.4934   -7.3323 H         1 <0>         0.1054
     61 H33        -0.2862   -2.0059   -6.4198 H         1 <0>         0.1171
     62 H34         2.2429   -3.6477   -6.1611 H         1 <0>         0.4148
@<TRIPOS>BOND
     1    1    2 1
     2    1   36 1
     3    1   37 1
     4    1   38 1
     5    2    3 1
     6    2   39 1
     7    2   40 1
     8    3    4 1
     9    3    5 1
    10    3    6 1
    11    5   41 1
    12    5   42 1
    13    5   43 1
    14    6    7 2
    15    6    8 1
    16    8    9 1
    17    9   10 1
    18    9   15 1
    19    9   11 1
    20   11   12 1
    21   11   44 1
    22   11   45 1
    23   12   13 1
    24   12   46 1
    25   12   47 1
    26   13   14 2
    27   13   48 1
    28   14   22 1
    29   14   15 1
    30   15   16 1
    31   15   17 1
    32   17   18 1
    33   17   19 1
    34   17   24 1
    35   19   20 1
    36   19   21 1
    37   19   23 1
    38   21   22 2
    39   21   49 1
    40   22   50 1
    41   23   51 1
    42   23   52 1
    43   23   53 1
    44   24   25 1
    45   24   54 1
    46   24   55 1
    47   25   26 1
    48   25   56 1
    49   25   57 1
    50   26   27 1
    51   26   34 1
    52   26   28 1
    53   28   29 1
    54   28   58 1
    55   28   59 1
    56   29   30 1
    57   29   31 1
    58   29   35 1
    59   31   32 1
    60   31   60 1
    61   31   61 1
    62   32   33 2
    63   32   34 1
    64   35   62 1
@<TRIPOS>MOLECULE
ZINC04134473
   67    68     0     0     0
SMALL
USER_CHARGES
7-[2,6-dimethyl-8-(2-methylbutanoyloxy)-1,2,6,7,8,8a-hexahydronaphthalen-1-yl]-3,5-dihydroxy-heptanoic acid
@<TRIPOS>ATOM
      1 C1         -0.2124    1.0466    7.2024 C.3       1 <0>        -0.1566
      2 C2         -0.5770    2.4376    7.7249 C.3       1 <0>        -0.1065
      3 C3         -0.4075    3.4643    6.6033 C.3       1 <0>        -0.0896
      4 H1         -0.9949    3.1573    5.7379 H         1 <0>         0.1155
      5 C4          1.0689    3.5531    6.2121 C.3       1 <0>        -0.1469
      6 C5         -0.8828    4.8125    7.0804 C.2       1 <0>         0.4550
      7 O1         -1.3129    4.9391    8.2024 O.2       1 <0>        -0.5113
      8 O2         -0.8282    5.8726    6.2589 O.3       1 <0>        -0.3196
      9 C6         -1.3029    7.1398    6.7855 C.3       1 <0>         0.0927
     10 H2         -2.0978    6.9481    7.5063 H         1 <0>         0.0828
     11 C7         -0.1485    7.8442    7.4952 C.3       1 <0>        -0.1277
     12 C8         -0.6559    9.1946    8.0204 C.3       1 <0>        -0.0582
     13 H3         -1.5049    9.0373    8.6855 H         1 <0>         0.0830
     14 C9         -1.0836   10.0154    6.8308 C.2       1 <0>        -0.1449
     15 C10        -1.6010    9.4393    5.7617 C.2       1 <0>        -0.0805
     16 C11        -1.8582    7.9656    5.6507 C.3       1 <0>        -0.0446
     17 H4         -2.9391    7.8249    5.6550 H         1 <0>         0.0827
     18 C12        -1.3470    7.4942    4.2879 C.3       1 <0>        -0.0599
     19 H5         -0.2881    7.7330    4.1893 H         1 <0>         0.0712
     20 C13        -2.1391    8.2111    3.1931 C.3       1 <0>        -0.0620
     21 H6         -1.6688    8.0169    2.2292 H         1 <0>         0.0826
     22 C14        -2.1891    9.6907    3.4229 C.2       1 <0>        -0.1321
     23 C15        -1.9550   10.2701    4.5878 C.2       1 <0>        -0.1301
     24 C16        -3.5668    7.6616    3.1692 C.3       1 <0>        -0.1542
     25 C17        -1.5464    5.9826    4.1597 C.3       1 <0>        -0.1121
     26 C18        -1.5093    5.5869    2.6822 C.3       1 <0>        -0.1688
     27 C19        -1.7087    4.0754    2.5539 C.3       1 <0>         0.1141
     28 H7         -0.9660    3.5581    3.1612 H         1 <0>         0.0929
     29 C20        -1.5476    3.6622    1.0896 C.3       1 <0>        -0.1869
     30 C21        -1.6230    2.1381    0.9785 C.3       1 <0>         0.1332
     31 H8         -0.8833    1.6885    1.6409 H         1 <0>         0.0926
     32 C22        -1.3381    1.7172   -0.4646 C.3       1 <0>        -0.1936
     33 C23        -1.2909    0.2133   -0.5493 C.2       1 <0>         0.4594
     34 O3         -1.4671   -0.4534    0.4428 O.co2     1 <0>        -0.6236
     35 O4         -2.9293    1.6971    1.3542 O.3       1 <0>        -0.5296
     36 O5         -3.0191    3.7278    3.0055 O.3       1 <0>        -0.5423
     37 C24         0.4659    9.9137    8.7723 C.3       1 <0>        -0.1412
     38 H9         -0.3331    0.3151    8.0015 H         1 <0>         0.0579
     39 H10        -0.8676    0.7876    6.3707 H         1 <0>         0.0632
     40 H11         0.8234    1.0460    6.8628 H         1 <0>         0.0588
     41 H12         0.0781    2.6965    8.5567 H         1 <0>         0.0661
     42 H13        -1.6128    2.4381    8.0645 H         1 <0>         0.0705
     43 H14         1.6563    3.8601    7.0775 H         1 <0>         0.0574
     44 H15         1.4127    2.5780    5.8670 H         1 <0>         0.0770
     45 H16         1.1897    4.2846    5.4130 H         1 <0>         0.0681
     46 H17         0.1981    7.2329    8.3284 H         1 <0>         0.0720
     47 H18         0.6695    8.0069    6.7934 H         1 <0>         0.0754
     48 H19        -0.9649   11.0886    6.8532 H         1 <0>         0.1141
     49 H20        -2.4323   10.3246    2.5830 H         1 <0>         0.1049
     50 H21        -2.0218   11.3439    4.6831 H         1 <0>         0.1170
     51 H22        -4.0386    7.8337    4.1366 H         1 <0>         0.0541
     52 H23        -4.1380    8.1678    2.3911 H         1 <0>         0.0522
     53 H24        -3.5408    6.5916    2.9629 H         1 <0>         0.0767
     54 H25        -2.5108    5.7059    4.5858 H         1 <0>         0.0641
     55 H26        -0.7506    5.4645    4.6947 H         1 <0>         0.1071
     56 H27        -0.5449    5.8636    2.2561 H         1 <0>         0.0659
     57 H28        -2.3051    6.1051    2.1471 H         1 <0>         0.0743
     58 H29        -0.5819    4.0061    0.7191 H         1 <0>         0.0736
     59 H30        -2.3448    4.1096    0.4960 H         1 <0>         0.0621
     60 H31        -0.3797    2.1291   -0.7808 H         1 <0>         0.0672
     61 H32        -2.1276    2.0932   -1.1154 H         1 <0>         0.0624
     62 H33        -3.6392    2.0587    0.8061 H         1 <0>         0.3518
     63 H34        -3.7319    4.1528    2.5090 H         1 <0>         0.3626
     64 H35         1.3056   10.0820    8.0980 H         1 <0>         0.0570
     65 H36         0.0996   10.8712    9.1425 H         1 <0>         0.0577
     66 H37         0.7917    9.3000    9.6122 H         1 <0>         0.0575
     67 O6         -1.0532   -0.3855   -1.7269 O.co2     1 <0>        -0.7837
@<TRIPOS>BOND
     1    1    2 1
     2    1   38 1
     3    1   39 1
     4    1   40 1
     5    2    3 1
     6    2   41 1
     7    2   42 1
     8    3    4 1
     9    3    5 1
    10    3    6 1
    11    5   43 1
    12    5   44 1
    13    5   45 1
    14    6    7 2
    15    6    8 1
    16    8    9 1
    17    9   10 1
    18    9   16 1
    19    9   11 1
    20   11   12 1
    21   11   46 1
    22   11   47 1
    23   12   13 1
    24   12   14 1
    25   12   37 1
    26   14   15 2
    27   14   48 1
    28   15   23 1
    29   15   16 1
    30   16   17 1
    31   16   18 1
    32   18   19 1
    33   18   20 1
    34   18   25 1
    35   20   21 1
    36   20   22 1
    37   20   24 1
    38   22   23 2
    39   22   49 1
    40   23   50 1
    41   24   51 1
    42   24   52 1
    43   24   53 1
    44   25   26 1
    45   25   54 1
    46   25   55 1
    47   26   27 1
    48   26   56 1
    49   26   57 1
    50   27   28 1
    51   27   29 1
    52   27   36 1
    53   29   30 1
    54   29   58 1
    55   29   59 1
    56   30   31 1
    57   30   32 1
    58   30   35 1
    59   32   33 1
    60   32   60 1
    61   32   61 1
    62   33   34 2
    63   33   67 1
    64   35   62 1
    65   36   63 1
    66   37   64 1
    67   37   65 1
    68   37   66 1
@<TRIPOS>MOLECULE
ZINC26188606
   67    68     0     0     0
SMALL
USER_CHARGES
(3R,5S)-7-[(1S,2S,6R,8S,8aR)-2,6-dimethyl-8-[(2S)-2-methylbutanoyl]oxy-1,2,6,7,8,8a-hexahydronaphthalen-1-yl]-3,5-dihydroxy-heptanoic acid
@<TRIPOS>ATOM
      1 C1         -4.3613    5.2410    1.9352 C.3       1 <0>        -0.1556
      2 C2         -3.5863    4.5439    0.8153 C.3       1 <0>        -0.1091
      3 C3         -2.6778    3.4694    1.4160 C.3       1 <0>        -0.0847
      4 H1         -3.2749    2.7689    2.0184 H         1 <0>         0.1173
      5 C4         -1.6135    4.1330    2.2923 C.3       1 <0>        -0.1414
      6 C5         -2.0072    2.7008    0.3067 C.2       1 <0>         0.4522
      7 O1         -2.2328    2.9835   -0.8462 O.2       1 <0>        -0.5158
      8 O2         -1.1593    1.7022    0.5993 O.3       1 <0>        -0.3153
      9 C6         -0.5500    1.0056   -0.5196 C.3       1 <0>         0.0871
     10 H2         -1.2603    1.0049   -1.3595 H         1 <0>         0.0817
     11 C7          0.7261    1.7395   -0.9265 C.3       1 <0>        -0.1281
     12 C8          1.3906    0.9989   -2.0685 C.3       1 <0>        -0.0575
     13 H3          0.7049    0.9388   -2.9266 H         1 <0>         0.0813
     14 C9          1.7332   -0.3879   -1.5891 C.2       1 <0>        -0.1478
     15 C10         0.9849   -1.0019   -0.6915 C.2       1 <0>        -0.0785
     16 C11        -0.2746   -0.4240   -0.1174 C.3       1 <0>        -0.0426
     17 H4         -1.1209   -0.9757   -0.5526 H         1 <0>         0.0825
     18 C12        -0.2013   -0.5863    1.4027 C.3       1 <0>        -0.0573
     19 H5          0.7028   -0.0917    1.7873 H         1 <0>         0.0750
     20 C13        -0.1787   -2.0840    1.7317 C.3       1 <0>        -0.0649
     21 H6          0.0588   -2.2074    2.7986 H         1 <0>         0.0835
     22 C14         0.8828   -2.7902    0.9447 C.2       1 <0>        -0.1343
     23 C15         1.4203   -2.3167   -0.1662 C.2       1 <0>        -0.1316
     24 C16        -1.5376   -2.7093    1.4103 C.3       1 <0>        -0.1530
     25 C17        -1.4375    0.0451    2.0463 C.3       1 <0>        -0.1115
     26 C18        -1.6381   -0.5389    3.4461 C.3       1 <0>        -0.1257
     27 C19        -2.8742    0.0924    4.0898 C.3       1 <0>         0.1236
     28 H7         -3.7484    0.0244    3.4256 H         1 <0>         0.0542
     29 C20        -3.1474   -0.5797    5.4368 C.3       1 <0>        -0.1431
     30 C21        -4.4523   -0.0364    6.0225 C.3       1 <0>         0.1367
     31 H8         -4.4541    1.0635    6.0403 H         1 <0>         0.0470
     32 C22        -4.6620   -0.6144    7.4236 C.3       1 <0>        -0.1916
     33 C23        -5.8809    0.0137    8.0488 C.2       1 <0>         0.4626
     34 O3         -6.5166    0.8389    7.4366 O.co2     1 <0>        -0.6448
     35 O4         -6.2603   -0.3437    9.2857 O.co2     1 <0>        -0.7708
     36 O5         -5.5451   -0.4144    5.1829 O.3       1 <0>        -0.6116
     37 O6         -2.6455    1.4885    4.2918 O.3       1 <0>        -0.5990
     38 C24         2.6650    1.7286   -2.4979 C.3       1 <0>        -0.1424
     39 H9         -5.0145    6.0135    1.5032 H         1 <0>         0.0566
     40 H10        -3.6531    5.7089    2.6349 H         1 <0>         0.0601
     41 H11        -4.9735    4.5018    2.4726 H         1 <0>         0.0612
     42 H12        -4.2945    4.0760    0.1156 H         1 <0>         0.0687
     43 H13        -2.9741    5.2831    0.2779 H         1 <0>         0.0658
     44 H14        -0.9603    3.3605    2.7242 H         1 <0>         0.0743
     45 H15        -2.1029    4.6940    3.1021 H         1 <0>         0.0747
     46 H16        -1.0121    4.8216    1.6806 H         1 <0>         0.0510
     47 H17         0.4749    2.7610   -1.2482 H         1 <0>         0.0708
     48 H18         1.4131    1.7838   -0.0685 H         1 <0>         0.0754
     49 H19         2.6226   -0.8887   -1.9991 H         1 <0>         0.1154
     50 H20         1.2119   -3.7606    1.3448 H         1 <0>         0.1069
     51 H21         2.1881   -2.8986   -0.6972 H         1 <0>         0.1180
     52 H22        -1.5129   -3.7828    1.6490 H         1 <0>         0.0542
     53 H23        -1.7587   -2.5764    0.3410 H         1 <0>         0.0543
     54 H24        -2.3182   -2.2182    2.0099 H         1 <0>         0.0765
     55 H25        -1.2971    1.1336    2.1198 H         1 <0>         0.1168
     56 H26        -2.3224   -0.1696    1.4291 H         1 <0>         0.0519
     57 H27        -1.7785   -1.6274    3.3726 H         1 <0>         0.0819
     58 H28        -0.7532   -0.3242    4.0633 H         1 <0>         0.0644
     59 H29        -3.2346   -1.6668    5.2932 H         1 <0>         0.0693
     60 H30        -2.3185   -0.3665    6.1278 H         1 <0>         0.0762
     61 H31        -4.8054   -1.7028    7.3536 H         1 <0>         0.0704
     62 H32        -3.7797   -0.4000    8.0445 H         1 <0>         0.0686
     63 H33        -6.5699   -0.1120    5.4445 H         1 <0>         0.4158
     64 H34        -3.4277    2.1137    4.7470 H         1 <0>         0.4011
     65 H35         3.1386    1.1823   -3.3269 H         1 <0>         0.0581
     66 H36         3.3615    1.7811   -1.6481 H         1 <0>         0.0572
     67 H37         2.4111    2.7469   -2.8274 H         1 <0>         0.0574
@<TRIPOS>BOND
     1    1    2 1
     2    1   39 1
     3    1   40 1
     4    1   41 1
     5    2    3 1
     6    2   42 1
     7    2   43 1
     8    3    4 1
     9    3    5 1
    10    3    6 1
    11    5   44 1
    12    5   45 1
    13    5   46 1
    14    6    7 2
    15    6    8 1
    16    8    9 1
    17    9   10 1
    18    9   16 1
    19    9   11 1
    20   11   12 1
    21   11   47 1
    22   11   48 1
    23   12   13 1
    24   12   14 1
    25   12   38 1
    26   14   15 2
    27   14   49 1
    28   15   23 1
    29   15   16 1
    30   16   17 1
    31   16   18 1
    32   18   19 1
    33   18   20 1
    34   18   25 1
    35   20   21 1
    36   20   22 1
    37   20   24 1
    38   22   23 2
    39   22   50 1
    40   23   51 1
    41   24   52 1
    42   24   53 1
    43   24   54 1
    44   25   26 1
    45   25   55 1
    46   25   56 1
    47   26   27 1
    48   26   57 1
    49   26   58 1
    50   27   28 1
    51   27   29 1
    52   27   37 1
    53   29   30 1
    54   29   59 1
    55   29   60 1
    56   30   31 1
    57   30   32 1
    58   30   36 1
    59   32   33 1
    60   32   61 1
    61   32   62 1
    62   33   34 2
    63   33   35 1
    64   36   63 1
    65   37   64 1
    66   38   65 1
    67   38   66 1
    68   38   67 1
@<TRIPOS>MOLECULE
ZINC04245612
   68    70     0     0     0
SMALL
USER_CHARGES
[8-[2-(4-hydroxy-6-oxo-tetrahydropyran-2-yl)ethyl]-3,7-dimethyl-1,2,3,7,8,8a-hexahydronaphthalen-1-yl] 2,2-dimethylbutanoate
@<TRIPOS>ATOM
      1 C1         -1.2889   -2.3084   -1.5960 C.3       1 <0>        -0.1544
      2 C2         -2.4735   -1.3433   -1.6747 C.3       1 <0>        -0.1045
      3 C3         -2.4986   -0.4635   -0.4232 C.3       1 <0>        -0.0556
      4 C4         -1.2469    0.4158   -0.3928 C.3       1 <0>        -0.1461
      5 C5         -2.5293   -1.3504    0.8231 C.3       1 <0>        -0.1429
      6 C6         -3.7260    0.4105   -0.4481 C.2       1 <0>         0.4583
      7 O1         -4.5233    0.3067   -1.3500 O.2       1 <0>        -0.5048
      8 O2         -3.9334    1.3043    0.5315 O.3       1 <0>        -0.3258
      9 C7         -5.0693    2.1961    0.3806 C.3       1 <0>         0.0986
     10 H1         -5.1124    2.5435   -0.6517 H         1 <0>         0.0780
     11 C8         -6.3502    1.4276    0.6985 C.3       1 <0>        -0.1332
     12 C9         -7.5394    2.3862    0.5466 C.3       1 <0>        -0.0594
     13 H2         -7.5596    2.7924   -0.4647 H         1 <0>         0.0841
     14 C10        -7.3589    3.5031    1.5418 C.2       1 <0>        -0.1350
     15 C11        -6.1546    3.9222    1.8833 C.2       1 <0>        -0.0893
     16 C12        -4.8845    3.3861    1.2924 C.3       1 <0>        -0.0410
     17 H3         -4.4328    4.1852    0.7046 H         1 <0>         0.0840
     18 C13        -3.9158    3.0836    2.4379 C.3       1 <0>        -0.0643
     19 H4         -4.3758    2.3770    3.1287 H         1 <0>         0.0764
     20 C14        -3.6014    4.3880    3.1722 C.3       1 <0>        -0.0623
     21 H5         -3.0516    4.1586    4.0850 H         1 <0>         0.0876
     22 C15        -4.8492    5.1371    3.5283 C.2       1 <0>        -0.1403
     23 C16        -6.0206    4.9443    2.9472 C.2       1 <0>        -0.1211
     24 C17        -2.7297    5.2685    2.2745 C.3       1 <0>        -0.1698
     25 C18        -2.6242    2.4880    1.8740 C.3       1 <0>        -0.1104
     26 C19        -1.4670    2.7813    2.8310 C.3       1 <0>        -0.1401
     27 C20        -0.3074    3.4060    2.0527 C.3       1 <0>         0.1047
     28 H6         -0.7004    4.0876    1.2982 H         1 <0>         0.0897
     29 C21         0.5990    4.1771    3.0162 C.3       1 <0>        -0.1564
     30 C22         1.7870    4.7565    2.2420 C.3       1 <0>         0.1085
     31 H7          1.4232    5.4296    1.4657 H         1 <0>         0.0660
     32 C23         2.5709    3.6063    1.5982 C.3       1 <0>        -0.2065
     33 C24         1.6045    2.7565    0.8029 C.2       1 <0>         0.4894
     34 O3          1.8457    2.4447   -0.3393 O.2       1 <0>        -0.4483
     35 O4          0.4657    2.3562    1.4059 O.3       1 <0>        -0.3648
     36 O5          2.6386    5.4729    3.1385 O.3       1 <0>        -0.5556
     37 C25        -8.8458    1.6430    0.8327 C.3       1 <0>        -0.1421
     38 H8         -1.4374   -2.9990   -0.7659 H         1 <0>         0.0586
     39 H9         -1.2154   -2.8701   -2.5273 H         1 <0>         0.0581
     40 H10        -0.3700   -1.7436   -1.4389 H         1 <0>         0.0602
     41 H11        -3.4015   -1.9116   -1.7380 H         1 <0>         0.0700
     42 H12        -2.3716   -0.7143   -2.5591 H         1 <0>         0.0685
     43 H13        -0.4098   -0.1575    0.0056 H         1 <0>         0.0718
     44 H14        -1.0114    0.7478   -1.4039 H         1 <0>         0.0583
     45 H15        -1.4277    1.2834    0.2417 H         1 <0>         0.0804
     46 H16        -2.5471   -0.7237    1.7147 H         1 <0>         0.0680
     47 H17        -3.4210   -1.9769    0.8014 H         1 <0>         0.0587
     48 H18        -1.6415   -1.9826    0.8412 H         1 <0>         0.0758
     49 H19        -6.4599    0.5938    0.0051 H         1 <0>         0.0798
     50 H20        -6.3092    1.0526    1.7211 H         1 <0>         0.0742
     51 H21        -8.2284    3.9683    1.9824 H         1 <0>         0.1160
     52 H22        -4.7877    5.8809    4.3089 H         1 <0>         0.1075
     53 H23        -6.8772    5.5296    3.2473 H         1 <0>         0.1188
     54 H24        -2.4694    6.1839    2.8059 H         1 <0>         0.0575
     55 H25        -1.8193    4.7300    2.0111 H         1 <0>         0.0753
     56 H26        -3.2792    5.5188    1.3671 H         1 <0>         0.0578
     57 H27        -2.7395    1.4098    1.7630 H         1 <0>         0.1067
     58 H28        -2.4132    2.9329    0.9016 H         1 <0>         0.0648
     59 H29        -1.8010    3.4739    3.6035 H         1 <0>         0.1044
     60 H30        -1.1348    1.8525    3.2948 H         1 <0>         0.0823
     61 H31         0.0344    4.9881    3.4763 H         1 <0>         0.0995
     62 H32         0.9635    3.5026    3.7910 H         1 <0>         0.0926
     63 H33         3.3364    4.0097    0.9353 H         1 <0>         0.1055
     64 H34         3.0393    3.0015    2.3746 H         1 <0>         0.1169
     65 H35         3.4130    5.8673    2.7145 H         1 <0>         0.3854
     66 H36        -9.6832    2.3361    0.7523 H         1 <0>         0.0593
     67 H37        -8.9709    0.8367    0.1101 H         1 <0>         0.0588
     68 H38        -8.8140    1.2268    1.8396 H         1 <0>         0.0572
@<TRIPOS>BOND
     1    1    2 1
     2    1   38 1
     3    1   39 1
     4    1   40 1
     5    2    3 1
     6    2   41 1
     7    2   42 1
     8    3    4 1
     9    3    5 1
    10    3    6 1
    11    4   43 1
    12    4   44 1
    13    4   45 1
    14    5   46 1
    15    5   47 1
    16    5   48 1
    17    6    7 2
    18    6    8 1
    19    8    9 1
    20    9   10 1
    21    9   16 1
    22    9   11 1
    23   11   12 1
    24   11   49 1
    25   11   50 1
    26   12   13 1
    27   12   14 1
    28   12   37 1
    29   14   15 2
    30   14   51 1
    31   15   23 1
    32   15   16 1
    33   16   17 1
    34   16   18 1
    35   18   19 1
    36   18   20 1
    37   18   25 1
    38   20   21 1
    39   20   22 1
    40   20   24 1
    41   22   23 2
    42   22   52 1
    43   23   53 1
    44   24   54 1
    45   24   55 1
    46   24   56 1
    47   25   26 1
    48   25   57 1
    49   25   58 1
    50   26   27 1
    51   26   59 1
    52   26   60 1
    53   27   28 1
    54   27   35 1
    55   27   29 1
    56   29   30 1
    57   29   61 1
    58   29   62 1
    59   30   31 1
    60   30   32 1
    61   30   36 1
    62   32   33 1
    63   32   63 1
    64   32   64 1
    65   33   34 2
    66   33   35 1
    67   36   65 1
    68   37   66 1
    69   37   67 1
    70   37   68 1
@<TRIPOS>MOLECULE
ZINC26504552
   68    70     0     0     0
SMALL
USER_CHARGES
[(1S,3R,7S,8S,8aS)-8-[2-[(2R,4R)-4-hydroxy-6-oxo-tetrahydropyran-2-yl]ethyl]-3,7-dimethyl-1,2,3,7,8,8a-hexahydronaphthalen-1-yl] 2,2-dimethylbutanoate
@<TRIPOS>ATOM
      1 C1          3.2533    8.2956   -4.7520 C.3       1 <0>        -0.1576
      2 C2          3.1581    7.8273   -3.2985 C.3       1 <0>        -0.1068
      3 C3          2.4944    6.4497   -3.2489 C.3       1 <0>        -0.0528
      4 C4          3.3304    5.4516   -4.0526 C.3       1 <0>        -0.1465
      5 C5          1.0899    6.5383   -3.8492 C.3       1 <0>        -0.1503
      6 C6          2.4007    5.9884   -1.8173 C.2       1 <0>         0.4640
      7 O1          2.8216    6.6897   -0.9279 O.2       1 <0>        -0.5051
      8 O2          1.8497    4.7986   -1.5302 O.3       1 <0>        -0.3382
      9 C7          1.7928    4.4192   -0.1299 C.3       1 <0>         0.0973
     10 H1          2.6629    4.8510    0.3863 H         1 <0>         0.0874
     11 C8          0.5075    4.9718    0.4824 C.3       1 <0>        -0.1334
     12 C9         -0.6862    4.3288   -0.2380 C.3       1 <0>        -0.0556
     13 H2         -1.6401    4.7237    0.1416 H         1 <0>         0.0766
     14 C10        -0.6188    2.8432    0.0069 C.2       1 <0>        -0.1446
     15 C11         0.5435    2.2280    0.1218 C.2       1 <0>        -0.0719
     16 C12         1.8688    2.9153   -0.0255 C.3       1 <0>        -0.0455
     17 H3          2.2778    2.6187   -1.0026 H         1 <0>         0.0917
     18 C13         2.7715    2.4603    1.1228 C.3       1 <0>        -0.0685
     19 H4          3.7375    2.9840    1.0713 H         1 <0>         0.0802
     20 C14         2.9893    0.9508    1.0056 C.3       1 <0>        -0.0588
     21 H5          3.5966    0.7509    0.1104 H         1 <0>         0.0831
     22 C15         1.6961    0.2154    0.8287 C.2       1 <0>        -0.1443
     23 C16         0.5718    0.7774    0.4191 C.2       1 <0>        -0.1279
     24 C17         3.6802    0.4466    2.2742 C.3       1 <0>        -0.1527
     25 C18         2.1010    2.7800    2.4605 C.3       1 <0>        -0.1183
     26 C19         0.9532    1.7979    2.7032 C.3       1 <0>        -0.1500
     27 C20         0.3800    2.0196    4.1043 C.3       1 <0>         0.1090
     28 H6          1.1797    1.9909    4.8590 H         1 <0>         0.0811
     29 C21        -0.6859    0.9594    4.3947 C.3       1 <0>        -0.1474
     30 C22        -1.2956    1.2175    5.7761 C.3       1 <0>         0.1144
     31 H7         -2.0227    0.4382    6.0482 H         1 <0>         0.0736
     32 C23        -1.9312    2.6131    5.7888 C.3       1 <0>        -0.2050
     33 C24        -0.8982    3.6123    5.3164 C.2       1 <0>         0.4968
     34 O3         -0.6818    4.6244    5.9398 O.2       1 <0>        -0.4586
     35 O4         -0.2257    3.3409    4.1784 O.3       1 <0>        -0.3735
     36 O5         -0.2729    1.1485    6.7718 O.3       1 <0>        -0.6001
     37 C25        -0.6019    4.6144   -1.7387 C.3       1 <0>        -0.1594
     38 H8          3.7305    9.2861   -4.7876 H         1 <0>         0.0600
     39 H9          2.2435    8.3594   -5.1835 H         1 <0>         0.0605
     40 H10         3.8543    7.5780   -5.3298 H         1 <0>         0.0604
     41 H11         4.1679    7.7635   -2.8670 H         1 <0>         0.0710
     42 H12         2.5571    8.5449   -2.7207 H         1 <0>         0.0712
     43 H13         2.8532    4.4611   -4.0169 H         1 <0>         0.0694
     44 H14         4.3402    5.3879   -3.6211 H         1 <0>         0.0604
     45 H15         3.3988    5.7883   -5.0976 H         1 <0>         0.0765
     46 H16         0.6128    5.5478   -3.8135 H         1 <0>         0.0735
     47 H17         1.1584    6.8749   -4.8942 H         1 <0>         0.0758
     48 H18         0.4888    7.2559   -3.2715 H         1 <0>         0.0608
     49 H19         0.4772    4.7269    1.5544 H         1 <0>         0.0925
     50 H20         0.4807    6.0641    0.3550 H         1 <0>         0.0705
     51 H21        -1.5546    2.2709    0.0898 H         1 <0>         0.1140
     52 H22         1.7202   -0.8589    1.0637 H         1 <0>         0.1128
     53 H23        -0.3363    0.1681    0.3007 H         1 <0>         0.1230
     54 H24         3.8405   -0.6390    2.1976 H         1 <0>         0.0577
     55 H25         3.0471    0.6631    3.1473 H         1 <0>         0.0665
     56 H26         4.6498    0.9532    2.3897 H         1 <0>         0.0594
     57 H27         2.8388    2.6894    3.2713 H         1 <0>         0.0661
     58 H28         1.7065    3.8065    2.4368 H         1 <0>         0.0749
     59 H29         0.1648    1.9630    1.9541 H         1 <0>         0.1112
     60 H30         1.3285    0.7673    2.6194 H         1 <0>         0.1073
     61 H31        -1.4740    1.0125    3.6292 H         1 <0>         0.0957
     62 H32        -0.2244   -0.0390    4.3771 H         1 <0>         0.0961
     63 H33        -2.8019    2.6256    5.1167 H         1 <0>         0.1156
     64 H34        -2.2536    2.8599    6.8111 H         1 <0>         0.1057
     65 H35        -0.5244    1.3087    7.8306 H         1 <0>         0.4158
     66 H36        -1.4594    4.1513   -2.2488 H         1 <0>         0.0486
     67 H37         0.3330    4.1958   -2.1396 H         1 <0>         0.0951
     68 H38        -0.6187    5.7014   -1.9066 H         1 <0>         0.0499
@<TRIPOS>BOND
     1    1    2 1
     2    1   38 1
     3    1   39 1
     4    1   40 1
     5    2    3 1
     6    2   41 1
     7    2   42 1
     8    3    4 1
     9    3    5 1
    10    3    6 1
    11    4   43 1
    12    4   44 1
    13    4   45 1
    14    5   46 1
    15    5   47 1
    16    5   48 1
    17    6    7 2
    18    6    8 1
    19    8    9 1
    20    9   10 1
    21    9   16 1
    22    9   11 1
    23   11   12 1
    24   11   49 1
    25   11   50 1
    26   12   13 1
    27   12   14 1
    28   12   37 1
    29   14   15 2
    30   14   51 1
    31   15   23 1
    32   15   16 1
    33   16   17 1
    34   16   18 1
    35   18   19 1
    36   18   20 1
    37   18   25 1
    38   20   21 1
    39   20   22 1
    40   20   24 1
    41   22   23 2
    42   22   52 1
    43   23   53 1
    44   24   54 1
    45   24   55 1
    46   24   56 1
    47   25   26 1
    48   25   57 1
    49   25   58 1
    50   26   27 1
    51   26   59 1
    52   26   60 1
    53   27   28 1
    54   27   35 1
    55   27   29 1
    56   29   30 1
    57   29   61 1
    58   29   62 1
    59   30   31 1
    60   30   32 1
    61   30   36 1
    62   32   33 1
    63   32   63 1
    64   32   64 1
    65   33   34 2
    66   33   35 1
    67   36   65 1
    68   37   66 1
    69   37   67 1
    70   37   68 1
@<TRIPOS>MOLECULE
ZINC26504557
   68    70     0     0     0
SMALL
USER_CHARGES
[(1S,3R,7S,8S,8aS)-8-[2-[(2S,4R)-4-hydroxy-6-oxo-tetrahydropyran-2-yl]ethyl]-3,7-dimethyl-1,2,3,7,8,8a-hexahydronaphthalen-1-yl] 2,2-dimethylbutanoate
@<TRIPOS>ATOM
      1 C1         -6.1170    6.9045   -5.5767 C.3       1 <0>        -0.1578
      2 C2         -5.6298    6.8889   -4.1264 C.3       1 <0>        -0.1066
      3 C3         -4.7322    5.6702   -3.9031 C.3       1 <0>        -0.0528
      4 C4         -3.5285    5.7440   -4.8446 C.3       1 <0>        -0.1469
      5 C5         -5.5254    4.3934   -4.1884 C.3       1 <0>        -0.1503
      6 C6         -4.2524    5.6548   -2.4746 C.2       1 <0>         0.4645
      7 O1         -4.5934    6.5289   -1.7133 O.2       1 <0>        -0.5054
      8 O2         -3.4462    4.6700   -2.0479 O.3       1 <0>        -0.3374
      9 C7         -3.0232    4.7192   -0.6598 C.3       1 <0>         0.0963
     10 H1         -2.9463    5.7729   -0.3535 H         1 <0>         0.0884
     11 C8         -4.0653    4.0094    0.2021 C.3       1 <0>        -0.1324
     12 C9         -4.1272    2.5371   -0.2291 C.3       1 <0>        -0.0571
     13 H2         -4.8930    1.9890    0.3393 H         1 <0>         0.0778
     14 C10        -2.7721    1.9291    0.0273 C.2       1 <0>        -0.1515
     15 C11        -1.6812    2.6520   -0.0926 C.2       1 <0>        -0.0687
     16 C12        -1.6600    4.0824   -0.5394 C.3       1 <0>        -0.0470
     17 H3         -1.2824    4.0920   -1.5725 H         1 <0>         0.0937
     18 C13        -0.7375    4.8643    0.3978 C.3       1 <0>        -0.0673
     19 H4         -0.7376    5.9288    0.1205 H         1 <0>         0.0810
     20 C14         0.6768    4.2934    0.2809 C.3       1 <0>        -0.0587
     21 H5          1.0705    4.5296   -0.7187 H         1 <0>         0.0827
     22 C15         0.6857    2.8010    0.4117 C.2       1 <0>        -0.1356
     23 C16        -0.3771    2.0338    0.2403 C.2       1 <0>        -0.1377
     24 C17         1.5505    4.8959    1.3830 C.3       1 <0>        -0.1554
     25 C18        -1.2291    4.7267    1.8402 C.3       1 <0>        -0.1202
     26 C19        -0.9123    3.3211    2.3550 C.3       1 <0>        -0.1474
     27 C20        -1.2687    3.2296    3.8401 C.3       1 <0>         0.1068
     28 H6         -2.3041    3.5594    4.0108 H         1 <0>         0.0762
     29 C21        -1.0629    1.7929    4.3281 C.3       1 <0>        -0.1479
     30 C22        -1.3697    1.7169    5.8269 C.3       1 <0>         0.1178
     31 H7         -2.4247    1.9480    6.0359 H         1 <0>         0.0628
     32 C23        -0.4238    2.6620    6.5778 C.3       1 <0>        -0.2040
     33 C24        -0.5170    4.0328    5.9447 C.2       1 <0>         0.4908
     34 O3         -0.6847    5.0198    6.6212 O.2       1 <0>        -0.4536
     35 O4         -0.4078    4.1215    4.6026 O.3       1 <0>        -0.3725
     36 O5         -1.1740    0.3785    6.2879 O.3       1 <0>        -0.5923
     37 C25        -4.4633    2.4464   -1.7190 C.3       1 <0>        -0.1601
     38 H8         -6.7624    7.7807   -5.7373 H         1 <0>         0.0601
     39 H9         -6.6873    5.9865   -5.7818 H         1 <0>         0.0606
     40 H10        -5.2516    6.9575   -6.2536 H         1 <0>         0.0606
     41 H11        -5.0595    7.8069   -3.9213 H         1 <0>         0.0711
     42 H12        -6.4952    6.8359   -3.4494 H         1 <0>         0.0711
     43 H13        -2.8832    4.8678   -4.6840 H         1 <0>         0.0696
     44 H14        -2.9582    6.6620   -4.6393 H         1 <0>         0.0606
     45 H15        -3.8787    5.7553   -5.8873 H         1 <0>         0.0768
     46 H16        -4.8800    3.5172   -4.0278 H         1 <0>         0.0735
     47 H17        -5.8757    4.4047   -5.2311 H         1 <0>         0.0761
     48 H18        -6.3908    4.3404   -3.5114 H         1 <0>         0.0608
     49 H19        -3.7752    4.0801    1.2608 H         1 <0>         0.0853
     50 H20        -5.0463    4.4858    0.0581 H         1 <0>         0.0727
     51 H21        -2.7012    0.8703    0.3171 H         1 <0>         0.1171
     52 H22         1.6552    2.3485    0.6675 H         1 <0>         0.1128
     53 H23        -0.2901    0.9423    0.3451 H         1 <0>         0.1240
     54 H24         2.5700    4.4900    1.3057 H         1 <0>         0.0559
     55 H25         1.1280    4.6412    2.3662 H         1 <0>         0.0747
     56 H26         1.5816    5.9896    1.2694 H         1 <0>         0.0582
     57 H27        -0.7235    5.4714    2.4725 H         1 <0>         0.0779
     58 H28        -2.3158    4.8936    1.8747 H         1 <0>         0.0659
     59 H29        -1.5006    2.5827    1.7905 H         1 <0>         0.1195
     60 H30         0.1599    3.1148    2.2218 H         1 <0>         0.1021
     61 H31        -1.7380    1.1193    3.7800 H         1 <0>         0.0974
     62 H32        -0.0201    1.4911    4.1505 H         1 <0>         0.0911
     63 H33        -0.7217    2.7148    7.6354 H         1 <0>         0.1053
     64 H34         0.6064    2.2833    6.5056 H         1 <0>         0.1171
     65 H35        -1.3475    0.1301    7.3454 H         1 <0>         0.4148
     66 H36        -4.5061    1.3897   -2.0215 H         1 <0>         0.0497
     67 H37        -3.6871    2.9636   -2.3021 H         1 <0>         0.0955
     68 H38        -5.4383    2.9207   -1.9045 H         1 <0>         0.0501
@<TRIPOS>BOND
     1    1    2 1
     2    1   38 1
     3    1   39 1
     4    1   40 1
     5    2    3 1
     6    2   41 1
     7    2   42 1
     8    3    4 1
     9    3    5 1
    10    3    6 1
    11    4   43 1
    12    4   44 1
    13    4   45 1
    14    5   46 1
    15    5   47 1
    16    5   48 1
    17    6    7 2
    18    6    8 1
    19    8    9 1
    20    9   10 1
    21    9   16 1
    22    9   11 1
    23   11   12 1
    24   11   49 1
    25   11   50 1
    26   12   13 1
    27   12   14 1
    28   12   37 1
    29   14   15 2
    30   14   51 1
    31   15   23 1
    32   15   16 1
    33   16   17 1
    34   16   18 1
    35   18   19 1
    36   18   20 1
    37   18   25 1
    38   20   21 1
    39   20   22 1
    40   20   24 1
    41   22   23 2
    42   22   52 1
    43   23   53 1
    44   24   54 1
    45   24   55 1
    46   24   56 1
    47   25   26 1
    48   25   57 1
    49   25   58 1
    50   26   27 1
    51   26   59 1
    52   26   60 1
    53   27   28 1
    54   27   35 1
    55   27   29 1
    56   29   30 1
    57   29   61 1
    58   29   62 1
    59   30   31 1
    60   30   32 1
    61   30   36 1
    62   32   33 1
    63   32   63 1
    64   32   64 1
    65   33   34 2
    66   33   35 1
    67   36   65 1
    68   37   66 1
    69   37   67 1
    70   37   68 1
@<TRIPOS>MOLECULE
ZINC08221125
   51    50     0     0     0
SMALL
USER_CHARGES
octadec-9-ynoic acid
@<TRIPOS>ATOM
      1 C1         16.8683    9.5010   -5.1052 C.3       1 <0>        -0.1542
      2 C2         16.1793   10.0319   -3.8465 C.3       1 <0>        -0.1256
      3 C3         14.7182    9.5781   -3.8350 C.3       1 <0>        -0.1221
      4 C4         14.0292   10.1090   -2.5762 C.3       1 <0>        -0.1203
      5 C5         12.5681    9.6552   -2.5647 C.3       1 <0>        -0.1215
      6 C6         11.8791   10.1861   -1.3060 C.3       1 <0>        -0.1198
      7 C7         10.4180    9.7323   -1.2945 C.3       1 <0>        -0.1159
      8 C8          9.7290   10.2632   -0.0357 C.3       1 <0>        -0.0034
      9 C9          8.3233    9.8267   -0.0246 C.1       1 <0>        -0.1988
     10 C10         7.2021    9.4785   -0.0158 C.1       1 <0>        -0.1777
     11 C11         5.7964    9.0420   -0.0047 C.3       1 <0>        -0.0088
     12 C12         5.7370    7.5131   -0.0124 C.3       1 <0>        -0.1145
     13 C13         4.2759    7.0594   -0.0009 C.3       1 <0>        -0.1194
     14 C14         4.2166    5.5306   -0.0085 C.3       1 <0>        -0.1195
     15 C15         2.7554    5.0768    0.0030 C.3       1 <0>        -0.1197
     16 C16         2.6961    3.5480   -0.0046 C.3       1 <0>        -0.0992
     17 C17         1.2350    3.0943    0.0069 C.3       1 <0>        -0.1582
     18 C18         1.1765    1.5884   -0.0006 C.2       1 <0>         0.4567
     19 O1          2.1986    0.9442   -0.0139 O.co2     1 <0>        -0.6426
     20 H1         16.8260    8.4119   -5.1107 H         1 <0>         0.0537
     21 H2         16.3604    9.8888   -5.9883 H         1 <0>         0.0532
     22 H3         17.9092    9.8243   -5.1134 H         1 <0>         0.0525
     23 H4         16.2216   11.1210   -3.8410 H         1 <0>         0.0597
     24 H5         16.6871    9.6441   -2.9634 H         1 <0>         0.0601
     25 H6         14.6759    8.4890   -3.8404 H         1 <0>         0.0613
     26 H7         14.2103    9.9659   -4.7181 H         1 <0>         0.0607
     27 H8         14.0715   11.1981   -2.5708 H         1 <0>         0.0603
     28 H9         14.5370    9.7212   -1.6931 H         1 <0>         0.0608
     29 H10        12.5258    8.5661   -2.5702 H         1 <0>         0.0624
     30 H11        12.0603   10.0430   -3.4478 H         1 <0>         0.0615
     31 H12        11.9214   11.2752   -1.3005 H         1 <0>         0.0627
     32 H13        12.3869    9.7983   -0.4229 H         1 <0>         0.0634
     33 H14        10.3757    8.6432   -1.2999 H         1 <0>         0.0662
     34 H15         9.9102   10.1201   -2.1776 H         1 <0>         0.0650
     35 H16         9.7713   11.3524   -0.0303 H         1 <0>         0.0822
     36 H17        10.2368    9.8755    0.8474 H         1 <0>         0.0829
     37 H18         5.2886    9.4297   -0.8878 H         1 <0>         0.0845
     38 H19         5.3056    9.4201    0.8920 H         1 <0>         0.0848
     39 H20         6.2449    7.1254    0.8707 H         1 <0>         0.0647
     40 H21         6.2279    7.1350   -0.9091 H         1 <0>         0.0646
     41 H22         3.7681    7.4471   -0.8840 H         1 <0>         0.0623
     42 H23         3.7851    7.4376    0.8959 H         1 <0>         0.0623
     43 H24         4.7244    5.1428    0.8746 H         1 <0>         0.0606
     44 H25         4.7074    5.1524   -0.9053 H         1 <0>         0.0605
     45 H26         2.2476    5.4646   -0.8801 H         1 <0>         0.0560
     46 H27         2.2646    5.4550    0.8998 H         1 <0>         0.0560
     47 H28         3.2039    3.1603    0.8785 H         1 <0>         0.0585
     48 H29         3.1869    3.1698   -0.9014 H         1 <0>         0.0585
     49 H30         0.7272    3.4820   -0.8762 H         1 <0>         0.0613
     50 H31         0.7441    3.4725    0.9036 H         1 <0>         0.0613
     51 O2         -0.0110    0.9628    0.0073 O.co2     1 <0>        -0.7801
@<TRIPOS>BOND
     1    1    2 1
     2    1   20 1
     3    1   21 1
     4    1   22 1
     5    2    3 1
     6    2   23 1
     7    2   24 1
     8    3    4 1
     9    3   25 1
    10    3   26 1
    11    4    5 1
    12    4   27 1
    13    4   28 1
    14    5    6 1
    15    5   29 1
    16    5   30 1
    17    6    7 1
    18    6   31 1
    19    6   32 1
    20    7    8 1
    21    7   33 1
    22    7   34 1
    23    8    9 1
    24    8   35 1
    25    8   36 1
    26    9   10 3
    27   10   11 1
    28   11   12 1
    29   11   37 1
    30   11   38 1
    31   12   13 1
    32   12   39 1
    33   12   40 1
    34   13   14 1
    35   13   41 1
    36   13   42 1
    37   14   15 1
    38   14   43 1
    39   14   44 1
    40   15   16 1
    41   15   45 1
    42   15   46 1
    43   16   17 1
    44   16   47 1
    45   16   48 1
    46   17   18 1
    47   17   49 1
    48   17   50 1
    49   18   19 2
    50   18   51 1
@<TRIPOS>MOLECULE
ZINC03812841
   65    67     0     0     0
SMALL
USER_CHARGES

@<TRIPOS>ATOM
      1 C1         -1.1954    0.9630    0.0052 C.3       1 <0>        -0.1531
      2 C2         -1.2210   -0.5519    0.2178 C.3       1 <0>        -0.1100
      3 C3         -0.1596   -0.9402    1.2491 C.3       1 <0>        -0.0847
      4 H1         -0.3169   -0.3700    2.1647 H         1 <0>         0.1064
      5 C4          1.2311   -0.6334    0.6899 C.3       1 <0>        -0.1469
      6 C5         -0.2664   -2.4130    1.5498 C.2       1 <0>         0.4519
      7 O1         -1.1054   -3.0833    0.9961 O.2       1 <0>        -0.5033
      8 O2          0.5705   -2.9801    2.4328 O.3       1 <0>        -0.3188
      9 C6          0.4124   -4.3805    2.6694 C.3       1 <0>         0.0910
     10 H2         -0.6343   -4.6481    2.5247 H         1 <0>         0.0830
     11 C7          1.2657   -5.1530    1.6656 C.3       1 <0>        -0.1281
     12 C8          1.1077   -6.6534    1.9504 C.3       1 <0>        -0.0594
     13 H3          0.0560   -6.9329    1.8878 H         1 <0>         0.0842
     14 C9          1.6229   -6.9102    3.3434 C.2       1 <0>        -0.1384
     15 C10         1.4968   -5.9994    4.2906 C.2       1 <0>        -0.0860
     16 C11         0.8040   -4.6845    4.0951 C.3       1 <0>        -0.0441
     17 H4         -0.1122   -4.7131    4.6849 H         1 <0>         0.0831
     18 C12         1.6831   -3.5881    4.6998 C.3       1 <0>        -0.0600
     19 H5          2.6665   -3.6071    4.2300 H         1 <0>         0.0742
     20 C13         1.8261   -3.8474    6.2006 C.3       1 <0>        -0.0604
     21 H6          2.5865   -3.1798    6.6057 H         1 <0>         0.0818
     22 C14         2.2196   -5.2650    6.4840 C.2       1 <0>        -0.1379
     23 C15         2.0671   -6.2619    5.6320 C.2       1 <0>        -0.1243
     24 C16         0.4900   -3.5557    6.8867 C.3       1 <0>        -0.1566
     25 C17         1.0312   -2.2229    4.4711 C.3       1 <0>        -0.1183
     26 C18         1.6186   -1.2065    5.4522 C.3       1 <0>        -0.1334
     27 C19         0.9668    0.1587    5.2235 C.3       1 <0>         0.1101
     28 H7          1.0824    0.4467    4.1786 H         1 <0>         0.0840
     29 C20         1.6393    1.2027    6.1189 C.3       1 <0>        -0.1541
     30 C21         0.9568    2.5595    5.9177 C.3       1 <0>         0.1044
     31 H8          1.4246    3.3028    6.5632 H         1 <0>         0.0784
     32 C22        -0.5280    2.4263    6.2794 C.3       1 <0>        -0.2056
     33 C23        -1.0995    1.2524    5.5148 C.2       1 <0>         0.4949
     34 O3         -2.1296    1.3583    4.8922 O.2       1 <0>        -0.4528
     35 O4         -0.4261    0.0837    5.5474 O.3       1 <0>        -0.3661
     36 O5          1.0851    2.9622    4.5526 O.3       1 <0>        -0.5628
     37 C24         1.9207   -7.4623    0.9377 C.3       1 <0>        -0.1421
     38 H9         -0.2114    1.2627   -0.3556 H         1 <0>         0.0586
     39 H10        -1.9515    1.2396   -0.7296 H         1 <0>         0.0599
     40 H11        -1.4049    1.4660    0.9492 H         1 <0>         0.0569
     41 H12        -2.2049   -0.8516    0.5786 H         1 <0>         0.0720
     42 H13        -1.0115   -1.0549   -0.7262 H         1 <0>         0.0701
     43 H14         1.9873   -0.9100    1.4246 H         1 <0>         0.0683
     44 H15         1.3885   -1.2035   -0.2257 H         1 <0>         0.0609
     45 H16         1.3084    0.4319    0.4724 H         1 <0>         0.0750
     46 H17         0.9289   -4.9342    0.6523 H         1 <0>         0.0718
     47 H18         2.3116   -4.8665    1.7755 H         1 <0>         0.0758
     48 H19         2.1012   -7.8517    3.5697 H         1 <0>         0.1157
     49 H20         2.6523   -5.4861    7.4485 H         1 <0>         0.1061
     50 H21         2.3619   -7.2630    5.9101 H         1 <0>         0.1183
     51 H22        -0.2805   -4.2064    6.4733 H         1 <0>         0.0552
     52 H23         0.5838   -3.7383    7.9572 H         1 <0>         0.0534
     53 H24         0.2149   -2.5145    6.7184 H         1 <0>         0.0768
     54 H25         1.2237   -1.8950    3.4495 H         1 <0>         0.1085
     55 H26        -0.0441   -2.3025    4.6307 H         1 <0>         0.0668
     56 H27         1.4262   -1.5344    6.4738 H         1 <0>         0.0876
     57 H28         2.6939   -1.1270    5.2926 H         1 <0>         0.0852
     58 H29         1.5473    0.9005    7.1621 H         1 <0>         0.0948
     59 H30         2.6937    1.2833    5.8548 H         1 <0>         0.0977
     60 H31        -0.6311    2.2524    7.3505 H         1 <0>         0.1174
     61 H32        -1.0570    3.3380    6.0021 H         1 <0>         0.1069
     62 H33         0.6746    3.8148    4.3538 H         1 <0>         0.3858
     63 H34         2.9731   -7.1897    1.0159 H         1 <0>         0.0574
     64 H35         1.8045   -8.5260    1.1451 H         1 <0>         0.0592
     65 H36         1.5636   -7.2474   -0.0695 H         1 <0>         0.0581
@<TRIPOS>BOND
     1    1    2 1
     2    1   38 1
     3    1   39 1
     4    1   40 1
     5    2    3 1
     6    2   41 1
     7    2   42 1
     8    3    4 1
     9    3    5 1
    10    3    6 1
    11    5   43 1
    12    5   44 1
    13    5   45 1
    14    6    7 2
    15    6    8 1
    16    8    9 1
    17    9   10 1
    18    9   16 1
    19    9   11 1
    20   11   12 1
    21   11   46 1
    22   11   47 1
    23   12   13 1
    24   12   14 1
    25   12   37 1
    26   14   15 2
    27   14   48 1
    28   15   23 1
    29   15   16 1
    30   16   17 1
    31   16   18 1
    32   18   19 1
    33   18   20 1
    34   18   25 1
    35   20   21 1
    36   20   22 1
    37   20   24 1
    38   22   23 2
    39   22   49 1
    40   23   50 1
    41   24   51 1
    42   24   52 1
    43   24   53 1
    44   25   26 1
    45   25   54 1
    46   25   55 1
    47   26   27 1
    48   26   56 1
    49   26   57 1
    50   27   28 1
    51   27   35 1
    52   27   29 1
    53   29   30 1
    54   29   58 1
    55   29   59 1
    56   30   31 1
    57   30   32 1
    58   30   36 1
    59   32   33 1
    60   32   60 1
    61   32   61 1
    62   33   34 2
    63   33   35 1
    64   36   62 1
    65   37   63 1
    66   37   64 1
    67   37   65 1
@<TRIPOS>MOLECULE
ZINC00001669
   19    18     0     0     0
SMALL
USER_CHARGES

@<TRIPOS>ATOM
      1 C1         -0.1253    1.5184    0.0842 C.3       1 <0>        -0.1383
      2 C2          0.0008   -0.0042    0.0029 C.3       1 <0>         0.1783
      3 C3          0.8475   -0.5091    1.1729 C.3       1 <0>        -0.2122
      4 C4          0.9697   -2.0091    1.0942 C.2       1 <0>         0.4960
      5 O1          0.5088   -2.6089    0.1379 O.co2     1 <0>        -0.6847
      6 O2          1.5294   -2.6228    1.9866 O.co2     1 <0>        -0.7187
      7 C5         -1.3911   -0.6356    0.0708 C.3       1 <0>        -0.2132
      8 C6         -2.2251   -0.1383   -1.0817 C.2       1 <0>         0.4991
      9 O3         -1.7502    0.6482   -1.8831 O.co2     1 <0>        -0.6867
     10 O4         -3.3748   -0.5225   -1.2127 O.co2     1 <0>        -0.7314
     11 O5          0.6279   -0.3650   -1.2295 O.3       1 <0>        -0.5615
     12 H1          0.8671    1.9612    0.1688 H         1 <0>         0.0280
     13 H2         -0.6139    1.8911   -0.8160 H         1 <0>         0.0947
     14 H3         -0.7189    1.7876    0.9578 H         1 <0>         0.0378
     15 H4          1.8398   -0.0607    1.1235 H         1 <0>         0.0532
     16 H5          0.3701   -0.2323    2.1129 H         1 <0>         0.0540
     17 H6         -1.3013   -1.7204    0.0128 H         1 <0>         0.0928
     18 H7         -1.8695   -0.3604    1.0108 H         1 <0>         0.0386
     19 H8          0.7407   -1.3180   -1.3492 H         1 <0>         0.3745
@<TRIPOS>BOND
     1    1    2 1
     2    1   12 1
     3    1   13 1
     4    1   14 1
     5    2    3 1
     6    2    7 1
     7    2   11 1
     8    3    4 1
     9    3   15 1
    10    3   16 1
    11    4    5 2
    12    4    6 1
    13    7    8 1
    14    7   17 1
    15    7   18 1
    16    8    9 2
    17    8   10 1
    18   11   19 1
@<TRIPOS>MOLECULE
ZINC04245664
   65    67     0     0     0
SMALL
USER_CHARGES
[8-[2-(4-hydroxy-6-oxo-tetrahydropyran-2-yl)ethyl]-3,7-dimethyl-1,2,3,7,8,8a-hexahydronaphthalen-1-yl] 2-methylbutanoate
@<TRIPOS>ATOM
      1 C1          7.4383   -2.8201    0.2328 C.3       1 <0>        -0.1542
      2 C2          6.2684   -2.0487   -0.3814 C.3       1 <0>        -0.1070
      3 C3          5.6913   -1.0851    0.6576 C.3       1 <0>        -0.0848
      4 H1          6.4878   -0.4511    1.0470 H         1 <0>         0.1135
      5 C4          5.0690   -1.8844    1.8043 C.3       1 <0>        -0.1407
      6 C5          4.6346   -0.2254    0.0131 C.2       1 <0>         0.4513
      7 O1          4.3054   -0.4291   -1.1314 O.2       1 <0>        -0.5077
      8 O2          4.0592    0.7666    0.7106 O.3       1 <0>        -0.3229
      9 C6          2.9662    1.4755    0.0693 C.3       1 <0>         0.0919
     10 H2          3.1662    1.5397   -1.0002 H         1 <0>         0.0834
     11 C7          1.6719    0.6945    0.2868 C.3       1 <0>        -0.1286
     12 C8          0.5252    1.4624   -0.3850 C.3       1 <0>        -0.0593
     13 H3          0.7377    1.5912   -1.4463 H         1 <0>         0.0844
     14 C9          0.4216    2.8096    0.2821 C.2       1 <0>        -0.1367
     15 C10         1.4924    3.4168    0.7589 C.2       1 <0>        -0.0885
     16 C11         2.8848    2.8720    0.6389 C.3       1 <0>        -0.0419
     17 H4          3.4241    3.5358   -0.0368 H         1 <0>         0.0835
     18 C12         3.5554    2.9698    2.0111 C.3       1 <0>        -0.0608
     19 H5          2.9643    2.4241    2.7466 H         1 <0>         0.0757
     20 C13         3.6396    4.4436    2.4117 C.3       1 <0>        -0.0624
     21 H6          3.9586    4.5117    3.4518 H         1 <0>         0.0834
     22 C14         2.3189    5.1346    2.2593 C.2       1 <0>        -0.1394
     23 C15         1.3306    4.6863    1.5049 C.2       1 <0>        -0.1225
     24 C16         4.6739    5.1429    1.5274 C.3       1 <0>        -0.1559
     25 C17         4.9623    2.3731    1.9385 C.3       1 <0>        -0.1152
     26 C18         5.8061    2.9142    3.0944 C.3       1 <0>        -0.1334
     27 C19         7.2482    2.4250    2.9457 C.3       1 <0>         0.1107
     28 H7          7.6300    2.7095    1.9652 H         1 <0>         0.0806
     29 C20         8.1177    3.0568    4.0363 C.3       1 <0>        -0.1541
     30 C21         9.5488    2.5239    3.9168 C.3       1 <0>         0.1085
     31 H8          9.9518    2.7774    2.9363 H         1 <0>         0.0661
     32 C22         9.5288    0.9997    4.0852 C.3       1 <0>        -0.2063
     33 C23         8.5183    0.4258    3.1166 C.2       1 <0>         0.4896
     34 O3          8.8054   -0.4995    2.3946 O.2       1 <0>        -0.4464
     35 O4          7.2869    0.9767    3.0826 O.3       1 <0>        -0.3653
     36 O5         10.3630    3.1071    4.9362 O.3       1 <0>        -0.5561
     37 C24        -0.7863    0.6945   -0.2086 C.3       1 <0>        -0.1423
     38 H9          7.0717   -3.4538    1.0403 H         1 <0>         0.0550
     39 H10         7.9060   -3.4402   -0.5319 H         1 <0>         0.0551
     40 H11         8.1706   -2.1158    0.6275 H         1 <0>         0.0679
     41 H12         5.4954   -2.7502   -0.6951 H         1 <0>         0.0672
     42 H13         6.6190   -1.4841   -1.2453 H         1 <0>         0.0670
     43 H14         4.6579   -1.1979    2.5444 H         1 <0>         0.0669
     44 H15         4.2725   -2.5184    1.4148 H         1 <0>         0.0564
     45 H16         5.8333   -2.5062    2.2704 H         1 <0>         0.0733
     46 H17         1.4748    0.6004    1.3547 H         1 <0>         0.0760
     47 H18         1.7609   -0.2963   -0.1588 H         1 <0>         0.0726
     48 H19        -0.5430    3.2878    0.3674 H         1 <0>         0.1159
     49 H20         2.1650    6.0571    2.7994 H         1 <0>         0.1070
     50 H21         0.4083    5.2436    1.4326 H         1 <0>         0.1185
     51 H22         4.3725    5.0630    0.4830 H         1 <0>         0.0572
     52 H23         4.7396    6.1944    1.8072 H         1 <0>         0.0562
     53 H24         5.6465    4.6696    1.6621 H         1 <0>         0.0698
     54 H25         4.9006    1.2872    2.0109 H         1 <0>         0.1173
     55 H26         5.4252    2.6483    0.9908 H         1 <0>         0.0583
     56 H27         5.7885    4.0039    3.0780 H         1 <0>         0.1006
     57 H28         5.3974    2.5584    4.0402 H         1 <0>         0.0791
     58 H29         8.1217    4.1401    3.9161 H         1 <0>         0.0982
     59 H30         7.7147    2.8011    5.0163 H         1 <0>         0.0915
     60 H31        10.5168    0.5935    3.8685 H         1 <0>         0.1055
     61 H32         9.2439    0.7469    5.1065 H         1 <0>         0.1164
     62 H33        11.2842    2.8134    4.9198 H         1 <0>         0.3854
     63 H34        -1.6015    1.2589   -0.6612 H         1 <0>         0.0595
     64 H35        -0.7054   -0.2787   -0.6929 H         1 <0>         0.0584
     65 H36        -0.9862    0.5560    0.8539 H         1 <0>         0.0576
@<TRIPOS>BOND
     1    1    2 1
     2    1   38 1
     3    1   39 1
     4    1   40 1
     5    2    3 1
     6    2   41 1
     7    2   42 1
     8    3    4 1
     9    3    5 1
    10    3    6 1
    11    5   43 1
    12    5   44 1
    13    5   45 1
    14    6    7 2
    15    6    8 1
    16    8    9 1
    17    9   10 1
    18    9   16 1
    19    9   11 1
    20   11   12 1
    21   11   46 1
    22   11   47 1
    23   12   13 1
    24   12   14 1
    25   12   37 1
    26   14   15 2
    27   14   48 1
    28   15   23 1
    29   15   16 1
    30   16   17 1
    31   16   18 1
    32   18   19 1
    33   18   20 1
    34   18   25 1
    35   20   21 1
    36   20   22 1
    37   20   24 1
    38   22   23 2
    39   22   49 1
    40   23   50 1
    41   24   51 1
    42   24   52 1
    43   24   53 1
    44   25   26 1
    45   25   54 1
    46   25   55 1
    47   26   27 1
    48   26   56 1
    49   26   57 1
    50   27   28 1
    51   27   35 1
    52   27   29 1
    53   29   30 1
    54   29   58 1
    55   29   59 1
    56   30   31 1
    57   30   32 1
    58   30   36 1
    59   32   33 1
    60   32   60 1
    61   32   61 1
    62   33   34 2
    63   33   35 1
    64   36   62 1
    65   37   63 1
    66   37   64 1
    67   37   65 1
@<TRIPOS>MOLECULE
ZINC08681778
   65    67     0     0     0
SMALL
USER_CHARGES
[8-[2-(4-hydroxy-6-oxo-tetrahydropyran-2-yl)ethyl]-3,7-dimethyl-1,2,3,7,8,8a-hexahydronaphthalen-1-yl] 2-methylbutanoate
@<TRIPOS>ATOM
      1 C1          3.4239    5.8650   -8.6844 C.3       1 <0>        -0.1540
      2 C2          2.9607    5.7446   -7.2312 C.3       1 <0>        -0.1109
      3 C3          1.8916    4.6553   -7.1253 C.3       1 <0>        -0.0842
      4 H1          2.2802    3.7236   -7.5362 H         1 <0>         0.1072
      5 C4          0.6501    5.0810   -7.9118 C.3       1 <0>        -0.1507
      6 C5          1.5239    4.4514   -5.6781 C.2       1 <0>         0.4591
      7 O1          2.0618    5.1097   -4.8196 O.2       1 <0>        -0.5059
      8 O2          0.5988    3.5384   -5.3429 O.3       1 <0>        -0.3419
      9 C6          0.2948    3.3959   -3.9303 C.3       1 <0>         0.1026
     10 H2          1.1910    3.6197   -3.3518 H         1 <0>         0.0866
     11 C7         -0.8007    4.3916   -3.5548 C.3       1 <0>        -0.1358
     12 C8         -2.0588    4.0558   -4.3675 C.3       1 <0>        -0.0578
     13 H3         -2.8514    4.7657   -4.1315 H         1 <0>         0.0771
     14 C9         -2.4906    2.6623   -3.9902 C.2       1 <0>        -0.1457
     15 C10        -1.6081    1.7655   -3.6401 C.2       1 <0>        -0.0675
     16 C11        -0.1222    1.9697   -3.6586 C.3       1 <0>        -0.0429
     17 H4          0.2847    1.3493   -4.4571 H         1 <0>         0.0921
     18 C12         0.4474    1.4493   -2.3370 C.3       1 <0>        -0.0724
     19 H5          1.5235    1.6206   -2.3100 H         1 <0>         0.0807
     20 C13         0.1607   -0.0496   -2.2352 C.3       1 <0>        -0.0573
     21 H6          0.7832   -0.5805   -2.9555 H         1 <0>         0.0831
     22 C14        -1.2791   -0.3575   -2.5129 C.2       1 <0>        -0.1393
     23 C15        -2.0992    0.4537   -3.1581 C.2       1 <0>        -0.1291
     24 C16         0.5111   -0.5303   -0.8256 C.3       1 <0>        -0.1502
     25 C17        -0.2178    2.1795   -1.1685 C.3       1 <0>        -0.1171
     26 C18        -1.6840    1.7534   -1.0692 C.3       1 <0>        -0.1587
     27 C19        -2.3093    2.3664    0.1853 C.3       1 <0>         0.1081
     28 H7         -1.7174    2.0922    1.0586 H         1 <0>         0.0813
     29 C20        -3.7390    1.8442    0.3518 C.3       1 <0>        -0.1487
     30 C21        -4.3802    2.5017    1.5778 C.3       1 <0>         0.1042
     31 H8         -5.4001    2.1358    1.6965 H         1 <0>         0.0779
     32 C22        -4.4004    4.0218    1.3763 C.3       1 <0>        -0.2056
     33 C23        -2.9996    4.4760    1.0296 C.2       1 <0>         0.4944
     34 O3         -2.4858    5.4036    1.6088 O.2       1 <0>        -0.4570
     35 O4         -2.3406    3.8156    0.0547 O.3       1 <0>        -0.3700
     36 O5         -3.6192    2.1840    2.7449 O.3       1 <0>        -0.5638
     37 C24        -1.7404    4.1128   -5.8629 C.3       1 <0>        -0.1429
     38 H9          3.8412    4.9131   -9.0128 H         1 <0>         0.0563
     39 H10         2.5748    6.1267   -9.3159 H         1 <0>         0.0595
     40 H11         4.1856    6.6410   -8.7599 H         1 <0>         0.0604
     41 H12         2.5434    6.6965   -6.9028 H         1 <0>         0.0708
     42 H13         3.8098    5.4830   -6.5998 H         1 <0>         0.0717
     43 H14         0.9161    5.2285   -8.9585 H         1 <0>         0.0740
     44 H15        -0.1116    4.3050   -7.8363 H         1 <0>         0.0727
     45 H16         0.2615    6.0128   -7.5009 H         1 <0>         0.0608
     46 H17        -1.0195    4.3125   -2.4899 H         1 <0>         0.0937
     47 H18        -0.4722    5.4043   -3.7883 H         1 <0>         0.0710
     48 H19        -3.5408    2.4106   -3.9987 H         1 <0>         0.1139
     49 H20        -1.6715   -1.3012   -2.1637 H         1 <0>         0.1113
     50 H21        -3.1241    0.1614   -3.3329 H         1 <0>         0.1216
     51 H22        -0.1655   -0.0694   -0.1059 H         1 <0>         0.0624
     52 H23         0.4106   -1.6145   -0.7760 H         1 <0>         0.0572
     53 H24         1.5377   -0.2494   -0.5906 H         1 <0>         0.0593
     54 H25        -0.1625    3.2555   -1.3337 H         1 <0>         0.0733
     55 H26         0.2974    1.9272   -0.2417 H         1 <0>         0.0661
     56 H27        -2.2235    2.1000   -1.9506 H         1 <0>         0.1137
     57 H28        -1.7433    0.6666   -1.0109 H         1 <0>         0.1075
     58 H29        -4.3211    2.0882   -0.5368 H         1 <0>         0.0942
     59 H30        -3.7177    0.7628    0.4873 H         1 <0>         0.0962
     60 H31        -4.7278    4.5096    2.2945 H         1 <0>         0.1058
     61 H32        -5.0804    4.2759    0.5632 H         1 <0>         0.1167
     62 H33        -3.9659    2.5744    3.5588 H         1 <0>         0.3857
     63 H34        -1.1294    3.2529   -6.1374 H         1 <0>         0.0798
     64 H35        -2.6693    4.0952   -6.4331 H         1 <0>         0.0476
     65 H36        -1.1958    5.0308   -6.0838 H         1 <0>         0.0516
@<TRIPOS>BOND
     1    1    2 1
     2    1   38 1
     3    1   39 1
     4    1   40 1
     5    2    3 1
     6    2   41 1
     7    2   42 1
     8    3    4 1
     9    3    5 1
    10    3    6 1
    11    5   43 1
    12    5   44 1
    13    5   45 1
    14    6    7 2
    15    6    8 1
    16    8    9 1
    17    9   10 1
    18    9   16 1
    19    9   11 1
    20   11   12 1
    21   11   46 1
    22   11   47 1
    23   12   13 1
    24   12   14 1
    25   12   37 1
    26   14   15 2
    27   14   48 1
    28   15   23 1
    29   15   16 1
    30   16   17 1
    31   16   18 1
    32   18   19 1
    33   18   20 1
    34   18   25 1
    35   20   21 1
    36   20   22 1
    37   20   24 1
    38   22   23 2
    39   22   49 1
    40   23   50 1
    41   24   51 1
    42   24   52 1
    43   24   53 1
    44   25   26 1
    45   25   54 1
    46   25   55 1
    47   26   27 1
    48   26   56 1
    49   26   57 1
    50   27   28 1
    51   27   35 1
    52   27   29 1
    53   29   30 1
    54   29   58 1
    55   29   59 1
    56   30   31 1
    57   30   32 1
    58   30   36 1
    59   32   33 1
    60   32   60 1
    61   32   61 1
    62   33   34 2
    63   33   35 1
    64   36   62 1
    65   37   63 1
    66   37   64 1
    67   37   65 1
@<TRIPOS>MOLECULE
ZINC14984346
   65    67     0     0     0
SMALL
USER_CHARGES
[(1S,3R,7S,8S,8aS)-8-[2-[(2S,4R)-4-hydroxy-6-oxo-tetrahydropyran-2-yl]ethyl]-3,7-dimethyl-1,2,3,7,8,8a-hexahydronaphthalen-1-yl] (2S)-2-methylbutanoate
@<TRIPOS>ATOM
      1 C1         13.2545   -0.2167    2.7746 C.3       1 <0>        -0.1543
      2 C2         11.7800   -0.1335    2.3748 C.3       1 <0>        -0.1107
      3 C3         10.9670    0.4344    3.5399 C.3       1 <0>        -0.0845
      4 H1         11.3892    1.3918    3.8450 H         1 <0>         0.1076
      5 C4         11.0127   -0.5416    4.7173 C.3       1 <0>        -0.1507
      6 C5          9.5373    0.6313    3.1059 C.2       1 <0>         0.4597
      7 O1          9.2030    0.3467    1.9802 O.2       1 <0>        -0.5063
      8 O2          8.6353    1.1230    3.9698 O.3       1 <0>        -0.3411
      9 C6          7.2771    1.2861    3.4831 C.3       1 <0>         0.1021
     10 H2          7.3085    1.5098    2.4168 H         1 <0>         0.0879
     11 C7          6.5128   -0.0192    3.6945 C.3       1 <0>        -0.1347
     12 C8          6.4663   -0.3136    5.2002 C.3       1 <0>        -0.0572
     13 H3          5.9412   -1.2521    5.3778 H         1 <0>         0.0787
     14 C9          5.7285    0.8184    5.8670 C.2       1 <0>        -0.1541
     15 C10         5.7947    2.0478    5.3906 C.2       1 <0>        -0.0650
     16 C11         6.6303    2.4421    4.2090 C.3       1 <0>        -0.0471
     17 H4          7.4374    3.0769    4.5746 H         1 <0>         0.0924
     18 C12         5.7651    3.2912    3.2748 C.3       1 <0>        -0.0708
     19 H5          6.3393    3.5599    2.3882 H         1 <0>         0.0814
     20 C13         5.3390    4.5585    4.0177 C.3       1 <0>        -0.0575
     21 H6          6.2073    5.2049    4.1453 H         1 <0>         0.0829
     22 C14         4.7624    4.2430    5.3642 C.2       1 <0>        -0.1297
     23 C15         4.9649    3.1074    6.0095 C.2       1 <0>        -0.1353
     24 C16         4.2882    5.2957    3.1851 C.3       1 <0>        -0.1525
     25 C17         4.5244    2.4970    2.8614 C.3       1 <0>        -0.1188
     26 C18         3.6047    2.3213    4.0714 C.3       1 <0>        -0.1563
     27 C19         2.3023    1.6511    3.6291 C.3       1 <0>         0.1062
     28 H7          2.5285    0.7146    3.1192 H         1 <0>         0.0762
     29 C20         1.4303    1.3683    4.8554 C.3       1 <0>        -0.1500
     30 C21         0.1054    0.7460    4.4038 C.3       1 <0>         0.1085
     31 H8          0.3021   -0.1856    3.8732 H         1 <0>         0.0659
     32 C22        -0.6131    1.7270    3.4694 C.3       1 <0>        -0.2053
     33 C23         0.3459    2.1291    2.3707 C.2       1 <0>         0.4902
     34 O3          0.0137    2.0878    1.2098 O.2       1 <0>        -0.4522
     35 O4          1.5830    2.5357    2.7246 O.3       1 <0>        -0.3684
     36 O5         -0.7140    0.4850    5.5450 O.3       1 <0>        -0.5558
     37 C24         7.8893   -0.4030    5.7551 C.3       1 <0>        -0.1441
     38 H9         13.6207    0.7798    3.0216 H         1 <0>         0.0565
     39 H10        13.3595   -0.8678    3.6424 H         1 <0>         0.0596
     40 H11        13.8337   -0.6213    1.9446 H         1 <0>         0.0606
     41 H12        11.4138   -1.1300    2.1278 H         1 <0>         0.0707
     42 H13        11.6750    0.5176    1.5070 H         1 <0>         0.0718
     43 H14        12.0467   -0.6840    5.0312 H         1 <0>         0.0744
     44 H15        10.4334   -0.1370    5.5473 H         1 <0>         0.0728
     45 H16        10.5904   -1.4990    4.4122 H         1 <0>         0.0608
     46 H17         7.0232   -0.8315    3.1770 H         1 <0>         0.0732
     47 H18         5.4984    0.0825    3.3087 H         1 <0>         0.0855
     48 H19         5.1360    0.6208    6.7480 H         1 <0>         0.1153
     49 H20         4.1429    4.9905    5.8373 H         1 <0>         0.1118
     50 H21         4.5272    2.9527    6.9846 H         1 <0>         0.1228
     51 H22         3.3823    4.6924    3.1265 H         1 <0>         0.0699
     52 H23         4.0581    6.2521    3.6546 H         1 <0>         0.0556
     53 H24         4.6756    5.4678    2.1809 H         1 <0>         0.0582
     54 H25         4.8269    1.5180    2.4897 H         1 <0>         0.0647
     55 H26         3.9933    3.0354    2.0764 H         1 <0>         0.0772
     56 H27         3.3826    3.2970    4.5037 H         1 <0>         0.1014
     57 H28         4.0993    1.6980    4.8163 H         1 <0>         0.1233
     58 H29         1.2325    2.3009    5.3839 H         1 <0>         0.0900
     59 H30         1.9493    0.6769    5.5192 H         1 <0>         0.0976
     60 H31        -1.4886    1.2451    3.0343 H         1 <0>         0.1056
     61 H32        -0.9202    2.6099    4.0300 H         1 <0>         0.1165
     62 H33        -1.5736    0.0968    5.3315 H         1 <0>         0.3850
     63 H34         7.8609   -0.8159    6.7634 H         1 <0>         0.0490
     64 H35         8.4892   -1.0495    5.1145 H         1 <0>         0.0520
     65 H36         8.3318    0.5928    5.7826 H         1 <0>         0.0811
@<TRIPOS>BOND
     1    1    2 1
     2    1   38 1
     3    1   39 1
     4    1   40 1
     5    2    3 1
     6    2   41 1
     7    2   42 1
     8    3    4 1
     9    3    5 1
    10    3    6 1
    11    5   43 1
    12    5   44 1
    13    5   45 1
    14    6    7 2
    15    6    8 1
    16    8    9 1
    17    9   10 1
    18    9   16 1
    19    9   11 1
    20   11   12 1
    21   11   46 1
    22   11   47 1
    23   12   13 1
    24   12   14 1
    25   12   37 1
    26   14   15 2
    27   14   48 1
    28   15   23 1
    29   15   16 1
    30   16   17 1
    31   16   18 1
    32   18   19 1
    33   18   20 1
    34   18   25 1
    35   20   21 1
    36   20   22 1
    37   20   24 1
    38   22   23 2
    39   22   49 1
    40   23   50 1
    41   24   51 1
    42   24   52 1
    43   24   53 1
    44   25   26 1
    45   25   54 1
    46   25   55 1
    47   26   27 1
    48   26   56 1
    49   26   57 1
    50   27   28 1
    51   27   35 1
    52   27   29 1
    53   29   30 1
    54   29   58 1
    55   29   59 1
    56   30   31 1
    57   30   32 1
    58   30   36 1
    59   32   33 1
    60   32   60 1
    61   32   61 1
    62   33   34 2
    63   33   35 1
    64   36   62 1
    65   37   63 1
    66   37   64 1
    67   37   65 1
