@<TRIPOS>MOLECULE
ZINC03780893
   68    70     0     0     0
SMALL
USER_CHARGES

@<TRIPOS>ATOM
      1 C1          0.3974   -1.4467    1.3474 C.3       1 <0>        -0.1544
      2 C2          1.0352   -2.6689    0.6837 C.3       1 <0>        -0.1054
      3 C3          1.4028   -2.3302   -0.7623 C.3       1 <0>        -0.0533
      4 C4          0.1401   -1.9338   -1.5300 C.3       1 <0>        -0.1451
      5 C5          2.3952   -1.1659   -0.7769 C.3       1 <0>        -0.1507
      6 C6          2.0310   -3.5340   -1.4160 C.2       1 <0>         0.4575
      7 O1          2.2848   -4.5151   -0.7581 O.2       1 <0>        -0.5029
      8 O2          2.3085   -3.5163   -2.7292 O.3       1 <0>        -0.3195
      9 C7          2.8166   -4.7232   -3.3013 C.3       1 <0>         0.0961
     10 H1          3.5368   -5.1654   -2.6130 H         1 <0>         0.0786
     11 C8          1.6609   -5.7004   -3.5060 C.3       1 <0>        -0.1327
     12 C9          2.2174   -6.9798   -4.1468 C.3       1 <0>        -0.0588
     13 H2          2.9972   -7.4018   -3.5129 H         1 <0>         0.0840
     14 C10         2.7955   -6.6046   -5.4873 C.2       1 <0>        -0.1388
     15 C11         3.3557   -5.4245   -5.6766 C.2       1 <0>        -0.0859
     16 C12         3.5151   -4.3952   -4.5985 C.3       1 <0>        -0.0421
     17 H3          4.5808   -4.3174   -4.3833 H         1 <0>         0.0844
     18 C13         3.0798   -3.0417   -5.1636 C.3       1 <0>        -0.0595
     19 H4          2.0514   -3.1074   -5.5190 H         1 <0>         0.0733
     20 C14         4.0029   -2.6777   -6.3279 C.3       1 <0>        -0.0610
     21 H5          3.5964   -1.8087   -6.8453 H         1 <0>         0.0826
     22 C15         4.1387   -3.8072   -7.3028 C.2       1 <0>        -0.1375
     23 C16         3.8604   -5.0669   -7.0224 C.2       1 <0>        -0.1245
     24 C17         5.3865   -2.3275   -5.7767 C.3       1 <0>        -0.1623
     25 C18         3.1787   -1.9739   -4.0723 C.3       1 <0>        -0.1130
     26 C19         3.3578   -0.5989   -4.7190 C.3       1 <0>        -0.1430
     27 C20         3.9489    0.3728   -3.6956 C.3       1 <0>         0.1069
     28 H6          3.2707    0.4650   -2.8473 H         1 <0>         0.0868
     29 C21         4.1429    1.7450   -4.3464 C.3       1 <0>        -0.1541
     30 C22         4.7732    2.7039   -3.3313 C.3       1 <0>         0.1045
     31 H7          4.9246    3.6786   -3.7950 H         1 <0>         0.0783
     32 C23         6.1243    2.1328   -2.8823 C.3       1 <0>        -0.2058
     33 C24         5.9101    0.7040   -2.4329 C.2       1 <0>         0.4952
     34 O3          6.3486    0.3121   -1.3775 O.2       1 <0>        -0.4521
     35 O4          5.2152   -0.1203   -3.2440 O.3       1 <0>        -0.3644
     36 O5          3.9091    2.8404   -2.2013 O.3       1 <0>        -0.5628
     37 C25         1.0916   -7.9991   -4.3326 C.3       1 <0>        -0.1420
     38 H8          1.1044   -0.6172    1.3370 H         1 <0>         0.0592
     39 H9         -0.5022   -1.1643    0.8005 H         1 <0>         0.0594
     40 H10         0.1355   -1.6880    2.3776 H         1 <0>         0.0589
     41 H11         1.9347   -2.9513    1.2307 H         1 <0>         0.0722
     42 H12         0.3281   -3.4984    0.6942 H         1 <0>         0.0684
     43 H13        -0.3143   -1.0631   -1.0572 H         1 <0>         0.0753
     44 H14         0.4020   -1.6925   -2.5602 H         1 <0>         0.0696
     45 H15        -0.5669   -2.7633   -1.5196 H         1 <0>         0.0600
     46 H16         3.0916   -1.2715    0.0550 H         1 <0>         0.0638
     47 H17         2.9480   -1.1714   -1.7164 H         1 <0>         0.0724
     48 H18         1.8532   -0.2252   -0.6798 H         1 <0>         0.0739
     49 H19         1.2069   -5.9389   -2.5442 H         1 <0>         0.0741
     50 H20         0.9151   -5.2545   -4.1641 H         1 <0>         0.0749
     51 H21         2.7512   -7.3106   -6.3033 H         1 <0>         0.1156
     52 H22         4.4904   -3.5766   -8.2976 H         1 <0>         0.1060
     53 H23         3.9951   -5.8321   -7.7725 H         1 <0>         0.1181
     54 H24         5.7921   -3.1857   -5.2409 H         1 <0>         0.0546
     55 H25         6.0506   -2.0667   -6.6008 H         1 <0>         0.0514
     56 H26         5.3026   -1.4805   -5.0958 H         1 <0>         0.0864
     57 H27         2.2666   -1.9788   -3.4756 H         1 <0>         0.1007
     58 H28         4.0337   -2.1880   -3.4310 H         1 <0>         0.0730
     59 H29         4.0318   -0.6833   -5.5714 H         1 <0>         0.0956
     60 H30         2.3902   -0.2272   -5.0562 H         1 <0>         0.0833
     61 H31         4.7993    1.6479   -5.2111 H         1 <0>         0.0948
     62 H32         3.1767    2.1362   -4.6649 H         1 <0>         0.0976
     63 H33         6.8274    2.1547   -3.7149 H         1 <0>         0.1174
     64 H34         6.5160    2.7236   -2.0543 H         1 <0>         0.1066
     65 H35         4.2470    3.4348   -1.5174 H         1 <0>         0.3858
     66 H36         0.3226   -7.5773   -4.9798 H         1 <0>         0.0571
     67 H37         1.4929   -8.9047   -4.7877 H         1 <0>         0.0591
     68 H38         0.6573   -8.2417   -3.3627 H         1 <0>         0.0580
@<TRIPOS>BOND
     1    1    2 1
     2    1   38 1
     3    1   39 1
     4    1   40 1
     5    2    3 1
     6    2   41 1
     7    2   42 1
     8    3    4 1
     9    3    5 1
    10    3    6 1
    11    4   43 1
    12    4   44 1
    13    4   45 1
    14    5   46 1
    15    5   47 1
    16    5   48 1
    17    6    7 2
    18    6    8 1
    19    8    9 1
    20    9   10 1
    21    9   16 1
    22    9   11 1
    23   11   12 1
    24   11   49 1
    25   11   50 1
    26   12   13 1
    27   12   14 1
    28   12   37 1
    29   14   15 2
    30   14   51 1
    31   15   23 1
    32   15   16 1
    33   16   17 1
    34   16   18 1
    35   18   19 1
    36   18   20 1
    37   18   25 1
    38   20   21 1
    39   20   22 1
    40   20   24 1
    41   22   23 2
    42   22   52 1
    43   23   53 1
    44   24   54 1
    45   24   55 1
    46   24   56 1
    47   25   26 1
    48   25   57 1
    49   25   58 1
    50   26   27 1
    51   26   59 1
    52   26   60 1
    53   27   28 1
    54   27   35 1
    55   27   29 1
    56   29   30 1
    57   29   61 1
    58   29   62 1
    59   30   31 1
    60   30   32 1
    61   30   36 1
    62   32   33 1
    63   32   63 1
    64   32   64 1
    65   33   34 2
    66   33   35 1
    67   36   65 1
    68   37   66 1
    69   37   67 1
    70   37   68 1
@<TRIPOS>MOLECULE
ZINC01886617
   55    57     0     0     0
SMALL
USER_CHARGES

@<TRIPOS>ATOM
      1 C1          0.0134    1.4790    0.0510 C.3       1 <0>        -0.1670
      2 C2          0.0183   -0.0427   -0.1077 C.3       1 <0>         0.1306
      3 C3          0.8420   -0.6703    1.0185 C.3       1 <0>        -0.1668
      4 N1         -1.3566   -0.5446   -0.0453 N.pl3     1 <0>        -0.4669
      5 C4         -2.2080   -0.3832    1.0270 C.ar      1 <0>         0.1050
      6 C5         -2.0650    0.2378    2.2645 C.ar      1 <0>        -0.1288
      7 C6         -3.1156    0.2401    3.1558 C.ar      1 <0>        -0.1043
      8 C7         -4.3191   -0.3717    2.8332 C.ar      1 <0>        -0.1467
      9 C8         -4.4812   -0.9872    1.6239 C.ar      1 <0>        -0.0705
     10 C9         -3.4295   -1.0012    0.7060 C.ar      1 <0>        -0.0871
     11 C10        -3.2702   -1.5570   -0.6451 C.2       1 <0>        -0.1386
     12 C11        -1.9878   -1.2404   -1.0504 C.2       1 <0>         0.1435
     13 C12        -1.3922   -1.5938   -2.3457 C.2       1 <0>        -0.1299
     14 C13        -1.9850   -1.2159   -3.4762 C.2       1 <0>        -0.1279
     15 C14        -1.4424   -1.6802   -4.8032 C.3       1 <0>         0.1396
     16 H1         -1.0750   -0.8220   -5.3659 H         1 <0>         0.1112
     17 C15        -2.5543   -2.3712   -5.5952 C.3       1 <0>        -0.1783
     18 C16        -2.0387   -2.7315   -6.9899 C.3       1 <0>         0.1381
     19 H2         -1.6504   -1.8365   -7.4762 H         1 <0>         0.0933
     20 C17        -3.1843   -3.3087   -7.8238 C.3       1 <0>        -0.2183
     21 C18        -2.7081   -3.5492   -9.2332 C.2       1 <0>         0.4908
     22 O1         -1.5590   -3.2835   -9.5421 O.co2     1 <0>        -0.6818
     23 O2         -3.4720   -4.0094  -10.0646 O.co2     1 <0>        -0.7124
     24 O3         -0.9961   -3.7022   -6.8763 O.3       1 <0>        -0.5282
     25 O4         -0.3711   -2.6002   -4.5843 O.3       1 <0>        -0.5381
     26 C19        -4.2851   -2.3037   -1.4206 C.ar      1 <0>        -0.0081
     27 C20        -4.0867   -3.6530   -1.7169 C.ar      1 <0>        -0.0763
     28 C21        -5.0362   -4.3446   -2.4399 C.ar      1 <0>        -0.1503
     29 C22        -6.1855   -3.7020   -2.8718 C.ar      1 <0>         0.0970
     30 C23        -6.3872   -2.3623   -2.5808 C.ar      1 <0>        -0.1515
     31 C24        -5.4468   -1.6628   -1.8535 C.ar      1 <0>        -0.0807
     32 F1         -7.1123   -4.3840   -3.5796 F         1 <0>        -0.1399
     33 H3          1.0364    1.8525    0.0045 H         1 <0>         0.0755
     34 H4         -0.5734    1.9262   -0.7514 H         1 <0>         0.0637
     35 H5         -0.4262    1.7426    1.0130 H         1 <0>         0.0653
     36 H6          0.4579   -0.3062   -1.0697 H         1 <0>         0.1028
     37 H7          0.4024   -0.4068    1.9805 H         1 <0>         0.0652
     38 H8          0.8455   -1.7544    0.9054 H         1 <0>         0.0638
     39 H9          1.8650   -0.2969    0.9720 H         1 <0>         0.0756
     40 H10        -1.1327    0.7164    2.5255 H         1 <0>         0.1188
     41 H11        -3.0015    0.7225    4.1154 H         1 <0>         0.1221
     42 H12        -5.1330   -0.3615    3.5430 H         1 <0>         0.1201
     43 H13        -5.4200   -1.4616    1.3792 H         1 <0>         0.1195
     44 H14        -0.4733   -2.1602   -2.3810 H         1 <0>         0.1340
     45 H15        -2.8548   -0.5766   -3.4423 H         1 <0>         0.1183
     46 H16        -2.8604   -3.2790   -5.0753 H         1 <0>         0.0655
     47 H17        -3.4076   -1.6990   -5.6857 H         1 <0>         0.0757
     48 H18        -3.5136   -4.2510   -7.3858 H         1 <0>         0.0566
     49 H19        -4.0155   -2.6038   -7.8364 H         1 <0>         0.0610
     50 H20        -1.2708   -4.5265   -6.4519 H         1 <0>         0.3502
     51 H21        -0.6262   -3.3901   -4.0882 H         1 <0>         0.3670
     52 H22        -3.1912   -4.1547   -1.3811 H         1 <0>         0.1295
     53 H23        -4.8836   -5.3887   -2.6701 H         1 <0>         0.1351
     54 H24        -7.2845   -1.8661   -2.9201 H         1 <0>         0.1343
     55 H25        -5.6072   -0.6199   -1.6231 H         1 <0>         0.1296
@<TRIPOS>BOND
     1    1    2 1
     2    1   33 1
     3    1   34 1
     4    1   35 1
     5    2    3 1
     6    2    4 1
     7    2   36 1
     8    3   37 1
     9    3   38 1
    10    3   39 1
    11    4   12 1
    12    4    5 1
    13    5   10 ar
    14    5    6 ar
    15    6    7 ar
    16    6   40 1
    17    7    8 ar
    18    7   41 1
    19    8    9 ar
    20    8   42 1
    21    9   10 ar
    22    9   43 1
    23   10   11 1
    24   11   12 2
    25   11   26 1
    26   12   13 1
    27   13   14 2
    28   13   44 1
    29   14   15 1
    30   14   45 1
    31   15   16 1
    32   15   17 1
    33   15   25 1
    34   17   18 1
    35   17   46 1
    36   17   47 1
    37   18   19 1
    38   18   20 1
    39   18   24 1
    40   20   21 1
    41   20   48 1
    42   20   49 1
    43   21   22 2
    44   21   23 1
    45   24   50 1
    46   25   51 1
    47   26   31 ar
    48   26   27 ar
    49   27   28 ar
    50   27   52 1
    51   28   29 ar
    52   28   53 1
    53   29   30 ar
    54   29   32 1
    55   30   31 ar
    56   30   54 1
    57   31   55 1
@<TRIPOS>MOLECULE
ZINC03798763
   65    66     0     0     0
SMALL
USER_CHARGES

@<TRIPOS>ATOM
      1 C1          0.5827    0.9928   -1.0170 C.3       1 <0>        -0.1564
      2 C2          0.4349   -0.5218   -1.1757 C.3       1 <0>        -0.1068
      3 C3         -0.9826   -0.9402   -0.7801 C.3       1 <0>        -0.0889
      4 H1         -1.7058   -0.3695   -1.3627 H         1 <0>         0.1160
      5 C4         -1.1981   -0.6664    0.7097 C.3       1 <0>        -0.1470
      6 C5         -1.1667   -2.4109   -1.0524 C.2       1 <0>         0.4532
      7 O1         -0.2575   -3.0580   -1.5154 O.2       1 <0>        -0.5045
      8 O2         -2.3408   -3.0019   -0.7806 O.3       1 <0>        -0.3187
      9 C6         -2.4449   -4.3987   -1.0638 C.3       1 <0>         0.0961
     10 H2         -1.7923   -4.6394   -1.9030 H         1 <0>         0.0931
     11 C7         -1.9899   -5.1889    0.1614 C.3       1 <0>        -0.1285
     12 C8         -2.1343   -6.6858   -0.1477 C.3       1 <0>         0.1424
     13 H3         -1.7909   -7.2739    0.7034 H         1 <0>         0.0676
     14 C9         -3.5941   -6.9603   -0.4032 C.2       1 <0>        -0.2058
     15 C10        -4.3655   -6.0500   -0.9678 C.2       1 <0>        -0.0413
     16 C11        -3.8705   -4.7175   -1.4436 C.3       1 <0>        -0.0483
     17 H4         -3.9230   -4.7251   -2.5323 H         1 <0>         0.0860
     18 C12        -4.8506   -3.6456   -0.9629 C.3       1 <0>        -0.0616
     19 H5         -4.9349   -3.6876    0.1230 H         1 <0>         0.0713
     20 C13        -6.2178   -3.9137   -1.5946 C.3       1 <0>        -0.0644
     21 H6         -6.9590   -3.2667   -1.1254 H         1 <0>         0.0846
     22 C14        -6.6378   -5.3416   -1.4239 C.2       1 <0>        -0.1215
     23 C15        -5.8082   -6.3314   -1.1499 C.2       1 <0>        -0.1397
     24 C16        -6.1489   -3.5909   -3.0885 C.3       1 <0>        -0.1542
     25 C17        -4.3481   -2.2637   -1.3856 C.3       1 <0>        -0.1120
     26 C18        -5.5071   -1.2657   -1.3472 C.3       1 <0>        -0.1680
     27 C19        -5.0046    0.1162   -1.7700 C.3       1 <0>         0.1141
     28 H7         -4.1620    0.4043   -1.1414 H         1 <0>         0.0930
     29 C20        -6.1315    1.1389   -1.6125 C.3       1 <0>        -0.1876
     30 C21        -5.5953    2.5394   -1.9154 C.3       1 <0>         0.1381
     31 H8         -4.7320    2.7429   -1.2817 H         1 <0>         0.0916
     32 C22        -6.6871    3.5747   -1.6377 C.3       1 <0>        -0.2197
     33 C23        -6.1228    4.9604   -1.8177 C.2       1 <0>         0.4905
     34 O3         -4.9556    5.1065   -2.1383 O.co2     1 <0>        -0.6810
     35 O4         -6.8335    5.9355   -1.6426 O.co2     1 <0>        -0.7140
     36 O5         -5.2064    2.6139   -3.2884 O.3       1 <0>        -0.5279
     37 O6         -4.5872    0.0739   -3.1360 O.3       1 <0>        -0.5418
     38 O7         -1.3673   -7.0175   -1.3069 O.3       1 <0>        -0.5546
     39 H9          1.5925    1.2908   -1.2988 H         1 <0>         0.0578
     40 H10        -0.1380    1.4976   -1.6603 H         1 <0>         0.0636
     41 H11         0.3988    1.2689    0.0213 H         1 <0>         0.0587
     42 H12         0.6188   -0.7979   -2.2140 H         1 <0>         0.0708
     43 H13         1.1556   -1.0266   -0.5324 H         1 <0>         0.0661
     44 H14        -2.2079   -0.9645    0.9915 H         1 <0>         0.0679
     45 H15        -0.4749   -1.2371    1.2923 H         1 <0>         0.0573
     46 H16        -1.0649    0.3973    0.9066 H         1 <0>         0.0772
     47 H17        -0.9475   -4.9581    0.3809 H         1 <0>         0.0774
     48 H18        -2.6122   -4.9291    1.0178 H         1 <0>         0.0860
     49 H19        -4.0144   -7.9144   -0.1211 H         1 <0>         0.1155
     50 H20        -7.6859   -5.5769   -1.5358 H         1 <0>         0.1072
     51 H21        -6.1808   -7.3405   -1.0537 H         1 <0>         0.1188
     52 H22        -5.3956   -4.2206   -3.5620 H         1 <0>         0.0547
     53 H23        -7.1200   -3.7795   -3.5462 H         1 <0>         0.0529
     54 H24        -5.8819   -2.5425   -3.2218 H         1 <0>         0.0775
     55 H25        -3.5646   -1.9371   -0.7017 H         1 <0>         0.1072
     56 H26        -3.9477   -2.3167   -2.3980 H         1 <0>         0.0647
     57 H27        -6.2906   -1.5923   -2.0311 H         1 <0>         0.0730
     58 H28        -5.9075   -1.2127   -0.3348 H         1 <0>         0.0658
     59 H29        -6.9379    0.9007   -2.3061 H         1 <0>         0.0603
     60 H30        -6.5101    1.1079   -0.5908 H         1 <0>         0.0717
     61 H31        -7.5139    3.4260   -2.3323 H         1 <0>         0.0552
     62 H32        -7.0462    3.4586   -0.6152 H         1 <0>         0.0600
     63 H33        -5.9264    2.4432   -3.9110 H         1 <0>         0.3493
     64 H34        -5.2878   -0.1762   -3.7538 H         1 <0>         0.3622
     65 H35        -1.4154   -7.9505   -1.5567 H         1 <0>         0.3778
@<TRIPOS>BOND
     1    1    2 1
     2    1   39 1
     3    1   40 1
     4    1   41 1
     5    2    3 1
     6    2   42 1
     7    2   43 1
     8    3    4 1
     9    3    5 1
    10    3    6 1
    11    5   44 1
    12    5   45 1
    13    5   46 1
    14    6    7 2
    15    6    8 1
    16    8    9 1
    17    9   10 1
    18    9   16 1
    19    9   11 1
    20   11   12 1
    21   11   47 1
    22   11   48 1
    23   12   13 1
    24   12   14 1
    25   12   38 1
    26   14   15 2
    27   14   49 1
    28   15   23 1
    29   15   16 1
    30   16   17 1
    31   16   18 1
    32   18   19 1
    33   18   20 1
    34   18   25 1
    35   20   21 1
    36   20   22 1
    37   20   24 1
    38   22   23 2
    39   22   50 1
    40   23   51 1
    41   24   52 1
    42   24   53 1
    43   24   54 1
    44   25   26 1
    45   25   55 1
    46   25   56 1
    47   26   27 1
    48   26   57 1
    49   26   58 1
    50   27   28 1
    51   27   29 1
    52   27   37 1
    53   29   30 1
    54   29   59 1
    55   29   60 1
    56   30   31 1
    57   30   32 1
    58   30   36 1
    59   32   33 1
    60   32   61 1
    61   32   62 1
    62   33   34 2
    63   33   35 1
    64   36   63 1
    65   37   64 1
    66   38   65 1
@<TRIPOS>MOLECULE
ZINC13861029
   49    51     0     0     0
SMALL
USER_CHARGES
(4R,6R)-6-[2-[3,4-dibromo-2-(4-fluorophenyl)-5-isopropyl-pyrrol-1-yl]ethyl]-4-hydroxy-tetrahydropyran-2-one
@<TRIPOS>ATOM
      1 C1         -2.0838   -1.4315    2.6153 C.3       1 <0>        -0.1539
      2 C2         -2.2836   -0.4301    1.4760 C.3       1 <0>        -0.0314
      3 C3         -3.7790   -0.2674    1.1964 C.3       1 <0>        -0.1519
      4 C4         -1.6984    0.9018    1.8694 C.2       1 <0>         0.0908
      5 C5         -2.0757    1.6472    2.9310 C.2       1 <0>        -0.1423
      6 C6         -1.2852    2.8093    2.9394 C.2       1 <0>        -0.1222
      7 C7         -0.4382    2.7321    1.8744 C.2       1 <0>         0.0963
      8 N1         -0.6984    1.5583    1.2133 N.pl3     1 <0>        -0.4207
      9 C8         -0.0127    1.0858    0.0080 C.3       1 <0>         0.0943
     10 C9         -0.7527    1.5927   -1.2315 C.3       1 <0>        -0.1317
     11 C10        -0.0366    1.0992   -2.4903 C.3       1 <0>         0.1146
     12 H1          1.0097    1.4030   -2.4569 H         1 <0>         0.0939
     13 C11        -0.7060    1.7011   -3.7289 C.3       1 <0>        -0.1500
     14 C12        -0.0201    1.1633   -4.9886 C.3       1 <0>         0.1048
     15 H2         -0.4968    1.5868   -5.8726 H         1 <0>         0.0825
     16 C13        -0.1538   -0.3642   -5.0154 C.3       1 <0>        -0.2054
     17 C14         0.3467   -0.9103   -3.6963 C.2       1 <0>         0.4971
     18 O1          1.1414   -1.8198   -3.6616 O.2       1 <0>        -0.4502
     19 O2         -0.1195   -0.3521   -2.5597 O.3       1 <0>        -0.3756
     20 O3          1.3630    1.5222   -4.9704 O.3       1 <0>        -0.5642
     21 C15         0.5783    3.7369    1.4962 C.ar      1 <0>        -0.0408
     22 C16         1.8654    3.3313    1.1400 C.ar      1 <0>        -0.0797
     23 C17         2.8086    4.2727    0.7839 C.ar      1 <0>        -0.1493
     24 C18         2.4832    5.6196    0.7892 C.ar      1 <0>         0.1105
     25 C19         1.2082    6.0281    1.1466 C.ar      1 <0>        -0.1474
     26 C20         0.2559    5.0949    1.4998 C.ar      1 <0>        -0.0585
     27 F1          3.4121    6.5378    0.4441 F         1 <0>        -0.1350
     28 Br1        -1.3756    4.2166    4.1992 Br        1 <0>        -0.0092
     29 Br2        -3.4247    1.2065    4.1807 Br        1 <0>        -0.0076
     30 H3         -2.5835   -1.0658    3.5123 H         1 <0>         0.0726
     31 H4         -2.5071   -2.3948    2.3307 H         1 <0>         0.0667
     32 H5         -1.0184   -1.5474    2.8145 H         1 <0>         0.0562
     33 H6         -1.7839   -0.7958    0.5789 H         1 <0>         0.0835
     34 H7         -3.9214    0.4461    0.3847 H         1 <0>         0.0552
     35 H8         -4.2023   -1.2307    0.9118 H         1 <0>         0.0663
     36 H9         -4.2787    0.0983    2.0934 H         1 <0>         0.0725
     37 H10         0.0021   -0.0041    0.0020 H         1 <0>         0.1081
     38 H11         1.0099    1.4631    0.0003 H         1 <0>         0.1009
     39 H12        -1.7753    1.2154   -1.2238 H         1 <0>         0.0892
     40 H13        -0.7675    2.6825   -1.2255 H         1 <0>         0.0984
     41 H14        -1.7603    1.4249   -3.7429 H         1 <0>         0.0984
     42 H15        -0.6145    2.7868   -3.7004 H         1 <0>         0.1010
     43 H16         0.4436   -0.7707   -5.8314 H         1 <0>         0.1094
     44 H17        -1.1996   -0.6388   -5.1533 H         1 <0>         0.1193
     45 H18         1.8614    1.2063   -5.7364 H         1 <0>         0.3882
     46 H19         2.1213    2.2821    1.1396 H         1 <0>         0.1326
     47 H20         3.8036    3.9596    0.5042 H         1 <0>         0.1409
     48 H21         0.9598    7.0792    1.1491 H         1 <0>         0.1426
     49 H22        -0.7375    5.4144    1.7783 H         1 <0>         0.1401
@<TRIPOS>BOND
     1    1    2 1
     2    1   30 1
     3    1   31 1
     4    1   32 1
     5    2    3 1
     6    2    4 1
     7    2   33 1
     8    3   34 1
     9    3   35 1
    10    3   36 1
    11    4    8 1
    12    4    5 2
    13    5    6 1
    14    5   29 1
    15    6    7 2
    16    6   28 1
    17    7    8 1
    18    7   21 1
    19    8    9 1
    20    9   10 1
    21    9   37 1
    22    9   38 1
    23   10   11 1
    24   10   39 1
    25   10   40 1
    26   11   12 1
    27   11   19 1
    28   11   13 1
    29   13   14 1
    30   13   41 1
    31   13   42 1
    32   14   15 1
    33   14   16 1
    34   14   20 1
    35   16   17 1
    36   16   43 1
    37   16   44 1
    38   17   18 2
    39   17   19 1
    40   20   45 1
    41   21   26 ar
    42   21   22 ar
    43   22   23 ar
    44   22   46 1
    45   23   24 ar
    46   23   47 1
    47   24   25 ar
    48   24   27 1
    49   25   26 ar
    50   25   48 1
    51   26   49 1
@<TRIPOS>MOLECULE
ZINC27523306
   65    67     0     0     0
SMALL
USER_CHARGES
[(1S,3S,7S,8S,8aR)-8-[2-[(2R,4R)-4-hydroxy-6-oxo-tetrahydropyran-2-yl]ethyl]-3,7-dimethyl-1,2,3,7,8,8a-hexahydronaphthalen-1-yl] (2S)-2-methylbutanoate
@<TRIPOS>ATOM
      1 C1         -1.9962    5.6411    3.4900 C.3       1 <0>        -0.1543
      2 C2         -0.9439    6.7003    3.1557 C.3       1 <0>        -0.1105
      3 C3          0.3201    6.0158    2.6317 C.3       1 <0>        -0.0849
      4 H1          0.0707    5.3788    1.7703 H         1 <0>         0.1063
      5 C4          0.9391    5.1672    3.7441 C.3       1 <0>        -0.1483
      6 C5          1.3102    7.0615    2.1875 C.2       1 <0>         0.4510
      7 O1          1.0333    8.2339    2.2805 O.2       1 <0>        -0.5052
      8 O2          2.4998    6.6904    1.6885 O.3       1 <0>        -0.3246
      9 C6          3.4035    7.7512    1.2808 C.3       1 <0>         0.0856
     10 H2          2.8068    8.6183    0.9611 H         1 <0>         0.0897
     11 C7          4.2785    8.1422    2.4698 C.3       1 <0>        -0.1279
     12 C8          5.2487    9.2417    2.0150 C.3       1 <0>        -0.0579
     13 H3          5.8784    9.5850    2.8490 H         1 <0>         0.0862
     14 C9          6.1170    8.6629    0.9274 C.2       1 <0>        -0.1417
     15 C10         5.6426    7.7569    0.0928 C.2       1 <0>        -0.0820
     16 C11         4.2234    7.2712    0.1080 C.3       1 <0>        -0.0414
     17 H4          3.7171    7.7310   -0.7535 H         1 <0>         0.0812
     18 C12         4.2411    5.7452    0.0002 C.3       1 <0>        -0.0564
     19 H5          4.8221    5.3169    0.8302 H         1 <0>         0.0761
     20 C13         4.8753    5.3560   -1.3364 C.3       1 <0>        -0.0617
     21 H6          5.0961    4.2785   -1.3210 H         1 <0>         0.0816
     22 C14         6.1753    6.0659   -1.5611 C.2       1 <0>        -0.1413
     23 C15         6.5407    7.1661   -0.9260 C.2       1 <0>        -0.1256
     24 C16         3.9110    5.7138   -2.4691 C.3       1 <0>        -0.1558
     25 C17         2.8094    5.2094    0.0644 C.3       1 <0>        -0.1206
     26 C18         2.7667    3.7969   -0.5221 C.3       1 <0>        -0.1358
     27 C19         1.3351    3.2611   -0.4579 C.3       1 <0>         0.1131
     28 H7          0.9330    3.3525    0.5619 H         1 <0>         0.0863
     29 C20         1.3125    1.8041   -0.9283 C.3       1 <0>        -0.1508
     30 C21        -0.1296    1.2879   -0.9130 C.3       1 <0>         0.1149
     31 H8         -0.1812    0.2230   -1.1838 H         1 <0>         0.0740
     32 C22        -0.9783    2.1517   -1.8540 C.3       1 <0>        -0.2057
     33 C23        -0.7833    3.6033   -1.4751 C.2       1 <0>         0.4971
     34 O3         -1.7304    4.3355   -1.3114 O.2       1 <0>        -0.4562
     35 O4          0.4787    4.0567   -1.3248 O.3       1 <0>        -0.3748
     36 O5         -0.6523    1.3680    0.4146 O.3       1 <0>        -0.5992
     37 C24         4.4618   10.4355    1.4706 C.3       1 <0>        -0.1481
     38 H9         -2.9050    6.1332    3.8667 H         1 <0>         0.0601
     39 H10        -1.6011    4.9619    4.2598 H         1 <0>         0.0589
     40 H11        -2.2390    5.0667    2.5838 H         1 <0>         0.0572
     41 H12        -1.3390    7.3795    2.3859 H         1 <0>         0.0723
     42 H13        -0.7010    7.2747    4.0618 H         1 <0>         0.0704
     43 H14         1.8479    4.6751    3.3673 H         1 <0>         0.0685
     44 H15         0.2164    4.4039    4.0683 H         1 <0>         0.0755
     45 H16         1.1981    5.8125    4.5965 H         1 <0>         0.0613
     46 H17         3.6425    8.5150    3.2862 H         1 <0>         0.0718
     47 H18         4.8413    7.2627    2.8159 H         1 <0>         0.0760
     48 H19         7.1584    9.0048    0.8342 H         1 <0>         0.1173
     49 H20         6.8438    5.6150   -2.3093 H         1 <0>         0.1079
     50 H21         7.5075    7.6381   -1.1552 H         1 <0>         0.1202
     51 H22         4.3602    5.4368   -3.4342 H         1 <0>         0.0533
     52 H23         3.7129    6.7957   -2.4539 H         1 <0>         0.0560
     53 H24         2.9667    5.1661   -2.3334 H         1 <0>         0.0782
     54 H25         2.4749    5.1817    1.1119 H         1 <0>         0.1103
     55 H26         2.1453    5.8674   -0.5153 H         1 <0>         0.0666
     56 H27         3.1012    3.8246   -1.5696 H         1 <0>         0.0901
     57 H28         3.4308    3.1389    0.0576 H         1 <0>         0.0861
     58 H29         1.7142    1.7426   -1.9505 H         1 <0>         0.0963
     59 H30         1.9295    1.1916   -0.2544 H         1 <0>         0.0981
     60 H31        -0.6563    1.9873   -2.8929 H         1 <0>         0.1158
     61 H32        -2.0378    1.8747   -1.7504 H         1 <0>         0.1062
     62 H33        -1.6815    1.0392    0.6213 H         1 <0>         0.4158
     63 H34         5.1622   11.2193    1.1466 H         1 <0>         0.0596
     64 H35         3.8061   10.8329    2.2594 H         1 <0>         0.0613
     65 H36         3.8513   10.1126    0.6144 H         1 <0>         0.0560
@<TRIPOS>BOND
     1    1    2 1
     2    1   38 1
     3    1   39 1
     4    1   40 1
     5    2    3 1
     6    2   41 1
     7    2   42 1
     8    3    4 1
     9    3    5 1
    10    3    6 1
    11    5   43 1
    12    5   44 1
    13    5   45 1
    14    6    7 2
    15    6    8 1
    16    8    9 1
    17    9   10 1
    18    9   16 1
    19    9   11 1
    20   11   12 1
    21   11   46 1
    22   11   47 1
    23   12   13 1
    24   12   14 1
    25   12   37 1
    26   14   15 2
    27   14   48 1
    28   15   23 1
    29   15   16 1
    30   16   17 1
    31   16   18 1
    32   18   19 1
    33   18   20 1
    34   18   25 1
    35   20   21 1
    36   20   22 1
    37   20   24 1
    38   22   23 2
    39   22   49 1
    40   23   50 1
    41   24   51 1
    42   24   52 1
    43   24   53 1
    44   25   26 1
    45   25   54 1
    46   25   55 1
    47   26   27 1
    48   26   56 1
    49   26   57 1
    50   27   28 1
    51   27   35 1
    52   27   29 1
    53   29   30 1
    54   29   58 1
    55   29   59 1
    56   30   31 1
    57   30   32 1
    58   30   36 1
    59   32   33 1
    60   32   60 1
    61   32   61 1
    62   33   34 2
    63   33   35 1
    64   36   62 1
    65   37   63 1
    66   37   64 1
    67   37   65 1
@<TRIPOS>MOLECULE
ZINC11330186
   66    67     0     0     0
SMALL
USER_CHARGES

@<TRIPOS>ATOM
      1 C1          0.3247    1.0805    0.3265 C.3       1 <0>        -0.1411
      2 C2          0.1185   -0.4285    0.1796 C.3       1 <0>        -0.0467
      3 C3          0.7180   -1.1454    1.3910 C.3       1 <0>        -0.1366
      4 C4         -1.3561   -0.7283    0.0975 C.ar      1 <0>         0.1593
      5 C5         -1.8800   -1.2359   -1.0741 C.ar      1 <0>        -0.1339
      6 C6         -3.2469   -1.5119   -1.1447 C.ar      1 <0>         0.0239
      7 C7         -4.0350   -1.2561   -0.0035 C.ar      1 <0>        -0.0913
      8 C8         -3.4178   -0.7427    1.1358 C.ar      1 <0>         0.1609
      9 N1         -2.1221   -0.5057    1.1491 N.ar      1 <0>        -0.4678
     10 C9         -4.2401   -0.4616    2.3670 C.3       1 <0>        -0.0597
     11 C10        -3.7132   -1.2987    3.5343 C.3       1 <0>        -0.1398
     12 C11        -4.1401    1.0241    2.7188 C.3       1 <0>        -0.1379
     13 C12        -5.4863   -1.5266   -0.0156 C.2       1 <0>        -0.1190
     14 C13        -6.0381   -2.2307    0.9643 C.2       1 <0>        -0.1631
     15 C14        -7.5195   -2.5068    0.9519 C.3       1 <0>         0.1407
     16 H1         -7.9889   -2.0091    1.8005 H         1 <0>         0.1107
     17 C15        -7.7581   -4.0149    1.0494 C.3       1 <0>        -0.1808
     18 C16        -9.2594   -4.2875    1.1624 C.3       1 <0>         0.1375
     19 H2         -9.6680   -3.7276    2.0036 H         1 <0>         0.0938
     20 C17        -9.4907   -5.7835    1.3849 C.3       1 <0>        -0.2190
     21 C18       -10.9580   -6.0355    1.6186 C.2       1 <0>         0.4904
     22 O1        -11.7457   -5.1050    1.6081 O.co2     1 <0>        -0.6809
     23 O2        -11.3574   -7.1701    1.8181 O.co2     1 <0>        -0.7131
     24 O3         -9.9098   -3.8790   -0.0426 O.3       1 <0>        -0.5276
     25 O4         -8.0861   -2.0124   -0.2632 O.3       1 <0>        -0.5369
     26 C19        -3.8517   -2.0571   -2.3825 C.ar      1 <0>        -0.0553
     27 C20        -3.8617   -1.2952   -3.5505 C.ar      1 <0>        -0.0778
     28 C21        -4.4255   -1.8072   -4.7005 C.ar      1 <0>        -0.1524
     29 C22        -4.9818   -3.0764   -4.6964 C.ar      1 <0>         0.1058
     30 C23        -4.9742   -3.8373   -3.5382 C.ar      1 <0>        -0.1479
     31 C24        -4.4076   -3.3361   -2.3848 C.ar      1 <0>        -0.0607
     32 F1         -5.5337   -3.5734   -5.8249 F         1 <0>        -0.1373
     33 C25        -0.9882   -1.4886   -2.2623 C.3       1 <0>         0.1026
     34 O5         -0.3673   -2.7687   -2.1282 O.3       1 <0>        -0.3789
     35 C26         0.5041   -3.1081   -3.2086 C.3       1 <0>         0.0299
     36 H3          1.3912    1.2973    0.3859 H         1 <0>         0.0595
     37 H4         -0.1024    1.5912   -0.5365 H         1 <0>         0.0507
     38 H5         -0.1678    1.4278    1.2347 H         1 <0>         0.0652
     39 H6          0.6110   -0.7758   -0.7286 H         1 <0>         0.0853
     40 H7          0.2255   -0.7981    2.2992 H         1 <0>         0.0660
     41 H8          0.5711   -2.2204    1.2864 H         1 <0>         0.0535
     42 H9          1.7846   -0.9286    1.4504 H         1 <0>         0.0560
     43 H10        -5.2814   -0.7202    2.1753 H         1 <0>         0.1001
     44 H11        -2.6718   -1.0400    3.7260 H         1 <0>         0.0643
     45 H12        -4.3080   -1.0953    4.4248 H         1 <0>         0.0615
     46 H13        -3.7844   -2.3571    3.2836 H         1 <0>         0.0514
     47 H14        -4.7349    1.2274    3.6093 H         1 <0>         0.0601
     48 H15        -3.0987    1.2828    2.9105 H         1 <0>         0.0625
     49 H16        -4.5154    1.6205    1.8872 H         1 <0>         0.0511
     50 H17        -6.0988   -1.1512   -0.8220 H         1 <0>         0.1311
     51 H18        -5.4256   -2.6060    1.7707 H         1 <0>         0.1196
     52 H19        -7.3664   -4.5031    0.1570 H         1 <0>         0.0635
     53 H20        -7.2503   -4.4069    1.9306 H         1 <0>         0.0759
     54 H21        -9.1627   -6.3367    0.5049 H         1 <0>         0.0560
     55 H22        -8.9224   -6.1137    2.2544 H         1 <0>         0.0612
     56 H23        -9.5954   -4.3371   -0.8340 H         1 <0>         0.3498
     57 H24        -7.7147   -2.4122   -1.0616 H         1 <0>         0.3654
     58 H25        -3.4290   -0.3056   -3.5545 H         1 <0>         0.1322
     59 H26        -4.4337   -1.2179   -5.6055 H         1 <0>         0.1380
     60 H27        -5.4089   -4.8260   -3.5398 H         1 <0>         0.1407
     61 H28        -4.3984   -3.9315   -1.4837 H         1 <0>         0.1336
     62 H29        -1.5840   -1.4676   -3.1748 H         1 <0>         0.0632
     63 H30        -0.2209   -0.7160   -2.3115 H         1 <0>         0.0623
     64 H31         0.9354   -4.0934   -3.0318 H         1 <0>         0.0874
     65 H32        -0.0607   -3.1207   -4.1408 H         1 <0>         0.0415
     66 H33         1.3024   -2.3691   -3.2775 H         1 <0>         0.0414
@<TRIPOS>BOND
     1    1    2 1
     2    1   36 1
     3    1   37 1
     4    1   38 1
     5    2    3 1
     6    2    4 1
     7    2   39 1
     8    3   40 1
     9    3   41 1
    10    3   42 1
    11    4    9 ar
    12    4    5 ar
    13    5    6 ar
    14    5   33 1
    15    6    7 ar
    16    6   26 1
    17    7    8 ar
    18    7   13 1
    19    8    9 ar
    20    8   10 1
    21   10   11 1
    22   10   12 1
    23   10   43 1
    24   11   44 1
    25   11   45 1
    26   11   46 1
    27   12   47 1
    28   12   48 1
    29   12   49 1
    30   13   14 2
    31   13   50 1
    32   14   15 1
    33   14   51 1
    34   15   16 1
    35   15   17 1
    36   15   25 1
    37   17   18 1
    38   17   52 1
    39   17   53 1
    40   18   19 1
    41   18   20 1
    42   18   24 1
    43   20   21 1
    44   20   54 1
    45   20   55 1
    46   21   22 2
    47   21   23 1
    48   24   56 1
    49   25   57 1
    50   26   31 ar
    51   26   27 ar
    52   27   28 ar
    53   27   58 1
    54   28   29 ar
    55   28   59 1
    56   29   30 ar
    57   29   32 1
    58   30   31 ar
    59   30   60 1
    60   31   61 1
    61   33   34 1
    62   33   62 1
    63   33   63 1
    64   34   35 1
    65   35   64 1
    66   35   65 1
    67   35   66 1
@<TRIPOS>MOLECULE
ZINC03920719
   75    78     0     0     0
SMALL
USER_CHARGES
7-[2-(4-fluorophenyl)-5-isopropyl-3-phenyl-4-(phenylcarbamoyl)pyrrol-1-yl]-3,5-dihydroxy-heptanoic acid
@<TRIPOS>ATOM
      1 C1         -0.0291    1.0885    0.0221 C.3       1 <0>        -0.1495
      2 C2         -0.7404    1.5920    1.2797 C.3       1 <0>        -0.0367
      3 C3         -0.0014    1.0867    2.5205 C.3       1 <0>        -0.1498
      4 C4         -0.7521    3.0989    1.2809 C.2       1 <0>         0.1023
      5 C5          0.3559    3.8992    1.2751 C.2       1 <0>        -0.2125
      6 C6         -0.1353    5.2868    1.2756 C.2       1 <0>        -0.0756
      7 C7         -1.5139    5.1979    1.2908 C.2       1 <0>         0.0710
      8 N1         -1.8559    3.8705    1.2937 N.pl3     1 <0>        -0.4179
      9 C8         -3.2298    3.3622    1.3087 C.3       1 <0>         0.0911
     10 C9         -3.6921    3.1842    2.7563 C.3       1 <0>        -0.1657
     11 C10        -5.1269    2.6533    2.7719 C.3       1 <0>         0.1174
     12 H1         -5.7663    3.3172    2.1900 H         1 <0>         0.1000
     13 C11        -5.6329    2.5933    4.2145 C.3       1 <0>        -0.1845
     14 C12        -7.1065    2.1819    4.2215 C.3       1 <0>         0.1331
     15 H2         -7.6767    2.8622    3.5890 H         1 <0>         0.0942
     16 C13        -7.6461    2.2424    5.6519 C.3       1 <0>        -0.1934
     17 C14        -9.1258    1.9568    5.6431 C.2       1 <0>         0.4594
     18 O1         -9.6908    1.7283    4.5998 O.co2     1 <0>        -0.6235
     19 O2         -7.2313    0.8491    3.7214 O.3       1 <0>        -0.5292
     20 O3         -5.1564    1.3433    2.2019 O.3       1 <0>        -0.5411
     21 C15        -2.4556    6.3354    1.3026 C.ar      1 <0>        -0.0288
     22 C16        -3.5671    6.3339    0.4570 C.ar      1 <0>        -0.0847
     23 C17        -4.4457    7.3967    0.4757 C.ar      1 <0>        -0.1472
     24 C18        -4.2216    8.4697    1.3238 C.ar      1 <0>         0.1052
     25 C19        -3.1174    8.4790    2.1613 C.ar      1 <0>        -0.1481
     26 C20        -2.2349    7.4193    2.1550 C.ar      1 <0>        -0.0610
     27 F1         -5.0831    9.5103    1.3345 F         1 <0>        -0.1371
     28 C21         0.6797    6.5226    1.2673 C.ar      1 <0>        -0.0074
     29 C22         0.6319    7.3859    0.1724 C.ar      1 <0>        -0.0979
     30 C23         1.3903    8.5385    0.1729 C.ar      1 <0>        -0.1174
     31 C24         2.2049    8.8336    1.2515 C.ar      1 <0>        -0.1206
     32 C25         2.2607    7.9789    2.3380 C.ar      1 <0>        -0.1185
     33 C26         1.5031    6.8258    2.3520 C.ar      1 <0>        -0.1080
     34 C27         1.7604    3.4609    1.2674 C.2       1 <0>         0.6092
     35 O4          2.3353    3.2799    0.2107 O.2       1 <0>        -0.5115
     36 N2          2.4100    3.2598    2.4310 N.am      1 <0>        -0.6690
     37 C28         3.7128    2.7511    2.4258 C.ar      1 <0>         0.1482
     38 C29         4.1303    1.8966    3.4379 C.ar      1 <0>        -0.1465
     39 C30         5.4160    1.3922    3.4272 C.ar      1 <0>        -0.1021
     40 C31         6.2905    1.7455    2.4160 C.ar      1 <0>        -0.1374
     41 C32         5.8796    2.6003    1.4096 C.ar      1 <0>        -0.1028
     42 C33         4.5937    3.1040    1.4116 C.ar      1 <0>        -0.1202
     43 H3         -0.0207   -0.0015    0.0213 H         1 <0>         0.0627
     44 H4          0.9956    1.4598    0.0110 H         1 <0>         0.0697
     45 H5         -0.5556    1.4484   -0.8618 H         1 <0>         0.0573
     46 H6         -1.7651    1.2207    1.2909 H         1 <0>         0.0851
     47 H7          1.0234    1.4580    2.5093 H         1 <0>         0.0627
     48 H8         -0.5081    1.4454    3.4164 H         1 <0>         0.0584
     49 H9          0.0071   -0.0032    2.5196 H         1 <0>         0.0662
     50 H10        -3.8851    4.0711    0.8026 H         1 <0>         0.0982
     51 H11        -3.2675    2.4018    0.7946 H         1 <0>         0.1035
     52 H12        -3.0369    2.4752    3.2623 H         1 <0>         0.0731
     53 H13        -3.6544    4.1446    3.2704 H         1 <0>         0.0795
     54 H14        -5.0490    1.8626    4.7742 H         1 <0>         0.0654
     55 H15        -5.5274    3.5744    4.6777 H         1 <0>         0.0761
     56 H16        -7.1362    1.4988    6.2644 H         1 <0>         0.0634
     57 H17        -7.4703    3.2357    6.0648 H         1 <0>         0.0680
     58 H18        -6.7482    0.1887    4.2368 H         1 <0>         0.3526
     59 H19        -4.6084    0.6984    2.6698 H         1 <0>         0.3668
     60 H20        -3.7405    5.5002   -0.2073 H         1 <0>         0.1329
     61 H21        -5.3080    7.3946   -0.1745 H         1 <0>         0.1400
     62 H22        -2.9475    9.3179    2.8199 H         1 <0>         0.1387
     63 H23        -1.3746    7.4278    2.8079 H         1 <0>         0.1350
     64 H24        -0.0002    7.1544   -0.6721 H         1 <0>         0.1198
     65 H25         1.3511    9.2097   -0.6723 H         1 <0>         0.1213
     66 H26         2.7995    9.7352    1.2455 H         1 <0>         0.1197
     67 H27         2.8988    8.2146    3.1769 H         1 <0>         0.1211
     68 H28         1.5472    6.1596    3.2008 H         1 <0>         0.1177
     69 H29         1.9740    3.4680    3.2721 H         1 <0>         0.4106
     70 H30         3.4492    1.6238    4.2304 H         1 <0>         0.1243
     71 H31         5.7401    0.7247    4.2119 H         1 <0>         0.1244
     72 H32         7.2966    1.3527    2.4119 H         1 <0>         0.1209
     73 H33         6.5649    2.8740    0.6211 H         1 <0>         0.1234
     74 H34         4.2735    3.7718    0.6255 H         1 <0>         0.1385
     75 O5         -9.8161    1.9564    6.7942 O.co2     1 <0>        -0.7819
@<TRIPOS>BOND
     1    1    2 1
     2    1   43 1
     3    1   44 1
     4    1   45 1
     5    2    3 1
     6    2    4 1
     7    2   46 1
     8    3   47 1
     9    3   48 1
    10    3   49 1
    11    4    8 1
    12    4    5 2
    13    5    6 1
    14    5   34 1
    15    6    7 2
    16    6   28 1
    17    7    8 1
    18    7   21 1
    19    8    9 1
    20    9   10 1
    21    9   50 1
    22    9   51 1
    23   10   11 1
    24   10   52 1
    25   10   53 1
    26   11   12 1
    27   11   13 1
    28   11   20 1
    29   13   14 1
    30   13   54 1
    31   13   55 1
    32   14   15 1
    33   14   16 1
    34   14   19 1
    35   16   17 1
    36   16   56 1
    37   16   57 1
    38   17   18 2
    39   17   75 1
    40   19   58 1
    41   20   59 1
    42   21   26 ar
    43   21   22 ar
    44   22   23 ar
    45   22   60 1
    46   23   24 ar
    47   23   61 1
    48   24   25 ar
    49   24   27 1
    50   25   26 ar
    51   25   62 1
    52   26   63 1
    53   28   33 ar
    54   28   29 ar
    55   29   30 ar
    56   29   64 1
    57   30   31 ar
    58   30   65 1
    59   31   32 ar
    60   31   66 1
    61   32   33 ar
    62   32   67 1
    63   33   68 1
    64   34   35 2
    65   34   36 am
    66   36   37 1
    67   36   69 1
    68   37   42 ar
    69   37   38 ar
    70   38   39 ar
    71   38   70 1
    72   39   40 ar
    73   39   71 1
    74   40   41 ar
    75   40   72 1
    76   41   42 ar
    77   41   73 1
    78   42   74 1
@<TRIPOS>MOLECULE
ZINC01535101
   60    61     0     0     0
SMALL
USER_CHARGES

@<TRIPOS>ATOM
      1 C1         -0.0187    1.5258    0.0104 C.3       1 <0>        -0.1409
      2 C2          0.0021   -0.0041    0.0020 C.3       1 <0>        -0.0463
      3 C3          0.7421   -0.5109    1.2415 C.3       1 <0>        -0.1397
      4 C4         -1.4117   -0.5257    0.0127 C.ar      1 <0>         0.2278
      5 C5         -1.8760   -1.3353   -1.0280 C.ar      1 <0>        -0.1693
      6 C6         -3.2069   -1.7971   -0.9689 C.ar      1 <0>         0.2647
      7 N1         -3.9618   -1.4454    0.0684 N.ar      1 <0>        -0.5246
      8 C7         -3.4757   -0.6762    1.0295 C.ar      1 <0>         0.5493
      9 N2         -2.2276   -0.2284    1.0086 N.ar      1 <0>        -0.5329
     10 N3         -4.2934   -0.3326    2.0912 N.pl3     1 <0>        -0.9075
     11 C8         -3.7783    0.5177    3.1673 C.3       1 <0>         0.0882
     12 S1         -5.8545   -0.8825    2.1458 S.o2      1 <0>         2.6002
     13 O1         -6.5501    0.0779    2.9287 O.2       1 <0>        -0.9460
     14 O2         -6.2087   -1.1036    0.7875 O.2       1 <0>        -0.8995
     15 C9         -5.7616   -2.4623    3.0324 C.3       1 <0>        -0.6666
     16 C10        -3.7545   -2.6574   -2.0425 C.ar      1 <0>        -0.0730
     17 C11        -3.3515   -2.4685   -3.3646 C.ar      1 <0>        -0.0484
     18 C12        -3.8641   -3.2727   -4.3609 C.ar      1 <0>        -0.1588
     19 C13        -4.7781   -4.2672   -4.0503 C.ar      1 <0>         0.1214
     20 C14        -5.1816   -4.4588   -2.7383 C.ar      1 <0>        -0.1645
     21 C15        -4.6707   -3.6632   -1.7342 C.ar      1 <0>        -0.0393
     22 F1         -5.2778   -5.0522   -5.0298 F         1 <0>        -0.1353
     23 C16        -0.9973   -1.6965   -2.1576 C.2       1 <0>        -0.1273
     24 C17        -0.8837   -2.9650   -2.5306 C.2       1 <0>        -0.1484
     25 C18         0.0134   -3.3337   -3.6840 C.3       1 <0>         0.1408
     26 H1         -0.5894   -3.7311   -4.5006 H         1 <0>         0.1118
     27 C19         1.0187   -4.3938   -3.2295 C.3       1 <0>        -0.1809
     28 C20         1.8469   -4.8587   -4.4290 C.3       1 <0>         0.1375
     29 H2          1.1800   -5.2028   -5.2196 H         1 <0>         0.0939
     30 C21         2.7650   -6.0054   -4.0012 C.3       1 <0>        -0.2191
     31 C22         3.4904   -6.5447   -5.2069 C.2       1 <0>         0.4904
     32 O3          3.2916   -6.0571   -6.3066 O.co2     1 <0>        -0.6807
     33 O4          4.2762   -7.4687   -5.0828 O.co2     1 <0>        -0.7130
     34 O5          2.6373   -3.7708   -4.9126 O.3       1 <0>        -0.5275
     35 O6          0.7154   -2.1723   -4.1317 O.3       1 <0>        -0.5365
     36 H3          1.0039    1.9031    0.0027 H         1 <0>         0.0655
     37 H4         -0.5459    1.8868   -0.8726 H         1 <0>         0.0546
     38 H5         -0.5289    1.8773    0.9072 H         1 <0>         0.0648
     39 H6          0.5123   -0.3556   -0.8948 H         1 <0>         0.0972
     40 H7          0.2319   -0.1594    2.1383 H         1 <0>         0.0641
     41 H8          0.7568   -1.6008    1.2356 H         1 <0>         0.0541
     42 H9          1.7647   -0.1336    1.2338 H         1 <0>         0.0655
     43 H10        -3.9626    1.5639    2.9234 H         1 <0>         0.0726
     44 H11        -4.2826    0.2679    4.1007 H         1 <0>         0.0812
     45 H12        -2.7064    0.3539    3.2782 H         1 <0>         0.0952
     46 H13        -5.3578   -2.2954    4.0309 H         1 <0>         0.1267
     47 H14        -6.7594   -2.8939    3.1114 H         1 <0>         0.1345
     48 H15        -5.1117   -3.1471    2.4875 H         1 <0>         0.1302
     49 H16        -2.6396   -1.6936   -3.6076 H         1 <0>         0.1457
     50 H17        -3.5530   -3.1270   -5.3848 H         1 <0>         0.1437
     51 H18        -5.8943   -5.2348   -2.5013 H         1 <0>         0.1394
     52 H19        -4.9823   -3.8161   -0.7115 H         1 <0>         0.1375
     53 H20        -0.4469   -0.9285   -2.6806 H         1 <0>         0.1384
     54 H21        -1.4342   -3.7330   -2.0077 H         1 <0>         0.1159
     55 H22         1.6798   -3.9677   -2.4748 H         1 <0>         0.0647
     56 H23         0.4839   -5.2438   -2.8059 H         1 <0>         0.0752
     57 H24         3.4902   -5.6386   -3.2748 H         1 <0>         0.0563
     58 H25         2.1691   -6.7991   -3.5506 H         1 <0>         0.0608
     59 H26         3.2554   -3.4133   -4.2604 H         1 <0>         0.3500
     60 H27         1.2734   -1.7649   -3.4551 H         1 <0>         0.3660
@<TRIPOS>BOND
     1    1    2 1
     2    1   36 1
     3    1   37 1
     4    1   38 1
     5    2    3 1
     6    2    4 1
     7    2   39 1
     8    3   40 1
     9    3   41 1
    10    3   42 1
    11    4    9 ar
    12    4    5 ar
    13    5    6 ar
    14    5   23 1
    15    6    7 ar
    16    6   16 1
    17    7    8 ar
    18    8    9 ar
    19    8   10 1
    20   10   11 1
    21   10   12 1
    22   11   43 1
    23   11   44 1
    24   11   45 1
    25   12   13 2
    26   12   14 2
    27   12   15 1
    28   15   46 1
    29   15   47 1
    30   15   48 1
    31   16   21 ar
    32   16   17 ar
    33   17   18 ar
    34   17   49 1
    35   18   19 ar
    36   18   50 1
    37   19   20 ar
    38   19   22 1
    39   20   21 ar
    40   20   51 1
    41   21   52 1
    42   23   24 2
    43   23   53 1
    44   24   25 1
    45   24   54 1
    46   25   26 1
    47   25   27 1
    48   25   35 1
    49   27   28 1
    50   27   55 1
    51   27   56 1
    52   28   29 1
    53   28   30 1
    54   28   34 1
    55   30   31 1
    56   30   57 1
    57   30   58 1
    58   31   32 2
    59   31   33 1
    60   34   59 1
    61   35   60 1
@<TRIPOS>MOLECULE
ZINC08681777
   65    67     0     0     0
SMALL
USER_CHARGES
[8-[2-(4-hydroxy-6-oxo-tetrahydropyran-2-yl)ethyl]-3,7-dimethyl-1,2,3,7,8,8a-hexahydronaphthalen-1-yl] 2-methylbutanoate
@<TRIPOS>ATOM
      1 C1          0.7539    2.6917   -1.9265 C.3       1 <0>        -0.1541
      2 C2          1.4485    2.1304   -0.6841 C.3       1 <0>        -0.1112
      3 C3          0.5142    2.2522    0.5214 C.3       1 <0>        -0.0842
      4 H1          0.1970    3.2891    0.6319 H         1 <0>         0.1074
      5 C4         -0.7128    1.3636    0.3075 C.3       1 <0>        -0.1466
      6 C5          1.2411    1.8137    1.7666 C.2       1 <0>         0.4592
      7 O1          2.3886    1.4420    1.6970 O.2       1 <0>        -0.5061
      8 O2          0.6136    1.8362    2.9530 O.3       1 <0>        -0.3416
      9 C6          1.3752    1.4001    4.1098 C.3       1 <0>         0.1030
     10 H2          2.1211    0.6730    3.7888 H         1 <0>         0.0878
     11 C7          2.0874    2.6061    4.7185 C.3       1 <0>        -0.1339
     12 C8          1.0241    3.6059    5.1947 C.3       1 <0>        -0.0564
     13 H3          1.5077    4.4901    5.6100 H         1 <0>         0.0776
     14 C9          0.2006    2.9252    6.2579 C.2       1 <0>        -0.1480
     15 C10        -0.0309    1.6266    6.2067 C.2       1 <0>        -0.0673
     16 C11         0.4394    0.7392    5.0924 C.3       1 <0>        -0.0450
     17 H4         -0.4435    0.4223    4.5373 H         1 <0>         0.0902
     18 C12         1.0458   -0.5218    5.7107 C.3       1 <0>        -0.0727
     19 H5          1.4308   -1.1695    4.9231 H         1 <0>         0.0804
     20 C13        -0.0447   -1.2566    6.4923 C.3       1 <0>        -0.0576
     21 H6         -0.7528   -1.6942    5.7885 H         1 <0>         0.0829
     22 C14        -0.7809   -0.3360    7.4170 C.2       1 <0>        -0.1385
     23 C15        -0.7939    0.9807    7.2995 C.2       1 <0>        -0.1268
     24 C16         0.5982   -2.3773    7.3118 C.3       1 <0>        -0.1497
     25 C17         2.1829   -0.1333    6.6577 C.3       1 <0>        -0.1159
     26 C18         1.6064    0.5858    7.8790 C.3       1 <0>        -0.1587
     27 C19         2.7252    0.8556    8.8871 C.3       1 <0>         0.1083
     28 H7          3.2286   -0.0797    9.1316 H         1 <0>         0.0813
     29 C20         2.1309    1.4647   10.1601 C.3       1 <0>        -0.1488
     30 C21         3.2598    1.7837   11.1452 C.3       1 <0>         0.1041
     31 H8          2.8406    2.2221   12.0508 H         1 <0>         0.0779
     32 C22         4.2260    2.7797   10.4924 C.3       1 <0>        -0.2056
     33 C23         4.6472    2.2256    9.1491 C.2       1 <0>         0.4944
     34 O3          5.8128    2.1769    8.8347 O.2       1 <0>        -0.4570
     35 O4          3.6836    1.7878    8.3121 O.3       1 <0>        -0.3699
     36 O5          3.9611    0.5832   11.4753 O.3       1 <0>        -0.5638
     37 C24         0.1274    4.0077    4.0219 C.3       1 <0>        -0.1360
     38 H9          1.4195    2.6049   -2.7853 H         1 <0>         0.0605
     39 H10        -0.1602    2.1293   -2.1169 H         1 <0>         0.0594
     40 H11         0.5074    3.7407   -1.7622 H         1 <0>         0.0564
     41 H12         1.6949    1.0814   -0.8483 H         1 <0>         0.0707
     42 H13         2.3625    2.6929   -0.4936 H         1 <0>         0.0719
     43 H14        -1.2385    1.6807   -0.5932 H         1 <0>         0.0744
     44 H15        -0.3956    0.3266    0.1969 H         1 <0>         0.0601
     45 H16        -1.3784    1.4503    1.1663 H         1 <0>         0.0688
     46 H17         2.6948    2.2852    5.5648 H         1 <0>         0.0926
     47 H18         2.7224    3.0754    3.9671 H         1 <0>         0.0706
     48 H19        -0.2049    3.5073    7.0722 H         1 <0>         0.1132
     49 H20        -1.3363   -0.7763    8.2320 H         1 <0>         0.1114
     50 H21        -1.3577    1.5823    7.9970 H         1 <0>         0.1222
     51 H22        -0.1816   -3.0004    7.7497 H         1 <0>         0.0571
     52 H23         1.2283   -2.9861    6.6633 H         1 <0>         0.0595
     53 H24         1.2059   -1.9439    8.1061 H         1 <0>         0.0621
     54 H25         2.7101   -1.0313    6.9801 H         1 <0>         0.0658
     55 H26         2.8766    0.5291    6.1400 H         1 <0>         0.0723
     56 H27         1.1620    1.5311    7.5677 H         1 <0>         0.1146
     57 H28         0.8431   -0.0396    8.3420 H         1 <0>         0.1064
     58 H29         1.5978    2.3819    9.9098 H         1 <0>         0.0943
     59 H30         1.4401    0.7546   10.6147 H         1 <0>         0.0962
     60 H31         5.1027    2.9103   11.1268 H         1 <0>         0.1058
     61 H32         3.7271    3.7389   10.3537 H         1 <0>         0.1167
     62 H33         4.6950    0.7132   12.0914 H         1 <0>         0.3857
     63 H34        -0.5578    3.1917    3.7923 H         1 <0>         0.0759
     64 H35        -0.4432    4.8972    4.2889 H         1 <0>         0.0479
     65 H36         0.7446    4.2204    3.1490 H         1 <0>         0.0483
@<TRIPOS>BOND
     1    1    2 1
     2    1   38 1
     3    1   39 1
     4    1   40 1
     5    2    3 1
     6    2   41 1
     7    2   42 1
     8    3    4 1
     9    3    5 1
    10    3    6 1
    11    5   43 1
    12    5   44 1
    13    5   45 1
    14    6    7 2
    15    6    8 1
    16    8    9 1
    17    9   10 1
    18    9   16 1
    19    9   11 1
    20   11   12 1
    21   11   46 1
    22   11   47 1
    23   12   13 1
    24   12   14 1
    25   12   37 1
    26   14   15 2
    27   14   48 1
    28   15   23 1
    29   15   16 1
    30   16   17 1
    31   16   18 1
    32   18   19 1
    33   18   20 1
    34   18   25 1
    35   20   21 1
    36   20   22 1
    37   20   24 1
    38   22   23 2
    39   22   49 1
    40   23   50 1
    41   24   51 1
    42   24   52 1
    43   24   53 1
    44   25   26 1
    45   25   54 1
    46   25   55 1
    47   26   27 1
    48   26   56 1
    49   26   57 1
    50   27   28 1
    51   27   35 1
    52   27   29 1
    53   29   30 1
    54   29   58 1
    55   29   59 1
    56   30   31 1
    57   30   32 1
    58   30   36 1
    59   32   33 1
    60   32   60 1
    61   32   61 1
    62   33   34 2
    63   33   35 1
    64   36   62 1
    65   37   63 1
    66   37   64 1
    67   37   65 1
@<TRIPOS>MOLECULE
ZINC08681779
   65    67     0     0     0
SMALL
USER_CHARGES

@<TRIPOS>ATOM
      1 C1          2.5324   -0.1047   -0.3849 C.3       1 <0>        -0.1544
      2 C2          2.5004   -1.5135    0.2110 C.3       1 <0>        -0.1102
      3 C3          1.2508   -1.6716    1.0796 C.3       1 <0>        -0.0933
      4 H1          1.2278   -0.8816    1.8302 H         1 <0>         0.1083
      5 C4          0.0028   -1.5758    0.1998 C.3       1 <0>        -0.1498
      6 C5          1.2813   -3.0139    1.7639 C.2       1 <0>         0.4712
      7 O1          2.2432   -3.7342    1.6386 O.2       1 <0>        -0.4834
      8 O2          0.2397   -3.4094    2.5125 O.3       1 <0>        -0.3376
      9 C6          0.2573   -4.7566    2.9885 C.3       1 <0>         0.1051
     10 H2         -0.7686   -5.1145    3.0764 H         1 <0>         0.1024
     11 C7          1.0030   -5.6294    1.9812 C.3       1 <0>        -0.1924
     12 C8          1.0382   -7.0668    2.5197 C.3       1 <0>        -0.0594
     13 H3          0.0221   -7.4227    2.6900 H         1 <0>         0.0760
     14 C9          1.7983   -7.0481    3.8211 C.2       1 <0>        -0.1356
     15 C10         1.7438   -6.0003    4.6220 C.2       1 <0>        -0.0869
     16 C11         0.9059   -4.7872    4.3511 C.3       1 <0>        -0.0610
     17 H4          0.1066   -4.7766    5.0921 H         1 <0>         0.0831
     18 C12         1.7641   -3.5475    4.6111 C.3       1 <0>        -0.0713
     19 H5          2.6537   -3.5800    3.9821 H         1 <0>         0.0766
     20 C13         2.1769   -3.5380    6.0840 C.3       1 <0>        -0.0562
     21 H6          2.9265   -2.7618    6.2380 H         1 <0>         0.0799
     22 C14         2.7453   -4.8572    6.5098 C.2       1 <0>        -0.1411
     23 C15         2.5502   -5.9923    5.8644 C.2       1 <0>        -0.1225
     24 C16         0.9507   -3.2243    6.9436 C.3       1 <0>        -0.1595
     25 C17         0.9561   -2.2879    4.2927 C.3       1 <0>        -0.1270
     26 C18         1.5464   -1.0979    5.0518 C.3       1 <0>        -0.1435
     27 C19         0.6559    0.1295    4.8481 C.3       1 <0>         0.1123
     28 H7          0.5289    0.3140    3.7814 H         1 <0>         0.0819
     29 C20         1.3091    1.3493    5.5035 C.3       1 <0>        -0.1546
     30 C21         0.3953    2.5672    5.3336 C.3       1 <0>         0.1044
     31 H8          0.8512    3.4351    5.8102 H         1 <0>         0.0788
     32 C22        -0.9566    2.2691    5.9943 C.3       1 <0>        -0.2054
     33 C23        -1.4670    0.9499    5.4569 C.2       1 <0>         0.4955
     34 O3         -2.5982    0.8420    5.0463 O.2       1 <0>        -0.4525
     35 O4         -0.6230   -0.1027    5.4488 O.3       1 <0>        -0.3644
     36 O5          0.2031    2.8310    3.9423 O.3       1 <0>        -0.5632
     37 C24         1.7463   -7.9795    1.5165 C.3       1 <0>        -0.1400
     38 H9          2.5542    0.6299    0.4200 H         1 <0>         0.0570
     39 H10         3.4227    0.0079   -1.0037 H         1 <0>         0.0603
     40 H11         1.6433    0.0517   -0.9957 H         1 <0>         0.0591
     41 H12         2.4787   -2.2481   -0.5940 H         1 <0>         0.0707
     42 H13         3.3896   -1.6700    0.8217 H         1 <0>         0.0739
     43 H14        -0.0670   -0.5740   -0.2241 H         1 <0>         0.0742
     44 H15         0.0690   -2.3073   -0.6056 H         1 <0>         0.0615
     45 H16        -0.8828   -1.7780    0.8022 H         1 <0>         0.0706
     46 H17         0.4843   -5.6089    1.0228 H         1 <0>         0.0632
     47 H18         2.0205   -5.2589    1.8567 H         1 <0>         0.1526
     48 H19         2.3950   -7.9033    4.1021 H         1 <0>         0.1127
     49 H20         3.3504   -4.8818    7.4040 H         1 <0>         0.1056
     50 H21         2.9810   -6.9095    6.2378 H         1 <0>         0.1172
     51 H22         0.1882   -3.9860    6.7808 H         1 <0>         0.0564
     52 H23         1.2369   -3.2157    7.9954 H         1 <0>         0.0531
     53 H24         0.5535   -2.2476    6.6672 H         1 <0>         0.0808
     54 H25         0.9963   -2.0915    3.2213 H         1 <0>         0.0886
     55 H26        -0.0804   -2.4346    4.5965 H         1 <0>         0.0816
     56 H27         1.6004   -1.3353    6.1143 H         1 <0>         0.0955
     57 H28         2.5473   -0.8871    4.6753 H         1 <0>         0.0823
     58 H29         1.4611    1.1540    6.5651 H         1 <0>         0.0954
     59 H30         2.2701    1.5465    5.0284 H         1 <0>         0.0973
     60 H31        -0.8305    2.2016    7.0749 H         1 <0>         0.1176
     61 H32        -1.6652    3.0620    5.7553 H         1 <0>         0.1071
     62 H33        -0.3667    3.5910    3.7612 H         1 <0>         0.3861
     63 H34         2.7663   -7.6277    1.3623 H         1 <0>         0.0577
     64 H35         1.7680   -8.9980    1.9044 H         1 <0>         0.0561
     65 H36         1.2090   -7.9632    0.5683 H         1 <0>         0.0556
@<TRIPOS>BOND
     1    1    2 1
     2    1   38 1
     3    1   39 1
     4    1   40 1
     5    2    3 1
     6    2   41 1
     7    2   42 1
     8    3    4 1
     9    3    5 1
    10    3    6 1
    11    5   43 1
    12    5   44 1
    13    5   45 1
    14    6    7 2
    15    6    8 1
    16    8    9 1
    17    9   10 1
    18    9   16 1
    19    9   11 1
    20   11   12 1
    21   11   46 1
    22   11   47 1
    23   12   13 1
    24   12   14 1
    25   12   37 1
    26   14   15 2
    27   14   48 1
    28   15   23 1
    29   15   16 1
    30   16   17 1
    31   16   18 1
    32   18   19 1
    33   18   20 1
    34   18   25 1
    35   20   21 1
    36   20   22 1
    37   20   24 1
    38   22   23 2
    39   22   49 1
    40   23   50 1
    41   24   51 1
    42   24   52 1
    43   24   53 1
    44   25   26 1
    45   25   54 1
    46   25   55 1
    47   26   27 1
    48   26   56 1
    49   26   57 1
    50   27   28 1
    51   27   35 1
    52   27   29 1
    53   29   30 1
    54   29   58 1
    55   29   59 1
    56   30   31 1
    57   30   32 1
    58   30   36 1
    59   32   33 1
    60   32   60 1
    61   32   61 1
    62   33   34 2
    63   33   35 1
    64   36   62 1
    65   37   63 1
    66   37   64 1
    67   37   65 1
@<TRIPOS>MOLECULE
ZINC27899841
   65    67     0     0     0
SMALL
USER_CHARGES
[(1S,3R,7S,8S,8aR)-8-[2-[(2S,4R)-4-hydroxy-6-oxo-tetrahydropyran-2-yl]ethyl]-3,7-dimethyl-1,2,3,7,8,8a-hexahydronaphthalen-1-yl] (2R)-2-methylbutanoate
@<TRIPOS>ATOM
      1 C1          1.9093    1.5550    0.0746 C.3       1 <0>        -0.1511
      2 C2          1.9923    1.1959   -1.4104 C.3       1 <0>        -0.1098
      3 C3          0.9004    1.9440   -2.1778 C.3       1 <0>        -0.0797
      4 H1         -0.0632    1.8351   -1.6585 H         1 <0>         0.1051
      5 C4          1.2721    3.4247   -2.2799 C.3       1 <0>        -0.1376
      6 C5          0.7706    1.3621   -3.5619 C.2       1 <0>         0.4517
      7 O1          1.7502    0.9553   -4.1405 O.2       1 <0>        -0.5076
      8 O2         -0.4332    1.2956   -4.1518 O.3       1 <0>        -0.3255
      9 C6         -0.4682    0.8355   -5.5286 C.3       1 <0>         0.0950
     10 H2          0.3147    1.3629   -6.0934 H         1 <0>         0.0762
     11 C7         -0.1982   -0.6674   -5.5573 C.3       1 <0>        -0.1371
     12 C8         -0.2714   -1.1651   -6.9858 C.3       1 <0>        -0.0588
     13 H3          0.4713   -0.6407   -7.6050 H         1 <0>         0.0831
     14 C9         -1.6582   -0.8885   -7.5064 C.2       1 <0>        -0.1380
     15 C10        -2.3453    0.1586   -7.0889 C.2       1 <0>        -0.0889
     16 C11        -1.8116    1.1788   -6.1276 C.3       1 <0>        -0.0377
     17 H4         -1.6058    2.0961   -6.6987 H         1 <0>         0.0840
     18 C12        -2.8783    1.3966   -5.0520 C.3       1 <0>        -0.0589
     19 H5         -3.1153    0.4426   -4.5583 H         1 <0>         0.0761
     20 C13        -4.1345    1.9640   -5.7151 C.3       1 <0>        -0.0633
     21 H6         -4.9659    1.9154   -4.9964 H         1 <0>         0.0831
     22 C14        -4.5414    1.1574   -6.9104 C.2       1 <0>        -0.1437
     23 C15        -3.7332    0.3403   -7.5632 C.2       1 <0>        -0.1229
     24 C16        -3.8601    3.4037   -6.1543 C.3       1 <0>        -0.1606
     25 C17        -2.3571    2.3824   -4.0044 C.3       1 <0>        -0.1058
     26 C18        -3.5384    3.0898   -3.3374 C.3       1 <0>        -0.1439
     27 C19        -3.0173    4.1950   -2.4167 C.3       1 <0>         0.1131
     28 H7         -2.3768    4.8938   -2.9748 H         1 <0>         0.0797
     29 C20        -4.1998    4.9267   -1.7756 C.3       1 <0>        -0.1523
     30 C21        -3.6737    5.9971   -0.8144 C.3       1 <0>         0.1179
     31 H8         -3.1035    6.7730   -1.3463 H         1 <0>         0.0627
     32 C22        -2.8300    5.3198    0.2724 C.3       1 <0>        -0.2055
     33 C23        -1.7872    4.4559   -0.4022 C.2       1 <0>         0.4899
     34 O3         -0.6237    4.5228   -0.0833 O.2       1 <0>        -0.4470
     35 O4         -2.1940    3.6081   -1.3700 O.3       1 <0>        -0.3685
     36 O5         -4.7742    6.6794   -0.2097 O.3       1 <0>        -0.5930
     37 C24         0.0096   -2.6684   -7.0329 C.3       1 <0>        -0.1438
     38 H9          2.6944    1.0171    0.6263 H         1 <0>         0.0576
     39 H10         0.9227    1.2672    0.4668 H         1 <0>         0.0551
     40 H11         2.0512    2.6388    0.1982 H         1 <0>         0.0621
     41 H12         2.9789    1.4837   -1.8026 H         1 <0>         0.0733
     42 H13         1.8505    0.1121   -1.5341 H         1 <0>         0.0637
     43 H14         0.4871    3.9626   -2.8316 H         1 <0>         0.0560
     44 H15         2.2295    3.5265   -2.8118 H         1 <0>         0.0566
     45 H16         1.3669    3.8494   -1.2696 H         1 <0>         0.0859
     46 H17         0.8036   -0.8678   -5.1496 H         1 <0>         0.0822
     47 H18        -0.9525   -1.1872   -4.9484 H         1 <0>         0.0730
     48 H19        -2.0968   -1.5750   -8.2455 H         1 <0>         0.1176
     49 H20        -5.5847    1.2769   -7.2380 H         1 <0>         0.1084
     50 H21        -4.0953   -0.1978   -8.4516 H         1 <0>         0.1208
     51 H22        -4.7595    3.8189   -6.6324 H         1 <0>         0.0564
     52 H23        -3.0253    3.4157   -6.8706 H         1 <0>         0.0587
     53 H24        -3.5982    4.0115   -5.2757 H         1 <0>         0.0774
     54 H25        -1.7791    1.8374   -3.2436 H         1 <0>         0.1071
     55 H26        -1.7110    3.1276   -4.4915 H         1 <0>         0.0609
     56 H27        -4.1853    3.5309   -4.1100 H         1 <0>         0.1112
     57 H28        -4.1155    2.3627   -2.7472 H         1 <0>         0.0780
     58 H29        -4.8054    5.4031   -2.5606 H         1 <0>         0.0977
     59 H30        -4.8193    4.2067   -1.2208 H         1 <0>         0.0919
     60 H31        -2.3407    6.0883    0.8888 H         1 <0>         0.1047
     61 H32        -3.4795    4.6993    0.9073 H         1 <0>         0.1160
     62 H33        -4.5900    7.4869    0.5142 H         1 <0>         0.4150
     63 H34        -0.0460   -3.0193   -8.0739 H         1 <0>         0.0595
     64 H35        -0.7380   -3.2003   -6.4262 H         1 <0>         0.0570
     65 H36         1.0148   -2.8662   -6.6324 H         1 <0>         0.0590
@<TRIPOS>BOND
     1    1    2 1
     2    1   38 1
     3    1   39 1
     4    1   40 1
     5    2    3 1
     6    2   41 1
     7    2   42 1
     8    3    4 1
     9    3    5 1
    10    3    6 1
    11    5   43 1
    12    5   44 1
    13    5   45 1
    14    6    7 2
    15    6    8 1
    16    8    9 1
    17    9   10 1
    18    9   16 1
    19    9   11 1
    20   11   12 1
    21   11   46 1
    22   11   47 1
    23   12   13 1
    24   12   14 1
    25   12   37 1
    26   14   15 2
    27   14   48 1
    28   15   23 1
    29   15   16 1
    30   16   17 1
    31   16   18 1
    32   18   19 1
    33   18   20 1
    34   18   25 1
    35   20   21 1
    36   20   22 1
    37   20   24 1
    38   22   23 2
    39   22   49 1
    40   23   50 1
    41   24   51 1
    42   24   52 1
    43   24   53 1
    44   25   26 1
    45   25   54 1
    46   25   55 1
    47   26   27 1
    48   26   56 1
    49   26   57 1
    50   27   28 1
    51   27   35 1
    52   27   29 1
    53   29   30 1
    54   29   58 1
    55   29   59 1
    56   30   31 1
    57   30   32 1
    58   30   36 1
    59   32   33 1
    60   32   60 1
    61   32   61 1
    62   33   34 2
    63   33   35 1
    64   36   62 1
    65   37   63 1
    66   37   64 1
    67   37   65 1
@<TRIPOS>MOLECULE
ZINC27899846
   65    67     0     0     0
SMALL
USER_CHARGES
[(1S,3R,7S,8S,8aS)-8-[2-[(2S,4R)-4-hydroxy-6-oxo-tetrahydropyran-2-yl]ethyl]-3,7-dimethyl-1,2,3,7,8,8a-hexahydronaphthalen-1-yl] (2R)-2-methylbutanoate
@<TRIPOS>ATOM
      1 C1         13.1958   -0.4800    2.8448 C.3       1 <0>        -0.1558
      2 C2         11.7765   -0.1633    2.3692 C.3       1 <0>        -0.1116
      3 C3         10.9657    0.4129    3.5317 C.3       1 <0>        -0.0846
      4 H1         10.9824   -0.2853    4.3815 H         1 <0>         0.1082
      5 C4         11.5615    1.7582    3.9516 C.3       1 <0>        -0.1490
      6 C5          9.5360    0.6102    3.0980 C.2       1 <0>         0.4577
      7 O1          9.2001    0.3196    1.9743 O.2       1 <0>        -0.5058
      8 O2          8.6359    1.1086    3.9599 O.3       1 <0>        -0.3394
      9 C6          7.2774    1.2715    3.4736 C.3       1 <0>         0.0968
     10 H2          7.3158    1.5009    2.3985 H         1 <0>         0.0893
     11 C7          6.5117   -0.0315    3.6938 C.3       1 <0>        -0.1342
     12 C8          6.4661   -0.3165    5.2013 C.3       1 <0>        -0.0560
     13 H3          5.9459   -1.2632    5.4090 H         1 <0>         0.0785
     14 C9          5.7303    0.8207    5.8617 C.2       1 <0>        -0.1566
     15 C10         5.7985    2.0472    5.3782 C.2       1 <0>        -0.0636
     16 C11         6.6337    2.4330    4.1935 C.3       1 <0>        -0.0483
     17 H4          7.4919    3.0035    4.5782 H         1 <0>         0.0943
     18 C12         5.7692    3.2783    3.2553 C.3       1 <0>        -0.0675
     19 H5          6.3404    3.5400    2.3524 H         1 <0>         0.0815
     20 C13         5.3463    4.5507    3.9912 C.3       1 <0>        -0.0590
     21 H6          6.2365    5.1755    4.1561 H         1 <0>         0.0832
     22 C14         4.7705    4.2442    5.3401 C.2       1 <0>        -0.1335
     23 C15         4.9714    3.1120    5.9917 C.2       1 <0>        -0.1363
     24 C16         4.2961    5.2852    3.1553 C.3       1 <0>        -0.1535
     25 C17         4.5265    2.4842    2.8476 C.3       1 <0>        -0.1202
     26 C18         3.6079    2.3170    4.0597 C.3       1 <0>        -0.1588
     27 C19         2.3034    1.6476    3.6224 C.3       1 <0>         0.1078
     28 H7          2.5108    0.7187    3.0709 H         1 <0>         0.0752
     29 C20         1.4322    1.3732    4.8513 C.3       1 <0>        -0.1476
     30 C21         0.1054    0.7517    4.4045 C.3       1 <0>         0.1177
     31 H8          0.2580   -0.2288    3.9298 H         1 <0>         0.0626
     32 C22        -0.6121    1.7295    3.4659 C.3       1 <0>        -0.2039
     33 C23         0.3466    2.1236    2.3639 C.2       1 <0>         0.4906
     34 O3          0.0129    2.0771    1.2036 O.2       1 <0>        -0.4540
     35 O4          1.5851    2.5292    2.7142 O.3       1 <0>        -0.3725
     36 O5         -0.7134    0.4985    5.5480 O.3       1 <0>        -0.5924
     37 C24         7.8895   -0.4043    5.7556 C.3       1 <0>        -0.1595
     38 H9         13.7787   -0.8943    2.0090 H         1 <0>         0.0611
     39 H10        13.1532   -1.2151    3.6620 H         1 <0>         0.0569
     40 H11        13.6759    0.4417    3.2054 H         1 <0>         0.0601
     41 H12        11.8191    0.5718    1.5520 H         1 <0>         0.0715
     42 H13        11.2964   -1.0850    2.0086 H         1 <0>         0.0723
     43 H14        10.9786    2.1725    4.7874 H         1 <0>         0.0695
     44 H15        11.5292    2.4550    3.1011 H         1 <0>         0.0611
     45 H16        12.6051    1.6142    4.2682 H         1 <0>         0.0757
     46 H17         5.4903    0.0723    3.2990 H         1 <0>         0.0863
     47 H18         7.0254   -0.8516    3.1708 H         1 <0>         0.0732
     48 H19         5.1295    0.6163    6.7602 H         1 <0>         0.1173
     49 H20         4.1467    5.0326    5.7867 H         1 <0>         0.1138
     50 H21         4.5251    2.9630    6.9860 H         1 <0>         0.1245
     51 H22         3.9868    6.2021    3.6784 H         1 <0>         0.0560
     52 H23         3.4220    4.6335    3.0097 H         1 <0>         0.0732
     53 H24         4.7245    5.5481    2.1769 H         1 <0>         0.0582
     54 H25         3.9907    3.0242    2.0531 H         1 <0>         0.0786
     55 H26         4.8294    1.4936    2.4776 H         1 <0>         0.0650
     56 H27         4.1066    1.6906    4.8140 H         1 <0>         0.1252
     57 H28         3.3867    3.3044    4.4911 H         1 <0>         0.1031
     58 H29         1.9558    0.6781    5.5241 H         1 <0>         0.0972
     59 H30         1.2362    2.3176    5.3801 H         1 <0>         0.0908
     60 H31        -1.4992    1.2412    3.0363 H         1 <0>         0.1052
     61 H32        -0.9219    2.6205    4.0318 H         1 <0>         0.1170
     62 H33        -1.7103    0.0508    5.4224 H         1 <0>         0.4147
     63 H34         7.8504   -0.6086    6.8358 H         1 <0>         0.0503
     64 H35         8.4103    0.5488    5.5813 H         1 <0>         0.0959
     65 H36         8.4311   -1.2162    5.2482 H         1 <0>         0.0468
@<TRIPOS>BOND
     1    1    2 1
     2    1   38 1
     3    1   39 1
     4    1   40 1
     5    2    3 1
     6    2   41 1
     7    2   42 1
     8    3    4 1
     9    3    5 1
    10    3    6 1
    11    5   43 1
    12    5   44 1
    13    5   45 1
    14    6    7 2
    15    6    8 1
    16    8    9 1
    17    9   10 1
    18    9   16 1
    19    9   11 1
    20   11   12 1
    21   11   46 1
    22   11   47 1
    23   12   13 1
    24   12   14 1
    25   12   37 1
    26   14   15 2
    27   14   48 1
    28   15   23 1
    29   15   16 1
    30   16   17 1
    31   16   18 1
    32   18   19 1
    33   18   20 1
    34   18   25 1
    35   20   21 1
    36   20   22 1
    37   20   24 1
    38   22   23 2
    39   22   49 1
    40   23   50 1
    41   24   51 1
    42   24   52 1
    43   24   53 1
    44   25   26 1
    45   25   54 1
    46   25   55 1
    47   26   27 1
    48   26   56 1
    49   26   57 1
    50   27   28 1
    51   27   35 1
    52   27   29 1
    53   29   30 1
    54   29   58 1
    55   29   59 1
    56   30   31 1
    57   30   32 1
    58   30   36 1
    59   32   33 1
    60   32   60 1
    61   32   61 1
    62   33   34 2
    63   33   35 1
    64   36   62 1
    65   37   63 1
    66   37   64 1
    67   37   65 1
@<TRIPOS>MOLECULE
ZINC04245612
   68    70     0     0     0
SMALL
USER_CHARGES
[8-[2-(4-hydroxy-6-oxo-tetrahydropyran-2-yl)ethyl]-3,7-dimethyl-1,2,3,7,8,8a-hexahydronaphthalen-1-yl] 2,2-dimethylbutanoate
@<TRIPOS>ATOM
      1 C1         -1.2889   -2.3084   -1.5960 C.3       1 <0>        -0.1544
      2 C2         -2.4735   -1.3433   -1.6747 C.3       1 <0>        -0.1045
      3 C3         -2.4986   -0.4635   -0.4232 C.3       1 <0>        -0.0556
      4 C4         -1.2469    0.4158   -0.3928 C.3       1 <0>        -0.1461
      5 C5         -2.5293   -1.3504    0.8231 C.3       1 <0>        -0.1429
      6 C6         -3.7260    0.4105   -0.4481 C.2       1 <0>         0.4583
      7 O1         -4.5233    0.3067   -1.3500 O.2       1 <0>        -0.5048
      8 O2         -3.9334    1.3043    0.5315 O.3       1 <0>        -0.3258
      9 C7         -5.0693    2.1961    0.3806 C.3       1 <0>         0.0986
     10 H1         -5.1124    2.5435   -0.6517 H         1 <0>         0.0780
     11 C8         -6.3502    1.4276    0.6985 C.3       1 <0>        -0.1332
     12 C9         -7.5394    2.3862    0.5466 C.3       1 <0>        -0.0594
     13 H2         -7.5596    2.7924   -0.4647 H         1 <0>         0.0841
     14 C10        -7.3589    3.5031    1.5418 C.2       1 <0>        -0.1350
     15 C11        -6.1546    3.9222    1.8833 C.2       1 <0>        -0.0893
     16 C12        -4.8845    3.3861    1.2924 C.3       1 <0>        -0.0410
     17 H3         -4.4328    4.1852    0.7046 H         1 <0>         0.0840
     18 C13        -3.9158    3.0836    2.4379 C.3       1 <0>        -0.0643
     19 H4         -4.3758    2.3770    3.1287 H         1 <0>         0.0764
     20 C14        -3.6014    4.3880    3.1722 C.3       1 <0>        -0.0623
     21 H5         -3.0516    4.1586    4.0850 H         1 <0>         0.0876
     22 C15        -4.8492    5.1371    3.5283 C.2       1 <0>        -0.1403
     23 C16        -6.0206    4.9443    2.9472 C.2       1 <0>        -0.1211
     24 C17        -2.7297    5.2685    2.2745 C.3       1 <0>        -0.1698
     25 C18        -2.6242    2.4880    1.8740 C.3       1 <0>        -0.1104
     26 C19        -1.4670    2.7813    2.8310 C.3       1 <0>        -0.1401
     27 C20        -0.3074    3.4060    2.0527 C.3       1 <0>         0.1047
     28 H6         -0.7004    4.0876    1.2982 H         1 <0>         0.0897
     29 C21         0.5990    4.1771    3.0162 C.3       1 <0>        -0.1564
     30 C22         1.7870    4.7565    2.2420 C.3       1 <0>         0.1085
     31 H7          1.4232    5.4296    1.4657 H         1 <0>         0.0660
     32 C23         2.5709    3.6063    1.5982 C.3       1 <0>        -0.2065
     33 C24         1.6045    2.7565    0.8029 C.2       1 <0>         0.4894
     34 O3          1.8457    2.4447   -0.3393 O.2       1 <0>        -0.4483
     35 O4          0.4657    2.3562    1.4059 O.3       1 <0>        -0.3648
     36 O5          2.6386    5.4729    3.1385 O.3       1 <0>        -0.5556
     37 C25        -8.8458    1.6430    0.8327 C.3       1 <0>        -0.1421
     38 H8         -1.4374   -2.9990   -0.7659 H         1 <0>         0.0586
     39 H9         -1.2154   -2.8701   -2.5273 H         1 <0>         0.0581
     40 H10        -0.3700   -1.7436   -1.4389 H         1 <0>         0.0602
     41 H11        -3.4015   -1.9116   -1.7380 H         1 <0>         0.0700
     42 H12        -2.3716   -0.7143   -2.5591 H         1 <0>         0.0685
     43 H13        -0.4098   -0.1575    0.0056 H         1 <0>         0.0718
     44 H14        -1.0114    0.7478   -1.4039 H         1 <0>         0.0583
     45 H15        -1.4277    1.2834    0.2417 H         1 <0>         0.0804
     46 H16        -2.5471   -0.7237    1.7147 H         1 <0>         0.0680
     47 H17        -3.4210   -1.9769    0.8014 H         1 <0>         0.0587
     48 H18        -1.6415   -1.9826    0.8412 H         1 <0>         0.0758
     49 H19        -6.4599    0.5938    0.0051 H         1 <0>         0.0798
     50 H20        -6.3092    1.0526    1.7211 H         1 <0>         0.0742
     51 H21        -8.2284    3.9683    1.9824 H         1 <0>         0.1160
     52 H22        -4.7877    5.8809    4.3089 H         1 <0>         0.1075
     53 H23        -6.8772    5.5296    3.2473 H         1 <0>         0.1188
     54 H24        -2.4694    6.1839    2.8059 H         1 <0>         0.0575
     55 H25        -1.8193    4.7300    2.0111 H         1 <0>         0.0753
     56 H26        -3.2792    5.5188    1.3671 H         1 <0>         0.0578
     57 H27        -2.7395    1.4098    1.7630 H         1 <0>         0.1067
     58 H28        -2.4132    2.9329    0.9016 H         1 <0>         0.0648
     59 H29        -1.8010    3.4739    3.6035 H         1 <0>         0.1044
     60 H30        -1.1348    1.8525    3.2948 H         1 <0>         0.0823
     61 H31         0.0344    4.9881    3.4763 H         1 <0>         0.0995
     62 H32         0.9635    3.5026    3.7910 H         1 <0>         0.0926
     63 H33         3.3364    4.0097    0.9353 H         1 <0>         0.1055
     64 H34         3.0393    3.0015    2.3746 H         1 <0>         0.1169
     65 H35         3.4130    5.8673    2.7145 H         1 <0>         0.3854
     66 H36        -9.6832    2.3361    0.7523 H         1 <0>         0.0593
     67 H37        -8.9709    0.8367    0.1101 H         1 <0>         0.0588
     68 H38        -8.8140    1.2268    1.8396 H         1 <0>         0.0572
@<TRIPOS>BOND
     1    1    2 1
     2    1   38 1
     3    1   39 1
     4    1   40 1
     5    2    3 1
     6    2   41 1
     7    2   42 1
     8    3    4 1
     9    3    5 1
    10    3    6 1
    11    4   43 1
    12    4   44 1
    13    4   45 1
    14    5   46 1
    15    5   47 1
    16    5   48 1
    17    6    7 2
    18    6    8 1
    19    8    9 1
    20    9   10 1
    21    9   16 1
    22    9   11 1
    23   11   12 1
    24   11   49 1
    25   11   50 1
    26   12   13 1
    27   12   14 1
    28   12   37 1
    29   14   15 2
    30   14   51 1
    31   15   23 1
    32   15   16 1
    33   16   17 1
    34   16   18 1
    35   18   19 1
    36   18   20 1
    37   18   25 1
    38   20   21 1
    39   20   22 1
    40   20   24 1
    41   22   23 2
    42   22   52 1
    43   23   53 1
    44   24   54 1
    45   24   55 1
    46   24   56 1
    47   25   26 1
    48   25   57 1
    49   25   58 1
    50   26   27 1
    51   26   59 1
    52   26   60 1
    53   27   28 1
    54   27   35 1
    55   27   29 1
    56   29   30 1
    57   29   61 1
    58   29   62 1
    59   30   31 1
    60   30   32 1
    61   30   36 1
    62   32   33 1
    63   32   63 1
    64   32   64 1
    65   33   34 2
    66   33   35 1
    67   36   65 1
    68   37   66 1
    69   37   67 1
    70   37   68 1
@<TRIPOS>MOLECULE
ZINC26504552
   68    70     0     0     0
SMALL
USER_CHARGES
[(1S,3R,7S,8S,8aS)-8-[2-[(2R,4R)-4-hydroxy-6-oxo-tetrahydropyran-2-yl]ethyl]-3,7-dimethyl-1,2,3,7,8,8a-hexahydronaphthalen-1-yl] 2,2-dimethylbutanoate
@<TRIPOS>ATOM
      1 C1          3.2533    8.2956   -4.7520 C.3       1 <0>        -0.1576
      2 C2          3.1581    7.8273   -3.2985 C.3       1 <0>        -0.1068
      3 C3          2.4944    6.4497   -3.2489 C.3       1 <0>        -0.0528
      4 C4          3.3304    5.4516   -4.0526 C.3       1 <0>        -0.1465
      5 C5          1.0899    6.5383   -3.8492 C.3       1 <0>        -0.1503
      6 C6          2.4007    5.9884   -1.8173 C.2       1 <0>         0.4640
      7 O1          2.8216    6.6897   -0.9279 O.2       1 <0>        -0.5051
      8 O2          1.8497    4.7986   -1.5302 O.3       1 <0>        -0.3382
      9 C7          1.7928    4.4192   -0.1299 C.3       1 <0>         0.0973
     10 H1          2.6629    4.8510    0.3863 H         1 <0>         0.0874
     11 C8          0.5075    4.9718    0.4824 C.3       1 <0>        -0.1334
     12 C9         -0.6862    4.3288   -0.2380 C.3       1 <0>        -0.0556
     13 H2         -1.6401    4.7237    0.1416 H         1 <0>         0.0766
     14 C10        -0.6188    2.8432    0.0069 C.2       1 <0>        -0.1446
     15 C11         0.5435    2.2280    0.1218 C.2       1 <0>        -0.0719
     16 C12         1.8688    2.9153   -0.0255 C.3       1 <0>        -0.0455
     17 H3          2.2778    2.6187   -1.0026 H         1 <0>         0.0917
     18 C13         2.7715    2.4603    1.1228 C.3       1 <0>        -0.0685
     19 H4          3.7375    2.9840    1.0713 H         1 <0>         0.0802
     20 C14         2.9893    0.9508    1.0056 C.3       1 <0>        -0.0588
     21 H5          3.5966    0.7509    0.1104 H         1 <0>         0.0831
     22 C15         1.6961    0.2154    0.8287 C.2       1 <0>        -0.1443
     23 C16         0.5718    0.7774    0.4191 C.2       1 <0>        -0.1279
     24 C17         3.6802    0.4466    2.2742 C.3       1 <0>        -0.1527
     25 C18         2.1010    2.7800    2.4605 C.3       1 <0>        -0.1183
     26 C19         0.9532    1.7979    2.7032 C.3       1 <0>        -0.1500
     27 C20         0.3800    2.0196    4.1043 C.3       1 <0>         0.1090
     28 H6          1.1797    1.9909    4.8590 H         1 <0>         0.0811
     29 C21        -0.6859    0.9594    4.3947 C.3       1 <0>        -0.1474
     30 C22        -1.2956    1.2175    5.7761 C.3       1 <0>         0.1144
     31 H7         -2.0227    0.4382    6.0482 H         1 <0>         0.0736
     32 C23        -1.9312    2.6131    5.7888 C.3       1 <0>        -0.2050
     33 C24        -0.8982    3.6123    5.3164 C.2       1 <0>         0.4968
     34 O3         -0.6818    4.6244    5.9398 O.2       1 <0>        -0.4586
     35 O4         -0.2257    3.3409    4.1784 O.3       1 <0>        -0.3735
     36 O5         -0.2729    1.1485    6.7718 O.3       1 <0>        -0.6001
     37 C25        -0.6019    4.6144   -1.7387 C.3       1 <0>        -0.1594
     38 H8          3.7305    9.2861   -4.7876 H         1 <0>         0.0600
     39 H9          2.2435    8.3594   -5.1835 H         1 <0>         0.0605
     40 H10         3.8543    7.5780   -5.3298 H         1 <0>         0.0604
     41 H11         4.1679    7.7635   -2.8670 H         1 <0>         0.0710
     42 H12         2.5571    8.5449   -2.7207 H         1 <0>         0.0712
     43 H13         2.8532    4.4611   -4.0169 H         1 <0>         0.0694
     44 H14         4.3402    5.3879   -3.6211 H         1 <0>         0.0604
     45 H15         3.3988    5.7883   -5.0976 H         1 <0>         0.0765
     46 H16         0.6128    5.5478   -3.8135 H         1 <0>         0.0735
     47 H17         1.1584    6.8749   -4.8942 H         1 <0>         0.0758
     48 H18         0.4888    7.2559   -3.2715 H         1 <0>         0.0608
     49 H19         0.4772    4.7269    1.5544 H         1 <0>         0.0925
     50 H20         0.4807    6.0641    0.3550 H         1 <0>         0.0705
     51 H21        -1.5546    2.2709    0.0898 H         1 <0>         0.1140
     52 H22         1.7202   -0.8589    1.0637 H         1 <0>         0.1128
     53 H23        -0.3363    0.1681    0.3007 H         1 <0>         0.1230
     54 H24         3.8405   -0.6390    2.1976 H         1 <0>         0.0577
     55 H25         3.0471    0.6631    3.1473 H         1 <0>         0.0665
     56 H26         4.6498    0.9532    2.3897 H         1 <0>         0.0594
     57 H27         2.8388    2.6894    3.2713 H         1 <0>         0.0661
     58 H28         1.7065    3.8065    2.4368 H         1 <0>         0.0749
     59 H29         0.1648    1.9630    1.9541 H         1 <0>         0.1112
     60 H30         1.3285    0.7673    2.6194 H         1 <0>         0.1073
     61 H31        -1.4740    1.0125    3.6292 H         1 <0>         0.0957
     62 H32        -0.2244   -0.0390    4.3771 H         1 <0>         0.0961
     63 H33        -2.8019    2.6256    5.1167 H         1 <0>         0.1156
     64 H34        -2.2536    2.8599    6.8111 H         1 <0>         0.1057
     65 H35        -0.5244    1.3087    7.8306 H         1 <0>         0.4158
     66 H36        -1.4594    4.1513   -2.2488 H         1 <0>         0.0486
     67 H37         0.3330    4.1958   -2.1396 H         1 <0>         0.0951
     68 H38        -0.6187    5.7014   -1.9066 H         1 <0>         0.0499
@<TRIPOS>BOND
     1    1    2 1
     2    1   38 1
     3    1   39 1
     4    1   40 1
     5    2    3 1
     6    2   41 1
     7    2   42 1
     8    3    4 1
     9    3    5 1
    10    3    6 1
    11    4   43 1
    12    4   44 1
    13    4   45 1
    14    5   46 1
    15    5   47 1
    16    5   48 1
    17    6    7 2
    18    6    8 1
    19    8    9 1
    20    9   10 1
    21    9   16 1
    22    9   11 1
    23   11   12 1
    24   11   49 1
    25   11   50 1
    26   12   13 1
    27   12   14 1
    28   12   37 1
    29   14   15 2
    30   14   51 1
    31   15   23 1
    32   15   16 1
    33   16   17 1
    34   16   18 1
    35   18   19 1
    36   18   20 1
    37   18   25 1
    38   20   21 1
    39   20   22 1
    40   20   24 1
    41   22   23 2
    42   22   52 1
    43   23   53 1
    44   24   54 1
    45   24   55 1
    46   24   56 1
    47   25   26 1
    48   25   57 1
    49   25   58 1
    50   26   27 1
    51   26   59 1
    52   26   60 1
    53   27   28 1
    54   27   35 1
    55   27   29 1
    56   29   30 1
    57   29   61 1
    58   29   62 1
    59   30   31 1
    60   30   32 1
    61   30   36 1
    62   32   33 1
    63   32   63 1
    64   32   64 1
    65   33   34 2
    66   33   35 1
    67   36   65 1
    68   37   66 1
    69   37   67 1
    70   37   68 1
@<TRIPOS>MOLECULE
ZINC26504557
   68    70     0     0     0
SMALL
USER_CHARGES
[(1S,3R,7S,8S,8aS)-8-[2-[(2S,4R)-4-hydroxy-6-oxo-tetrahydropyran-2-yl]ethyl]-3,7-dimethyl-1,2,3,7,8,8a-hexahydronaphthalen-1-yl] 2,2-dimethylbutanoate
@<TRIPOS>ATOM
      1 C1         -6.1170    6.9045   -5.5767 C.3       1 <0>        -0.1578
      2 C2         -5.6298    6.8889   -4.1264 C.3       1 <0>        -0.1066
      3 C3         -4.7322    5.6702   -3.9031 C.3       1 <0>        -0.0528
      4 C4         -3.5285    5.7440   -4.8446 C.3       1 <0>        -0.1469
      5 C5         -5.5254    4.3934   -4.1884 C.3       1 <0>        -0.1503
      6 C6         -4.2524    5.6548   -2.4746 C.2       1 <0>         0.4645
      7 O1         -4.5934    6.5289   -1.7133 O.2       1 <0>        -0.5054
      8 O2         -3.4462    4.6700   -2.0479 O.3       1 <0>        -0.3374
      9 C7         -3.0232    4.7192   -0.6598 C.3       1 <0>         0.0963
     10 H1         -2.9463    5.7729   -0.3535 H         1 <0>         0.0884
     11 C8         -4.0653    4.0094    0.2021 C.3       1 <0>        -0.1324
     12 C9         -4.1272    2.5371   -0.2291 C.3       1 <0>        -0.0571
     13 H2         -4.8930    1.9890    0.3393 H         1 <0>         0.0778
     14 C10        -2.7721    1.9291    0.0273 C.2       1 <0>        -0.1515
     15 C11        -1.6812    2.6520   -0.0926 C.2       1 <0>        -0.0687
     16 C12        -1.6600    4.0824   -0.5394 C.3       1 <0>        -0.0470
     17 H3         -1.2824    4.0920   -1.5725 H         1 <0>         0.0937
     18 C13        -0.7375    4.8643    0.3978 C.3       1 <0>        -0.0673
     19 H4         -0.7376    5.9288    0.1205 H         1 <0>         0.0810
     20 C14         0.6768    4.2934    0.2809 C.3       1 <0>        -0.0587
     21 H5          1.0705    4.5296   -0.7187 H         1 <0>         0.0827
     22 C15         0.6857    2.8010    0.4117 C.2       1 <0>        -0.1356
     23 C16        -0.3771    2.0338    0.2403 C.2       1 <0>        -0.1377
     24 C17         1.5505    4.8959    1.3830 C.3       1 <0>        -0.1554
     25 C18        -1.2291    4.7267    1.8402 C.3       1 <0>        -0.1202
     26 C19        -0.9123    3.3211    2.3550 C.3       1 <0>        -0.1474
     27 C20        -1.2687    3.2296    3.8401 C.3       1 <0>         0.1068
     28 H6         -2.3041    3.5594    4.0108 H         1 <0>         0.0762
     29 C21        -1.0629    1.7929    4.3281 C.3       1 <0>        -0.1479
     30 C22        -1.3697    1.7169    5.8269 C.3       1 <0>         0.1178
     31 H7         -2.4247    1.9480    6.0359 H         1 <0>         0.0628
     32 C23        -0.4238    2.6620    6.5778 C.3       1 <0>        -0.2040
     33 C24        -0.5170    4.0328    5.9447 C.2       1 <0>         0.4908
     34 O3         -0.6847    5.0198    6.6212 O.2       1 <0>        -0.4536
     35 O4         -0.4078    4.1215    4.6026 O.3       1 <0>        -0.3725
     36 O5         -1.1740    0.3785    6.2879 O.3       1 <0>        -0.5923
     37 C25        -4.4633    2.4464   -1.7190 C.3       1 <0>        -0.1601
     38 H8         -6.7624    7.7807   -5.7373 H         1 <0>         0.0601
     39 H9         -6.6873    5.9865   -5.7818 H         1 <0>         0.0606
     40 H10        -5.2516    6.9575   -6.2536 H         1 <0>         0.0606
     41 H11        -5.0595    7.8069   -3.9213 H         1 <0>         0.0711
     42 H12        -6.4952    6.8359   -3.4494 H         1 <0>         0.0711
     43 H13        -2.8832    4.8678   -4.6840 H         1 <0>         0.0696
     44 H14        -2.9582    6.6620   -4.6393 H         1 <0>         0.0606
     45 H15        -3.8787    5.7553   -5.8873 H         1 <0>         0.0768
     46 H16        -4.8800    3.5172   -4.0278 H         1 <0>         0.0735
     47 H17        -5.8757    4.4047   -5.2311 H         1 <0>         0.0761
     48 H18        -6.3908    4.3404   -3.5114 H         1 <0>         0.0608
     49 H19        -3.7752    4.0801    1.2608 H         1 <0>         0.0853
     50 H20        -5.0463    4.4858    0.0581 H         1 <0>         0.0727
     51 H21        -2.7012    0.8703    0.3171 H         1 <0>         0.1171
     52 H22         1.6552    2.3485    0.6675 H         1 <0>         0.1128
     53 H23        -0.2901    0.9423    0.3451 H         1 <0>         0.1240
     54 H24         2.5700    4.4900    1.3057 H         1 <0>         0.0559
     55 H25         1.1280    4.6412    2.3662 H         1 <0>         0.0747
     56 H26         1.5816    5.9896    1.2694 H         1 <0>         0.0582
     57 H27        -0.7235    5.4714    2.4725 H         1 <0>         0.0779
     58 H28        -2.3158    4.8936    1.8747 H         1 <0>         0.0659
     59 H29        -1.5006    2.5827    1.7905 H         1 <0>         0.1195
     60 H30         0.1599    3.1148    2.2218 H         1 <0>         0.1021
     61 H31        -1.7380    1.1193    3.7800 H         1 <0>         0.0974
     62 H32        -0.0201    1.4911    4.1505 H         1 <0>         0.0911
     63 H33        -0.7217    2.7148    7.6354 H         1 <0>         0.1053
     64 H34         0.6064    2.2833    6.5056 H         1 <0>         0.1171
     65 H35        -1.3475    0.1301    7.3454 H         1 <0>         0.4148
     66 H36        -4.5061    1.3897   -2.0215 H         1 <0>         0.0497
     67 H37        -3.6871    2.9636   -2.3021 H         1 <0>         0.0955
     68 H38        -5.4383    2.9207   -1.9045 H         1 <0>         0.0501
@<TRIPOS>BOND
     1    1    2 1
     2    1   38 1
     3    1   39 1
     4    1   40 1
     5    2    3 1
     6    2   41 1
     7    2   42 1
     8    3    4 1
     9    3    5 1
    10    3    6 1
    11    4   43 1
    12    4   44 1
    13    4   45 1
    14    5   46 1
    15    5   47 1
    16    5   48 1
    17    6    7 2
    18    6    8 1
    19    8    9 1
    20    9   10 1
    21    9   16 1
    22    9   11 1
    23   11   12 1
    24   11   49 1
    25   11   50 1
    26   12   13 1
    27   12   14 1
    28   12   37 1
    29   14   15 2
    30   14   51 1
    31   15   23 1
    32   15   16 1
    33   16   17 1
    34   16   18 1
    35   18   19 1
    36   18   20 1
    37   18   25 1
    38   20   21 1
    39   20   22 1
    40   20   24 1
    41   22   23 2
    42   22   52 1
    43   23   53 1
    44   24   54 1
    45   24   55 1
    46   24   56 1
    47   25   26 1
    48   25   57 1
    49   25   58 1
    50   26   27 1
    51   26   59 1
    52   26   60 1
    53   27   28 1
    54   27   35 1
    55   27   29 1
    56   29   30 1
    57   29   61 1
    58   29   62 1
    59   30   31 1
    60   30   32 1
    61   30   36 1
    62   32   33 1
    63   32   63 1
    64   32   64 1
    65   33   34 2
    66   33   35 1
    67   36   65 1
    68   37   66 1
    69   37   67 1
    70   37   68 1
@<TRIPOS>MOLECULE
ZINC22061901
   67    68     0     0     0
SMALL
USER_CHARGES
(3R,5R)-7-[(1S,2S,6R,8S,8aR)-2,6-dimethyl-8-[(2R)-2-(trideuteriomethyl)butanoyl]oxy-1,2,6,7,8,8a-hexahydronaphthalen-1-yl]-3,5-dihydroxy-heptanoic acid
@<TRIPOS>ATOM
      1 H1         -0.7058    3.5297    4.8805 H         1 <0>         0.0848
      2 C1         -0.2795    3.1078    5.8026 C.3       1 <0>        -0.1564
      3 H2         -1.0735    2.9949    6.5554 H         1 <0>         0.0595
      4 H3          0.1626    2.1242    5.5856 H         1 <0>         0.0781
      5 C2          0.8030    4.0461    6.3399 C.3       1 <0>        -0.0846
      6 H4          1.5943    4.1745    5.5866 H         1 <0>         0.1009
      7 C3          1.3959    3.4592    7.6225 C.3       1 <0>        -0.1095
      8 C4          2.1191    2.1506    7.2978 C.3       1 <0>        -0.1561
      9 C5          0.1975    5.3936    6.6371 C.2       1 <0>         0.4539
     10 O1         -0.2723    5.6176    7.7276 O.2       1 <0>        -0.5126
     11 O2          0.1800    6.3451    5.6905 O.3       1 <0>        -0.3193
     12 C6         -0.4191    7.6188    6.0471 C.3       1 <0>         0.0898
     13 H5         -1.2395    7.4581    6.7621 H         1 <0>         0.0808
     14 C7          0.6347    8.4671    6.7095 C.3       1 <0>        -0.1301
     15 C8          0.0061    9.8192    7.0739 C.3       1 <0>        -0.0575
     16 H6         -0.8523    9.6864    7.7488 H         1 <0>         0.0827
     17 C9         -0.4513   10.4725    5.7955 C.2       1 <0>        -0.1490
     18 C10        -0.8765    9.7493    4.7761 C.2       1 <0>        -0.0782
     19 C11        -0.9979    8.2546    4.8052 C.3       1 <0>        -0.0411
     20 H7         -2.0694    8.0113    4.8559 H         1 <0>         0.0836
     21 C12        -0.3611    7.6993    3.5291 C.3       1 <0>        -0.0587
     22 H8          0.6908    8.0149    3.4663 H         1 <0>         0.0718
     23 C13        -1.1370    8.2300    2.3226 C.3       1 <0>        -0.0628
     24 H9         -0.5598    8.0177    1.4106 H         1 <0>         0.0823
     25 C14        -1.3172    9.7159    2.3908 C.2       1 <0>        -0.1335
     26 C15        -1.2100   10.4252    3.5009 C.2       1 <0>        -0.1332
     27 C16        -2.5128    7.5618    2.2806 C.3       1 <0>        -0.1556
     28 C17        -0.4238    6.1707    3.5476 C.3       1 <0>        -0.1098
     29 C18        -0.2696    5.6367    2.1221 C.3       1 <0>        -0.1286
     30 C19        -0.1786    4.1098    2.1565 C.3       1 <0>         0.1271
     31 H10         0.5754    3.7715    2.8824 H         1 <0>         0.0403
     32 C20         0.1286    3.5854    0.7524 C.3       1 <0>        -0.1461
     33 C21         0.3427    2.0715    0.8089 C.3       1 <0>         0.1380
     34 H11         1.0792    1.8014    1.5800 H         1 <0>         0.0478
     35 C22         0.7718    1.5653   -0.5697 C.3       1 <0>        -0.1914
     36 C23         1.1012    0.0972   -0.4857 C.2       1 <0>         0.4627
     37 O3          1.0029   -0.4846    0.5687 O.co2     1 <0>        -0.6449
     38 O4          1.5038   -0.5642   -1.5821 O.co2     1 <0>        -0.7708
     39 O5         -0.8761    1.4320    1.1930 O.3       1 <0>        -0.6068
     40 O6         -1.4226    3.5685    2.6055 O.3       1 <0>        -0.6017
     41 C24         1.0439   10.7050    7.7662 C.3       1 <0>        -0.1431
     42 H12         2.1096    4.1745    8.0573 H         1 <0>         0.0626
     43 H13         0.5885    3.2628    8.3433 H         1 <0>         0.0743
     44 H14         2.5453    1.7287    8.2199 H         1 <0>         0.0581
     45 H15         2.9265    2.3470    6.5770 H         1 <0>         0.0580
     46 H16         1.4054    1.4354    6.8630 H         1 <0>         0.0638
     47 H17         0.9949    7.9616    7.6176 H         1 <0>         0.0729
     48 H18         1.4749    8.6165    6.0154 H         1 <0>         0.0762
     49 H19        -0.4271   11.5696    5.7194 H         1 <0>         0.1156
     50 H20        -1.5525   10.2155    1.4395 H         1 <0>         0.1069
     51 H21        -1.3683   11.5135    3.4757 H         1 <0>         0.1176
     52 H22        -3.0772    7.9387    1.4149 H         1 <0>         0.0505
     53 H23        -3.0615    7.7939    3.2053 H         1 <0>         0.0527
     54 H24        -2.3888    6.4725    2.1914 H         1 <0>         0.0862
     55 H25         0.3890    5.7780    4.1762 H         1 <0>         0.1023
     56 H26        -1.3925    5.8484    3.9571 H         1 <0>         0.0649
     57 H27        -1.1401    5.9387    1.5213 H         1 <0>         0.0804
     58 H28         0.6463    6.0486    1.6733 H         1 <0>         0.0665
     59 H29        -0.7150    3.8117    0.0838 H         1 <0>         0.0730
     60 H30         1.0392    4.0705    0.3709 H         1 <0>         0.0736
     61 H31        -0.0480    1.7166   -1.2873 H         1 <0>         0.0714
     62 H32         1.6596    2.1217   -0.9046 H         1 <0>         0.0682
     63 H33        -0.9165    0.3368    1.2876 H         1 <0>         0.4181
     64 H34        -1.5481    2.4794    2.6952 H         1 <0>         0.4115
     65 H35         0.5870   11.6717    8.0244 H         1 <0>         0.0577
     66 H36         1.8947   10.8707    7.0890 H         1 <0>         0.0570
     67 H37         1.3960   10.2093    8.6829 H         1 <0>         0.0575
@<TRIPOS>BOND
     1    1    2 1
     2    2    3 1
     3    2    4 1
     4    2    5 1
     5    5    6 1
     6    5    7 1
     7    5    9 1
     8    7    8 1
     9    7   42 1
    10    7   43 1
    11    8   44 1
    12    8   45 1
    13    8   46 1
    14    9   10 2
    15    9   11 1
    16   11   12 1
    17   12   13 1
    18   12   19 1
    19   12   14 1
    20   14   15 1
    21   14   47 1
    22   14   48 1
    23   15   16 1
    24   15   17 1
    25   15   41 1
    26   17   18 2
    27   17   49 1
    28   18   26 1
    29   18   19 1
    30   19   20 1
    31   19   21 1
    32   21   22 1
    33   21   23 1
    34   21   28 1
    35   23   24 1
    36   23   25 1
    37   23   27 1
    38   25   26 2
    39   25   50 1
    40   26   51 1
    41   27   52 1
    42   27   53 1
    43   27   54 1
    44   28   29 1
    45   28   55 1
    46   28   56 1
    47   29   30 1
    48   29   57 1
    49   29   58 1
    50   30   31 1
    51   30   32 1
    52   30   40 1
    53   32   33 1
    54   32   59 1
    55   32   60 1
    56   33   34 1
    57   33   35 1
    58   33   39 1
    59   35   36 1
    60   35   61 1
    61   35   62 1
    62   36   37 2
    63   36   38 1
    64   39   63 1
    65   40   64 1
    66   41   65 1
    67   41   66 1
    68   41   67 1
@<TRIPOS>MOLECULE
ZINC03920720
   73    77     0     0     0
SMALL
USER_CHARGES
5-(4-fluorophenyl)-1-[2-(4-hydroxy-6-oxo-tetrahydropyran-2-yl)ethyl]-2-isopropyl-N,4-diphenyl-pyrrole-3-carboxamide
@<TRIPOS>ATOM
      1 C1          0.6085    4.1507   -1.2198 C.3       1 <0>        -0.1510
      2 C2          1.4507    3.5575   -0.0885 C.3       1 <0>        -0.0348
      3 C3          1.0536    4.2083    1.2381 C.3       1 <0>        -0.1517
      4 C4          1.2120    2.0716   -0.0105 C.2       1 <0>         0.0965
      5 C5          0.0044    1.4749    0.2217 C.2       1 <0>        -0.2057
      6 C6          0.2505    0.0237    0.2108 C.2       1 <0>        -0.0698
      7 C7          1.6026   -0.1269   -0.0302 C.2       1 <0>         0.0706
      8 N1          2.1547    1.1212   -0.1589 N.pl3     1 <0>        -0.4213
      9 C8          3.5716    1.3844   -0.4220 C.3       1 <0>         0.0927
     10 C9          3.7879    1.5542   -1.9270 C.3       1 <0>        -0.1311
     11 C10         5.2416    1.9514   -2.1918 C.3       1 <0>         0.1138
     12 H1          5.4857    2.8443   -1.6163 H         1 <0>         0.0931
     13 C11         5.4306    2.2356   -3.6844 C.3       1 <0>        -0.1497
     14 C12         6.8984    2.5813   -3.9536 C.3       1 <0>         0.1050
     15 H2          7.0374    2.7805   -5.0162 H         1 <0>         0.0819
     16 C13         7.7748    1.3945   -3.5348 C.3       1 <0>        -0.2057
     17 C14         7.4255    1.0223   -2.1107 C.2       1 <0>         0.4966
     18 O1          8.2881    0.8728   -1.2780 O.2       1 <0>        -0.4503
     19 O2          6.1228    0.8625   -1.7971 O.3       1 <0>        -0.3734
     20 O3          7.2660    3.7373   -3.1982 O.3       1 <0>        -0.5645
     21 C15         2.3272   -1.4096   -0.1315 C.ar      1 <0>        -0.0316
     22 C16         1.8963   -2.3890   -1.0290 C.ar      1 <0>        -0.0593
     23 C17         2.5804   -3.5827   -1.1234 C.ar      1 <0>        -0.1501
     24 C18         3.6865   -3.8159   -0.3216 C.ar      1 <0>         0.1070
     25 C19         4.1152   -2.8499    0.5750 C.ar      1 <0>        -0.1479
     26 C20         3.4424   -1.6502    0.6739 C.ar      1 <0>        -0.0767
     27 F1          4.3497   -4.9892   -0.4146 F         1 <0>        -0.1371
     28 C21        -0.7451   -1.0524    0.4162 C.ar      1 <0>        -0.0119
     29 C22        -0.6619   -1.8791    1.5369 C.ar      1 <0>        -0.0975
     30 C23        -1.5963   -2.8765    1.7256 C.ar      1 <0>        -0.1171
     31 C24        -2.6075   -3.0651    0.8004 C.ar      1 <0>        -0.1182
     32 C25        -2.6921   -2.2523   -0.3159 C.ar      1 <0>        -0.1184
     33 C26        -1.7672   -1.2476   -0.5131 C.ar      1 <0>        -0.1068
     34 C27        -1.2861    2.1490    0.4340 C.2       1 <0>         0.6062
     35 O4         -1.6366    2.4513    1.5589 O.2       1 <0>        -0.5089
     36 N2         -2.0798    2.4316   -0.6180 N.am      1 <0>        -0.6684
     37 C28        -3.2587    3.1599   -0.4287 C.ar      1 <0>         0.1452
     38 C29        -4.0059    2.9861    0.7291 C.ar      1 <0>        -0.1192
     39 C30        -5.1670    3.7104    0.9150 C.ar      1 <0>        -0.1020
     40 C31        -5.5918    4.5997   -0.0550 C.ar      1 <0>        -0.1350
     41 C32        -4.8527    4.7716   -1.2111 C.ar      1 <0>        -0.1023
     42 C33        -3.6879    4.0543   -1.4008 C.ar      1 <0>        -0.1461
     43 H3         -0.4471    3.9621   -1.0242 H         1 <0>         0.0652
     44 H4          0.7812    5.2254   -1.2762 H         1 <0>         0.0666
     45 H5          0.8914    3.6871   -2.1648 H         1 <0>         0.0579
     46 H6          2.5063    3.7462   -0.2841 H         1 <0>         0.0806
     47 H7          1.6536    3.7857    2.0440 H         1 <0>         0.0578
     48 H8          1.2263    5.2830    1.1816 H         1 <0>         0.0633
     49 H9         -0.0020    4.0196    1.4336 H         1 <0>         0.0719
     50 H10         3.8736    2.2961    0.0936 H         1 <0>         0.0957
     51 H11         4.1697    0.5477   -0.0610 H         1 <0>         0.1066
     52 H12         3.5702    0.6140   -2.4337 H         1 <0>         0.0885
     53 H13         3.1242    2.3323   -2.3040 H         1 <0>         0.0975
     54 H14         5.1533    1.3529   -4.2607 H         1 <0>         0.0980
     55 H15         4.7997    3.0747   -3.9776 H         1 <0>         0.1007
     56 H16         8.8262    1.6759   -3.5934 H         1 <0>         0.1091
     57 H17         7.5839    0.5469   -4.1931 H         1 <0>         0.1188
     58 H18         8.1868    4.0079   -3.3162 H         1 <0>         0.3883
     59 H19         1.0316   -2.2103   -1.6508 H         1 <0>         0.1349
     60 H20         2.2510   -4.3390   -1.8205 H         1 <0>         0.1390
     61 H21         4.9776   -3.0372    1.1975 H         1 <0>         0.1388
     62 H22         3.7776   -0.8980    1.3727 H         1 <0>         0.1311
     63 H23         0.1299   -1.7360    2.2573 H         1 <0>         0.1195
     64 H24        -1.5358   -3.5141    2.5952 H         1 <0>         0.1221
     65 H25        -3.3337   -3.8504    0.9501 H         1 <0>         0.1209
     66 H26        -3.4841   -2.4042   -1.0344 H         1 <0>         0.1219
     67 H27        -1.8341   -0.6140   -1.3851 H         1 <0>         0.1174
     68 H28        -1.8334    2.1299   -1.5063 H         1 <0>         0.4097
     69 H29        -3.6772    2.2882    1.4849 H         1 <0>         0.1381
     70 H30        -5.7461    3.5790    1.8171 H         1 <0>         0.1245
     71 H31        -6.5025    5.1616    0.0908 H         1 <0>         0.1222
     72 H32        -5.1870    5.4672   -1.9666 H         1 <0>         0.1249
     73 H33        -3.1111    4.1890   -2.3039 H         1 <0>         0.1235
@<TRIPOS>BOND
     1    1    2 1
     2    1   43 1
     3    1   44 1
     4    1   45 1
     5    2    3 1
     6    2    4 1
     7    2   46 1
     8    3   47 1
     9    3   48 1
    10    3   49 1
    11    4    8 1
    12    4    5 2
    13    5    6 1
    14    5   34 1
    15    6    7 2
    16    6   28 1
    17    7    8 1
    18    7   21 1
    19    8    9 1
    20    9   10 1
    21    9   50 1
    22    9   51 1
    23   10   11 1
    24   10   52 1
    25   10   53 1
    26   11   12 1
    27   11   19 1
    28   11   13 1
    29   13   14 1
    30   13   54 1
    31   13   55 1
    32   14   15 1
    33   14   16 1
    34   14   20 1
    35   16   17 1
    36   16   56 1
    37   16   57 1
    38   17   18 2
    39   17   19 1
    40   20   58 1
    41   21   26 ar
    42   21   22 ar
    43   22   23 ar
    44   22   59 1
    45   23   24 ar
    46   23   60 1
    47   24   25 ar
    48   24   27 1
    49   25   26 ar
    50   25   61 1
    51   26   62 1
    52   28   33 ar
    53   28   29 ar
    54   29   30 ar
    55   29   63 1
    56   30   31 ar
    57   30   64 1
    58   31   32 ar
    59   31   65 1
    60   32   33 ar
    61   32   66 1
    62   33   67 1
    63   34   35 2
    64   34   36 am
    65   36   37 1
    66   36   68 1
    67   37   42 ar
    68   37   38 ar
    69   38   39 ar
    70   38   69 1
    71   39   40 ar
    72   39   70 1
    73   40   41 ar
    74   40   71 1
    75   41   42 ar
    76   41   72 1
    77   42   73 1
@<TRIPOS>MOLECULE
ZINC11615926
   75    78     0     0     0
SMALL
USER_CHARGES
(3R,5S)-7-[2-(4-fluorophenyl)-5-isopropyl-3-phenyl-4-(phenylcarbamoyl)pyrrol-1-yl]-3,5-dihydroxy-heptanoic acid
@<TRIPOS>ATOM
      1 C1         -0.0118    1.0637    0.0164 C.3       1 <0>        -0.1500
      2 C2         -0.7283    1.5591    1.2742 C.3       1 <0>        -0.0371
      3 C3         -0.7577    3.0888    1.2754 C.3       1 <0>        -0.1497
      4 C4          0.0058    1.0698    2.4961 C.2       1 <0>         0.1015
      5 C5          1.3076    1.3511    2.8030 C.2       1 <0>        -0.2119
      6 C6          1.5892    0.6700    4.0772 C.2       1 <0>        -0.0760
      7 C7          0.4190    0.0230    4.4247 C.2       1 <0>         0.0714
      8 N1         -0.5154    0.2813    3.4556 N.pl3     1 <0>        -0.4180
      9 C8         -1.8887   -0.2288    3.4626 C.3       1 <0>         0.0902
     10 C9         -1.9361   -1.5756    2.7381 C.3       1 <0>        -0.1652
     11 C10        -3.3703   -2.1084    2.7454 C.3       1 <0>         0.1151
     12 H1         -4.0378   -1.3607    2.3171 H         1 <0>         0.1084
     13 C11        -3.4419   -3.3915    1.9152 C.3       1 <0>        -0.1837
     14 C12        -4.8965   -3.8560    1.8187 C.3       1 <0>         0.1307
     15 H2         -5.3109   -3.9633    2.8212 H         1 <0>         0.1038
     16 C13        -4.9548   -5.2033    1.0959 C.3       1 <0>        -0.1926
     17 C14        -6.3706   -5.7194    1.1088 C.2       1 <0>         0.4593
     18 O1         -7.2435   -5.0758    1.6415 O.co2     1 <0>        -0.6232
     19 O2         -5.6574   -2.8910    1.0895 O.3       1 <0>        -0.5428
     20 O3         -3.7678   -2.3878    4.0893 O.3       1 <0>        -0.5532
     21 C15         0.2111   -0.8038    5.6305 C.ar      1 <0>        -0.0290
     22 C16        -0.9463   -0.6478    6.3963 C.ar      1 <0>        -0.0808
     23 C17        -1.1373   -1.4260    7.5187 C.ar      1 <0>        -0.1458
     24 C18        -0.1785   -2.3540    7.8930 C.ar      1 <0>         0.1044
     25 C19         0.9745   -2.5095    7.1399 C.ar      1 <0>        -0.1492
     26 C20         1.1738   -1.7406    6.0126 C.ar      1 <0>        -0.0616
     27 F1         -0.3687   -3.1104    8.9962 F         1 <0>        -0.1377
     28 C21         2.8649    0.6729    4.8284 C.ar      1 <0>        -0.0072
     29 C22         2.9342    1.2671    6.0888 C.ar      1 <0>        -0.0979
     30 C23         4.1249    1.2622    6.7858 C.ar      1 <0>        -0.1175
     31 C24         5.2512    0.6792    6.2330 C.ar      1 <0>        -0.1207
     32 C25         5.1902    0.0930    4.9812 C.ar      1 <0>        -0.1185
     33 C26         4.0041    0.0866    4.2763 C.ar      1 <0>        -0.1081
     34 C27         2.2411    2.1733    2.0173 C.2       1 <0>         0.6091
     35 O4          2.3172    3.3702    2.2212 O.2       1 <0>        -0.5115
     36 N2          3.0120    1.6004    1.0718 N.am      1 <0>        -0.6690
     37 C28         3.8282    2.3942    0.2594 C.ar      1 <0>         0.1481
     38 C29         4.0424    2.0426   -1.0670 C.ar      1 <0>        -0.1463
     39 C30         4.8450    2.8312   -1.8678 C.ar      1 <0>        -0.1021
     40 C31         5.4436    3.9640   -1.3474 C.ar      1 <0>        -0.1374
     41 C32         5.2365    4.3139   -0.0257 C.ar      1 <0>        -0.1029
     42 C33         4.4308    3.5325    0.7790 C.ar      1 <0>        -0.1202
     43 H3          0.0091   -0.0261    0.0156 H         1 <0>         0.0590
     44 H4          1.0086    1.4467    0.0049 H         1 <0>         0.0629
     45 H5         -0.5427    1.4176   -0.8673 H         1 <0>         0.0665
     46 H6         -1.7487    1.1761    1.2858 H         1 <0>         0.0837
     47 H7         -1.2886    3.4427    0.3917 H         1 <0>         0.0629
     48 H8         -1.2681    3.4417    2.1715 H         1 <0>         0.0573
     49 H9          0.2628    3.4718    1.2639 H         1 <0>         0.0701
     50 H10        -2.2230   -0.3580    4.4919 H         1 <0>         0.1066
     51 H11        -2.5423    0.4803    2.9545 H         1 <0>         0.0960
     52 H12        -1.6017   -1.4464    1.7088 H         1 <0>         0.0791
     53 H13        -1.2825   -2.2847    3.2462 H         1 <0>         0.0740
     54 H14        -3.0550   -3.1989    0.9145 H         1 <0>         0.0706
     55 H15        -2.8437   -4.1673    2.3930 H         1 <0>         0.0717
     56 H16        -4.6234   -5.0772    0.0652 H         1 <0>         0.0634
     57 H17        -4.3037   -5.9158    1.6024 H         1 <0>         0.0687
     58 H18        -5.3443   -2.7440    0.1865 H         1 <0>         0.3561
     59 H19        -3.2165   -3.0463    4.5337 H         1 <0>         0.3708
     60 H20        -1.6922    0.0780    6.1078 H         1 <0>         0.1331
     61 H21        -2.0340   -1.3093    8.1092 H         1 <0>         0.1400
     62 H22         1.7184   -3.2340    7.4366 H         1 <0>         0.1380
     63 H23         2.0728   -1.8623    5.4267 H         1 <0>         0.1343
     64 H24         2.0569    1.7264    6.5195 H         1 <0>         0.1198
     65 H25         4.1789    1.7182    7.7634 H         1 <0>         0.1212
     66 H26         6.1818    0.6813    6.7809 H         1 <0>         0.1197
     67 H27         6.0729   -0.3602    4.5548 H         1 <0>         0.1210
     68 H28         3.9577   -0.3716    3.2995 H         1 <0>         0.1177
     69 H29         3.0007    0.6376    0.9547 H         1 <0>         0.4106
     70 H30         3.5788    1.1556   -1.4728 H         1 <0>         0.1244
     71 H31         5.0090    2.5605   -2.9004 H         1 <0>         0.1244
     72 H32         6.0738    4.5769   -1.9747 H         1 <0>         0.1209
     73 H33         5.7051    5.1995    0.3776 H         1 <0>         0.1234
     74 H34         4.2698    3.8062    1.8113 H         1 <0>         0.1384
     75 O5         -6.6620   -6.8942    0.5286 O.co2     1 <0>        -0.7817
@<TRIPOS>BOND
     1    1    2 1
     2    1   43 1
     3    1   44 1
     4    1   45 1
     5    2    3 1
     6    2    4 1
     7    2   46 1
     8    3   47 1
     9    3   48 1
    10    3   49 1
    11    4    8 1
    12    4    5 2
    13    5    6 1
    14    5   34 1
    15    6    7 2
    16    6   28 1
    17    7    8 1
    18    7   21 1
    19    8    9 1
    20    9   10 1
    21    9   50 1
    22    9   51 1
    23   10   11 1
    24   10   52 1
    25   10   53 1
    26   11   12 1
    27   11   13 1
    28   11   20 1
    29   13   14 1
    30   13   54 1
    31   13   55 1
    32   14   15 1
    33   14   16 1
    34   14   19 1
    35   16   17 1
    36   16   56 1
    37   16   57 1
    38   17   18 2
    39   17   75 1
    40   19   58 1
    41   20   59 1
    42   21   26 ar
    43   21   22 ar
    44   22   23 ar
    45   22   60 1
    46   23   24 ar
    47   23   61 1
    48   24   25 ar
    49   24   27 1
    50   25   26 ar
    51   25   62 1
    52   26   63 1
    53   28   33 ar
    54   28   29 ar
    55   29   30 ar
    56   29   64 1
    57   30   31 ar
    58   30   65 1
    59   31   32 ar
    60   31   66 1
    61   32   33 ar
    62   32   67 1
    63   33   68 1
    64   34   35 2
    65   34   36 am
    66   36   37 1
    67   36   69 1
    68   37   42 ar
    69   37   38 ar
    70   38   39 ar
    71   38   70 1
    72   39   40 ar
    73   39   71 1
    74   40   41 ar
    75   40   72 1
    76   41   42 ar
    77   41   73 1
    78   42   74 1
@<TRIPOS>MOLECULE
ZINC03812841
   65    67     0     0     0
SMALL
USER_CHARGES

@<TRIPOS>ATOM
      1 C1         -1.1954    0.9630    0.0052 C.3       1 <0>        -0.1531
      2 C2         -1.2210   -0.5519    0.2178 C.3       1 <0>        -0.1100
      3 C3         -0.1596   -0.9402    1.2491 C.3       1 <0>        -0.0847
      4 H1         -0.3169   -0.3700    2.1647 H         1 <0>         0.1064
      5 C4          1.2311   -0.6334    0.6899 C.3       1 <0>        -0.1469
      6 C5         -0.2664   -2.4130    1.5498 C.2       1 <0>         0.4519
      7 O1         -1.1054   -3.0833    0.9961 O.2       1 <0>        -0.5033
      8 O2          0.5705   -2.9801    2.4328 O.3       1 <0>        -0.3188
      9 C6          0.4124   -4.3805    2.6694 C.3       1 <0>         0.0910
     10 H2         -0.6343   -4.6481    2.5247 H         1 <0>         0.0830
     11 C7          1.2657   -5.1530    1.6656 C.3       1 <0>        -0.1281
     12 C8          1.1077   -6.6534    1.9504 C.3       1 <0>        -0.0594
     13 H3          0.0560   -6.9329    1.8878 H         1 <0>         0.0842
     14 C9          1.6229   -6.9102    3.3434 C.2       1 <0>        -0.1384
     15 C10         1.4968   -5.9994    4.2906 C.2       1 <0>        -0.0860
     16 C11         0.8040   -4.6845    4.0951 C.3       1 <0>        -0.0441
     17 H4         -0.1122   -4.7131    4.6849 H         1 <0>         0.0831
     18 C12         1.6831   -3.5881    4.6998 C.3       1 <0>        -0.0600
     19 H5          2.6665   -3.6071    4.2300 H         1 <0>         0.0742
     20 C13         1.8261   -3.8474    6.2006 C.3       1 <0>        -0.0604
     21 H6          2.5865   -3.1798    6.6057 H         1 <0>         0.0818
     22 C14         2.2196   -5.2650    6.4840 C.2       1 <0>        -0.1379
     23 C15         2.0671   -6.2619    5.6320 C.2       1 <0>        -0.1243
     24 C16         0.4900   -3.5557    6.8867 C.3       1 <0>        -0.1566
     25 C17         1.0312   -2.2229    4.4711 C.3       1 <0>        -0.1183
     26 C18         1.6186   -1.2065    5.4522 C.3       1 <0>        -0.1334
     27 C19         0.9668    0.1587    5.2235 C.3       1 <0>         0.1101
     28 H7          1.0824    0.4467    4.1786 H         1 <0>         0.0840
     29 C20         1.6393    1.2027    6.1189 C.3       1 <0>        -0.1541
     30 C21         0.9568    2.5595    5.9177 C.3       1 <0>         0.1044
     31 H8          1.4246    3.3028    6.5632 H         1 <0>         0.0784
     32 C22        -0.5280    2.4263    6.2794 C.3       1 <0>        -0.2056
     33 C23        -1.0995    1.2524    5.5148 C.2       1 <0>         0.4949
     34 O3         -2.1296    1.3583    4.8922 O.2       1 <0>        -0.4528
     35 O4         -0.4261    0.0837    5.5474 O.3       1 <0>        -0.3661
     36 O5          1.0851    2.9622    4.5526 O.3       1 <0>        -0.5628
     37 C24         1.9207   -7.4623    0.9377 C.3       1 <0>        -0.1421
     38 H9         -0.2114    1.2627   -0.3556 H         1 <0>         0.0586
     39 H10        -1.9515    1.2396   -0.7296 H         1 <0>         0.0599
     40 H11        -1.4049    1.4660    0.9492 H         1 <0>         0.0569
     41 H12        -2.2049   -0.8516    0.5786 H         1 <0>         0.0720
     42 H13        -1.0115   -1.0549   -0.7262 H         1 <0>         0.0701
     43 H14         1.9873   -0.9100    1.4246 H         1 <0>         0.0683
     44 H15         1.3885   -1.2035   -0.2257 H         1 <0>         0.0609
     45 H16         1.3084    0.4319    0.4724 H         1 <0>         0.0750
     46 H17         0.9289   -4.9342    0.6523 H         1 <0>         0.0718
     47 H18         2.3116   -4.8665    1.7755 H         1 <0>         0.0758
     48 H19         2.1012   -7.8517    3.5697 H         1 <0>         0.1157
     49 H20         2.6523   -5.4861    7.4485 H         1 <0>         0.1061
     50 H21         2.3619   -7.2630    5.9101 H         1 <0>         0.1183
     51 H22        -0.2805   -4.2064    6.4733 H         1 <0>         0.0552
     52 H23         0.5838   -3.7383    7.9572 H         1 <0>         0.0534
     53 H24         0.2149   -2.5145    6.7184 H         1 <0>         0.0768
     54 H25         1.2237   -1.8950    3.4495 H         1 <0>         0.1085
     55 H26        -0.0441   -2.3025    4.6307 H         1 <0>         0.0668
     56 H27         1.4262   -1.5344    6.4738 H         1 <0>         0.0876
     57 H28         2.6939   -1.1270    5.2926 H         1 <0>         0.0852
     58 H29         1.5473    0.9005    7.1621 H         1 <0>         0.0948
     59 H30         2.6937    1.2833    5.8548 H         1 <0>         0.0977
     60 H31        -0.6311    2.2524    7.3505 H         1 <0>         0.1174
     61 H32        -1.0570    3.3380    6.0021 H         1 <0>         0.1069
     62 H33         0.6746    3.8148    4.3538 H         1 <0>         0.3858
     63 H34         2.9731   -7.1897    1.0159 H         1 <0>         0.0574
     64 H35         1.8045   -8.5260    1.1451 H         1 <0>         0.0592
     65 H36         1.5636   -7.2474   -0.0695 H         1 <0>         0.0581
@<TRIPOS>BOND
     1    1    2 1
     2    1   38 1
     3    1   39 1
     4    1   40 1
     5    2    3 1
     6    2   41 1
     7    2   42 1
     8    3    4 1
     9    3    5 1
    10    3    6 1
    11    5   43 1
    12    5   44 1
    13    5   45 1
    14    6    7 2
    15    6    8 1
    16    8    9 1
    17    9   10 1
    18    9   16 1
    19    9   11 1
    20   11   12 1
    21   11   46 1
    22   11   47 1
    23   12   13 1
    24   12   14 1
    25   12   37 1
    26   14   15 2
    27   14   48 1
    28   15   23 1
    29   15   16 1
    30   16   17 1
    31   16   18 1
    32   18   19 1
    33   18   20 1
    34   18   25 1
    35   20   21 1
    36   20   22 1
    37   20   24 1
    38   22   23 2
    39   22   49 1
    40   23   50 1
    41   24   51 1
    42   24   52 1
    43   24   53 1
    44   25   26 1
    45   25   54 1
    46   25   55 1
    47   26   27 1
    48   26   56 1
    49   26   57 1
    50   27   28 1
    51   27   35 1
    52   27   29 1
    53   29   30 1
    54   29   58 1
    55   29   59 1
    56   30   31 1
    57   30   32 1
    58   30   36 1
    59   32   33 1
    60   32   60 1
    61   32   61 1
    62   33   34 2
    63   33   35 1
    64   36   62 1
    65   37   63 1
    66   37   64 1
    67   37   65 1
@<TRIPOS>MOLECULE
ZINC08681778
   65    67     0     0     0
SMALL
USER_CHARGES
[8-[2-(4-hydroxy-6-oxo-tetrahydropyran-2-yl)ethyl]-3,7-dimethyl-1,2,3,7,8,8a-hexahydronaphthalen-1-yl] 2-methylbutanoate
@<TRIPOS>ATOM
      1 C1          3.4239    5.8650   -8.6844 C.3       1 <0>        -0.1540
      2 C2          2.9607    5.7446   -7.2312 C.3       1 <0>        -0.1109
      3 C3          1.8916    4.6553   -7.1253 C.3       1 <0>        -0.0842
      4 H1          2.2802    3.7236   -7.5362 H         1 <0>         0.1072
      5 C4          0.6501    5.0810   -7.9118 C.3       1 <0>        -0.1507
      6 C5          1.5239    4.4514   -5.6781 C.2       1 <0>         0.4591
      7 O1          2.0618    5.1097   -4.8196 O.2       1 <0>        -0.5059
      8 O2          0.5988    3.5384   -5.3429 O.3       1 <0>        -0.3419
      9 C6          0.2948    3.3959   -3.9303 C.3       1 <0>         0.1026
     10 H2          1.1910    3.6197   -3.3518 H         1 <0>         0.0866
     11 C7         -0.8007    4.3916   -3.5548 C.3       1 <0>        -0.1358
     12 C8         -2.0588    4.0558   -4.3675 C.3       1 <0>        -0.0578
     13 H3         -2.8514    4.7657   -4.1315 H         1 <0>         0.0771
     14 C9         -2.4906    2.6623   -3.9902 C.2       1 <0>        -0.1457
     15 C10        -1.6081    1.7655   -3.6401 C.2       1 <0>        -0.0675
     16 C11        -0.1222    1.9697   -3.6586 C.3       1 <0>        -0.0429
     17 H4          0.2847    1.3493   -4.4571 H         1 <0>         0.0921
     18 C12         0.4474    1.4493   -2.3370 C.3       1 <0>        -0.0724
     19 H5          1.5235    1.6206   -2.3100 H         1 <0>         0.0807
     20 C13         0.1607   -0.0496   -2.2352 C.3       1 <0>        -0.0573
     21 H6          0.7832   -0.5805   -2.9555 H         1 <0>         0.0831
     22 C14        -1.2791   -0.3575   -2.5129 C.2       1 <0>        -0.1393
     23 C15        -2.0992    0.4537   -3.1581 C.2       1 <0>        -0.1291
     24 C16         0.5111   -0.5303   -0.8256 C.3       1 <0>        -0.1502
     25 C17        -0.2178    2.1795   -1.1685 C.3       1 <0>        -0.1171
     26 C18        -1.6840    1.7534   -1.0692 C.3       1 <0>        -0.1587
     27 C19        -2.3093    2.3664    0.1853 C.3       1 <0>         0.1081
     28 H7         -1.7174    2.0922    1.0586 H         1 <0>         0.0813
     29 C20        -3.7390    1.8442    0.3518 C.3       1 <0>        -0.1487
     30 C21        -4.3802    2.5017    1.5778 C.3       1 <0>         0.1042
     31 H8         -5.4001    2.1358    1.6965 H         1 <0>         0.0779
     32 C22        -4.4004    4.0218    1.3763 C.3       1 <0>        -0.2056
     33 C23        -2.9996    4.4760    1.0296 C.2       1 <0>         0.4944
     34 O3         -2.4858    5.4036    1.6088 O.2       1 <0>        -0.4570
     35 O4         -2.3406    3.8156    0.0547 O.3       1 <0>        -0.3700
     36 O5         -3.6192    2.1840    2.7449 O.3       1 <0>        -0.5638
     37 C24        -1.7404    4.1128   -5.8629 C.3       1 <0>        -0.1429
     38 H9          3.8412    4.9131   -9.0128 H         1 <0>         0.0563
     39 H10         2.5748    6.1267   -9.3159 H         1 <0>         0.0595
     40 H11         4.1856    6.6410   -8.7599 H         1 <0>         0.0604
     41 H12         2.5434    6.6965   -6.9028 H         1 <0>         0.0708
     42 H13         3.8098    5.4830   -6.5998 H         1 <0>         0.0717
     43 H14         0.9161    5.2285   -8.9585 H         1 <0>         0.0740
     44 H15        -0.1116    4.3050   -7.8363 H         1 <0>         0.0727
     45 H16         0.2615    6.0128   -7.5009 H         1 <0>         0.0608
     46 H17        -1.0195    4.3125   -2.4899 H         1 <0>         0.0937
     47 H18        -0.4722    5.4043   -3.7883 H         1 <0>         0.0710
     48 H19        -3.5408    2.4106   -3.9987 H         1 <0>         0.1139
     49 H20        -1.6715   -1.3012   -2.1637 H         1 <0>         0.1113
     50 H21        -3.1241    0.1614   -3.3329 H         1 <0>         0.1216
     51 H22        -0.1655   -0.0694   -0.1059 H         1 <0>         0.0624
     52 H23         0.4106   -1.6145   -0.7760 H         1 <0>         0.0572
     53 H24         1.5377   -0.2494   -0.5906 H         1 <0>         0.0593
     54 H25        -0.1625    3.2555   -1.3337 H         1 <0>         0.0733
     55 H26         0.2974    1.9272   -0.2417 H         1 <0>         0.0661
     56 H27        -2.2235    2.1000   -1.9506 H         1 <0>         0.1137
     57 H28        -1.7433    0.6666   -1.0109 H         1 <0>         0.1075
     58 H29        -4.3211    2.0882   -0.5368 H         1 <0>         0.0942
     59 H30        -3.7177    0.7628    0.4873 H         1 <0>         0.0962
     60 H31        -4.7278    4.5096    2.2945 H         1 <0>         0.1058
     61 H32        -5.0804    4.2759    0.5632 H         1 <0>         0.1167
     62 H33        -3.9659    2.5744    3.5588 H         1 <0>         0.3857
     63 H34        -1.1294    3.2529   -6.1374 H         1 <0>         0.0798
     64 H35        -2.6693    4.0952   -6.4331 H         1 <0>         0.0476
     65 H36        -1.1958    5.0308   -6.0838 H         1 <0>         0.0516
@<TRIPOS>BOND
     1    1    2 1
     2    1   38 1
     3    1   39 1
     4    1   40 1
     5    2    3 1
     6    2   41 1
     7    2   42 1
     8    3    4 1
     9    3    5 1
    10    3    6 1
    11    5   43 1
    12    5   44 1
    13    5   45 1
    14    6    7 2
    15    6    8 1
    16    8    9 1
    17    9   10 1
    18    9   16 1
    19    9   11 1
    20   11   12 1
    21   11   46 1
    22   11   47 1
    23   12   13 1
    24   12   14 1
    25   12   37 1
    26   14   15 2
    27   14   48 1
    28   15   23 1
    29   15   16 1
    30   16   17 1
    31   16   18 1
    32   18   19 1
    33   18   20 1
    34   18   25 1
    35   20   21 1
    36   20   22 1
    37   20   24 1
    38   22   23 2
    39   22   49 1
    40   23   50 1
    41   24   51 1
    42   24   52 1
    43   24   53 1
    44   25   26 1
    45   25   54 1
    46   25   55 1
    47   26   27 1
    48   26   56 1
    49   26   57 1
    50   27   28 1
    51   27   35 1
    52   27   29 1
    53   29   30 1
    54   29   58 1
    55   29   59 1
    56   30   31 1
    57   30   32 1
    58   30   36 1
    59   32   33 1
    60   32   60 1
    61   32   61 1
    62   33   34 2
    63   33   35 1
    64   36   62 1
    65   37   63 1
    66   37   64 1
    67   37   65 1
@<TRIPOS>MOLECULE
ZINC03833876
   62    64     0     0     0
SMALL
USER_CHARGES

@<TRIPOS>ATOM
      1 C1          0.5789    0.9814    1.0341 C.3       1 <0>        -0.1531
      2 C2          0.8139   -0.5284    0.9553 C.3       1 <0>        -0.1101
      3 C3          1.1861   -0.9124   -0.4782 C.3       1 <0>        -0.0847
      4 H1          2.0432   -0.3217   -0.8017 H         1 <0>         0.1064
      5 C4         -0.0007   -0.6386   -1.4041 C.3       1 <0>        -0.1470
      6 C5          1.5368   -2.3771   -0.5309 C.2       1 <0>         0.4520
      7 O1          1.4935   -3.0452    0.4749 O.2       1 <0>        -0.5036
      8 O2          1.8974   -2.9394   -1.6951 O.3       1 <0>        -0.3191
      9 C6          2.2164   -4.3322   -1.6716 C.3       1 <0>         0.0911
     10 H2          2.6208   -4.5862   -0.6919 H         1 <0>         0.0832
     11 C7          0.9402   -5.1378   -1.9060 C.3       1 <0>        -0.1337
     12 C8          1.3034   -6.6295   -1.9064 C.3       1 <0>        -0.0884
     13 C9          2.2585   -6.8664   -3.0481 C.2       1 <0>        -0.1448
     14 C10         3.1187   -5.9350   -3.4156 C.2       1 <0>        -0.0863
     15 C11         3.2627   -4.6137   -2.7224 C.3       1 <0>        -0.0443
     16 H3          4.2319   -4.6162   -2.2237 H         1 <0>         0.0833
     17 C12         3.3195   -3.5192   -3.7900 C.3       1 <0>        -0.0602
     18 H4          2.4218   -3.5629   -4.4067 H         1 <0>         0.0742
     19 C13         4.5539   -3.7507   -4.6632 C.3       1 <0>        -0.0605
     20 H5          4.5079   -3.0870   -5.5267 H         1 <0>         0.0819
     21 C14         4.6382   -5.1682   -5.1408 C.2       1 <0>        -0.1378
     22 C15         4.0018   -6.1795   -4.5792 C.2       1 <0>        -0.1249
     23 C16         5.8083   -3.4245   -3.8502 C.3       1 <0>        -0.1567
     24 C17         3.4129   -2.1489   -3.1158 C.3       1 <0>        -0.1183
     25 C18         3.9433   -1.1223   -4.1186 C.3       1 <0>        -0.1335
     26 C19         4.0368    0.2480   -3.4445 C.3       1 <0>         0.1101
     27 H6          3.0671    0.5132   -3.0233 H         1 <0>         0.0840
     28 C20         4.4498    1.2991   -4.4782 C.3       1 <0>        -0.1541
     29 C21         4.5826    2.6621   -3.7913 C.3       1 <0>         0.1044
     30 H7          4.8890    3.4108   -4.5218 H         1 <0>         0.0785
     31 C22         5.6411    2.5592   -2.6858 C.3       1 <0>        -0.2056
     32 C23         5.2941    1.3793   -1.8045 C.2       1 <0>         0.4949
     33 O3          5.2672    1.4888   -0.6015 O.2       1 <0>        -0.4528
     34 O4          5.0151    0.2012   -2.3999 O.3       1 <0>        -0.3661
     35 O5          3.3264    3.0353   -3.2214 O.3       1 <0>        -0.5627
     36 H8          1.4883    1.5064    0.7418 H         1 <0>         0.0569
     37 H9         -0.2327    1.2584    0.3613 H         1 <0>         0.0587
     38 H10         0.3137    1.2550    2.0553 H         1 <0>         0.0599
     39 H11         1.6255   -0.8054    1.6281 H         1 <0>         0.0720
     40 H12        -0.0956   -1.0534    1.2475 H         1 <0>         0.0701
     41 H13        -0.2544    0.4208   -1.3660 H         1 <0>         0.0751
     42 H14         0.2645   -0.9122   -2.4254 H         1 <0>         0.0683
     43 H15        -0.8578   -1.2293   -1.0806 H         1 <0>         0.0609
     44 H16         0.2257   -4.9340   -1.1086 H         1 <0>         0.0717
     45 H17         0.5055   -4.8655   -2.8678 H         1 <0>         0.0756
     46 H18         1.7818   -6.8938   -0.9633 H         1 <0>         0.0792
     47 H19         0.4039   -7.2290   -2.0464 H         1 <0>         0.0798
     48 H20         2.2391   -7.8106   -3.5721 H         1 <0>         0.1153
     49 H21         5.2626   -5.3767   -5.9970 H         1 <0>         0.1062
     50 H22         4.1204   -7.1793   -4.9700 H         1 <0>         0.1185
     51 H23         5.8517   -4.0713   -2.9739 H         1 <0>         0.0551
     52 H24         6.6929   -3.5871   -4.4660 H         1 <0>         0.0534
     53 H25         5.7739   -2.3827   -3.5314 H         1 <0>         0.0768
     54 H26         2.4240   -1.8445   -2.7729 H         1 <0>         0.1085
     55 H27         4.0904   -2.2085   -2.2641 H         1 <0>         0.0668
     56 H28         4.9322   -1.4267   -4.4615 H         1 <0>         0.0875
     57 H29         3.2658   -1.0628   -4.9704 H         1 <0>         0.0853
     58 H30         5.4065    1.0193   -4.9191 H         1 <0>         0.0948
     59 H31         3.6921    1.3580   -5.2597 H         1 <0>         0.0977
     60 H32         6.6243    2.4084   -3.1314 H         1 <0>         0.1174
     61 H33         5.6424    3.4734   -2.0922 H         1 <0>         0.1069
     62 H34         3.3381    3.8901   -2.7695 H         1 <0>         0.3858
@<TRIPOS>BOND
     1    1    2 1
     2    1   36 1
     3    1   37 1
     4    1   38 1
     5    2    3 1
     6    2   39 1
     7    2   40 1
     8    3    4 1
     9    3    5 1
    10    3    6 1
    11    5   41 1
    12    5   42 1
    13    5   43 1
    14    6    7 2
    15    6    8 1
    16    8    9 1
    17    9   10 1
    18    9   15 1
    19    9   11 1
    20   11   12 1
    21   11   44 1
    22   11   45 1
    23   12   13 1
    24   12   46 1
    25   12   47 1
    26   13   14 2
    27   13   48 1
    28   14   22 1
    29   14   15 1
    30   15   16 1
    31   15   17 1
    32   17   18 1
    33   17   19 1
    34   17   24 1
    35   19   20 1
    36   19   21 1
    37   19   23 1
    38   21   22 2
    39   21   49 1
    40   22   50 1
    41   23   51 1
    42   23   52 1
    43   23   53 1
    44   24   25 1
    45   24   54 1
    46   24   55 1
    47   25   26 1
    48   25   56 1
    49   25   57 1
    50   26   27 1
    51   26   34 1
    52   26   28 1
    53   28   29 1
    54   28   58 1
    55   28   59 1
    56   29   30 1
    57   29   31 1
    58   29   35 1
    59   31   32 1
    60   31   60 1
    61   31   61 1
    62   32   33 2
    63   32   34 1
    64   35   62 1
@<TRIPOS>MOLECULE
ZINC04134477
   64    65     0     0     0
SMALL
USER_CHARGES

@<TRIPOS>ATOM
      1 C1          0.5789    0.9814    1.0341 C.3       1 <0>        -0.1567
      2 C2          0.8138   -0.5284    0.9553 C.3       1 <0>        -0.1065
      3 C3          1.1861   -0.9124   -0.4782 C.3       1 <0>        -0.0892
      4 H1          2.0432   -0.3217   -0.8017 H         1 <0>         0.1164
      5 C4         -0.0007   -0.6386   -1.4041 C.3       1 <0>        -0.1471
      6 C5          1.5368   -2.3771   -0.5309 C.2       1 <0>         0.4552
      7 O1          1.4935   -3.0452    0.4749 O.2       1 <0>        -0.5101
      8 O2          1.8974   -2.9394   -1.6952 O.3       1 <0>        -0.3154
      9 C6          2.2164   -4.3322   -1.6716 C.3       1 <0>         0.0909
     10 H2          2.6208   -4.5862   -0.6919 H         1 <0>         0.0818
     11 C7          0.9402   -5.1378   -1.9060 C.3       1 <0>        -0.1342
     12 C8          1.3034   -6.6295   -1.9064 C.3       1 <0>        -0.0862
     13 C9          2.2585   -6.8664   -3.0481 C.2       1 <0>        -0.1514
     14 C10         3.1187   -5.9350   -3.4156 C.2       1 <0>        -0.0806
     15 C11         3.2627   -4.6137   -2.7224 C.3       1 <0>        -0.0454
     16 H3          4.2319   -4.6162   -2.2237 H         1 <0>         0.0827
     17 C12         3.3195   -3.5192   -3.7900 C.3       1 <0>        -0.0605
     18 H4          2.4218   -3.5629   -4.4067 H         1 <0>         0.0708
     19 C13         4.5539   -3.7507   -4.6632 C.3       1 <0>        -0.0619
     20 H5          4.5079   -3.0870   -5.5267 H         1 <0>         0.0826
     21 C14         4.6382   -5.1682   -5.1408 C.2       1 <0>        -0.1321
     22 C15         4.0018   -6.1795   -4.5792 C.2       1 <0>        -0.1305
     23 C16         5.8083   -3.4245   -3.8502 C.3       1 <0>        -0.1537
     24 C17         3.4129   -2.1489   -3.1158 C.3       1 <0>        -0.1118
     25 C18         3.9433   -1.1223   -4.1186 C.3       1 <0>        -0.1680
     26 C19         4.0368    0.2480   -3.4445 C.3       1 <0>         0.1141
     27 H6          3.0668    0.5127   -3.0235 H         1 <0>         0.0927
     28 C20         4.4476    1.2981   -4.4786 C.3       1 <0>        -0.1877
     29 C21         4.4202    2.6858   -3.8348 C.3       1 <0>         0.1382
     30 H7          3.4368    2.8653   -3.4001 H         1 <0>         0.0915
     31 C22         4.7091    3.7472   -4.8982 C.3       1 <0>        -0.2198
     32 C23         4.5614    5.1190   -4.2920 C.2       1 <0>         0.4905
     33 O3          4.2536    5.2368   -3.1182 O.co2     1 <0>        -0.6811
     34 O4          4.7498    6.1109   -4.9754 O.co2     1 <0>        -0.7139
     35 O5          5.4138    2.7553   -2.8101 O.3       1 <0>        -0.5280
     36 O6          5.0119    0.2000   -2.4010 O.3       1 <0>        -0.5421
     37 H8          1.4883    1.5064    0.7418 H         1 <0>         0.0637
     38 H9         -0.2327    1.2585    0.3613 H         1 <0>         0.0589
     39 H10         0.3137    1.2550    2.0553 H         1 <0>         0.0579
     40 H11         1.6254   -0.8054    1.6280 H         1 <0>         0.0705
     41 H12        -0.0956   -1.0533    1.2475 H         1 <0>         0.0660
     42 H13         0.2645   -0.9122   -2.4254 H         1 <0>         0.0682
     43 H14        -0.8578   -1.2293   -1.0807 H         1 <0>         0.0574
     44 H15        -0.2544    0.4208   -1.3660 H         1 <0>         0.0774
     45 H16         0.2256   -4.9340   -1.1086 H         1 <0>         0.0711
     46 H17         0.5055   -4.8654   -2.8678 H         1 <0>         0.0750
     47 H18         1.7818   -6.8938   -0.9633 H         1 <0>         0.0776
     48 H19         0.4039   -7.2290   -2.0464 H         1 <0>         0.0775
     49 H20         2.2391   -7.8106   -3.5721 H         1 <0>         0.1132
     50 H21         5.2626   -5.3768   -5.9970 H         1 <0>         0.1049
     51 H22         4.1204   -7.1793   -4.9700 H         1 <0>         0.1168
     52 H23         5.8517   -4.0713   -2.9739 H         1 <0>         0.0541
     53 H24         6.6929   -3.5871   -4.4659 H         1 <0>         0.0522
     54 H25         5.7739   -2.3827   -3.5314 H         1 <0>         0.0763
     55 H26         2.4240   -1.8445   -2.7729 H         1 <0>         0.1062
     56 H27         4.0904   -2.2085   -2.2641 H         1 <0>         0.0639
     57 H28         4.9322   -1.4267   -4.4615 H         1 <0>         0.0732
     58 H29         3.2658   -1.0628   -4.9704 H         1 <0>         0.0656
     59 H30         5.4550    1.0827   -4.8347 H         1 <0>         0.0603
     60 H31         3.7525    1.2731   -5.3178 H         1 <0>         0.0718
     61 H32         5.7262    3.6218   -5.2698 H         1 <0>         0.0553
     62 H33         4.0049    3.6366   -5.7228 H         1 <0>         0.0601
     63 H34         6.3154    2.6050   -3.1257 H         1 <0>         0.3493
     64 H35         5.9009   -0.0302   -2.7038 H         1 <0>         0.3622
@<TRIPOS>BOND
     1    1    2 1
     2    1   37 1
     3    1   38 1
     4    1   39 1
     5    2    3 1
     6    2   40 1
     7    2   41 1
     8    3    4 1
     9    3    5 1
    10    3    6 1
    11    5   42 1
    12    5   43 1
    13    5   44 1
    14    6    7 2
    15    6    8 1
    16    8    9 1
    17    9   10 1
    18    9   15 1
    19    9   11 1
    20   11   12 1
    21   11   45 1
    22   11   46 1
    23   12   13 1
    24   12   47 1
    25   12   48 1
    26   13   14 2
    27   13   49 1
    28   14   22 1
    29   14   15 1
    30   15   16 1
    31   15   17 1
    32   17   18 1
    33   17   19 1
    34   17   24 1
    35   19   20 1
    36   19   21 1
    37   19   23 1
    38   21   22 2
    39   21   50 1
    40   22   51 1
    41   23   52 1
    42   23   53 1
    43   23   54 1
    44   24   25 1
    45   24   55 1
    46   24   56 1
    47   25   26 1
    48   25   57 1
    49   25   58 1
    50   26   27 1
    51   26   28 1
    52   26   36 1
    53   28   29 1
    54   28   59 1
    55   28   60 1
    56   29   30 1
    57   29   31 1
    58   29   35 1
    59   31   32 1
    60   31   61 1
    61   31   62 1
    62   32   33 2
    63   32   34 1
    64   35   63 1
    65   36   64 1
@<TRIPOS>MOLECULE
ZINC14806786
   64    65     0     0     0
SMALL
USER_CHARGES
(3R,5S)-7-[(1S,2S,8S,8aR)-2-methyl-8-[(2S)-2-methylbutanoyl]oxy-1,2,6,7,8,8a-hexahydronaphthalen-1-yl]-3,5-dihydroxy-heptanoic acid
@<TRIPOS>ATOM
      1 C1         -0.6491    0.1631    3.6276 C.3       1 <0>        -0.1546
      2 C2         -0.7793    1.6828    3.5075 C.3       1 <0>        -0.1074
      3 C3         -1.1739    2.0493    2.0754 C.3       1 <0>        -0.0869
      4 H1         -2.0814    1.5121    1.7998 H         1 <0>         0.1222
      5 C4         -0.0428    1.6632    1.1201 C.3       1 <0>        -0.1384
      6 C5         -1.4218    3.5331    1.9867 C.2       1 <0>         0.4537
      7 O1         -1.2959    4.2263    2.9682 O.2       1 <0>        -0.5142
      8 O2         -1.7826    4.0846    0.8173 O.3       1 <0>        -0.3179
      9 C6         -2.0048    5.5194    0.8059 C.3       1 <0>         0.0918
     10 H2         -2.3555    5.8316    1.7896 H         1 <0>         0.0831
     11 C7         -0.6844    6.2244    0.5022 C.3       1 <0>        -0.1326
     12 C8         -0.9125    7.7207    0.4507 C.3       1 <0>        -0.0864
     13 C9         -1.9019    8.0032   -0.6501 C.2       1 <0>        -0.1515
     14 C10        -2.8486    7.1346   -0.9535 C.2       1 <0>        -0.0811
     15 C11        -3.0649    5.8444   -0.2198 C.3       1 <0>        -0.0451
     16 H3         -4.0180    5.9202    0.3036 H         1 <0>         0.0841
     17 C12        -3.2036    4.7387   -1.2687 C.3       1 <0>        -0.0605
     18 H4         -2.3170    4.7228   -1.9026 H         1 <0>         0.0712
     19 C13        -4.4398    5.0254   -2.1227 C.3       1 <0>        -0.0626
     20 H5         -4.4513    4.3425   -2.9722 H         1 <0>         0.0830
     21 C14        -4.4476    6.4356   -2.6289 C.2       1 <0>        -0.1323
     22 C15        -3.7405    7.4177   -2.0975 C.2       1 <0>        -0.1310
     23 C16        -5.6945    4.7926   -1.2786 C.3       1 <0>        -0.1550
     24 C17        -3.3641    3.3866   -0.5710 C.3       1 <0>        -0.1118
     25 C18        -3.9863    2.3819   -1.5428 C.3       1 <0>        -0.1672
     26 C19        -4.1468    1.0298   -0.8451 C.3       1 <0>         0.1129
     27 H6         -4.7211    1.1601    0.0722 H         1 <0>         0.1005
     28 C20        -4.8817    0.0608   -1.7735 C.3       1 <0>        -0.1855
     29 C21        -5.1525   -1.2498   -1.0319 C.3       1 <0>         0.1309
     30 H7         -4.2152   -1.6473   -0.6426 H         1 <0>         0.1028
     31 C22        -5.7746   -2.2621   -1.9958 C.3       1 <0>        -0.1929
     32 C23        -5.9281   -3.5898   -1.2997 C.2       1 <0>         0.4593
     33 O3         -5.5761   -3.7137   -0.1505 O.co2     1 <0>        -0.6233
     34 O4         -6.0531   -1.0071    0.0507 O.3       1 <0>        -0.5434
     35 O5         -2.8575    0.5010   -0.5287 O.3       1 <0>        -0.5535
     36 H8         -0.3680   -0.0980    4.6478 H         1 <0>         0.0559
     37 H9         -1.6031   -0.3038    3.3827 H         1 <0>         0.0630
     38 H10         0.1167   -0.1916    2.9377 H         1 <0>         0.0587
     39 H11         0.1747    2.1497    3.7523 H         1 <0>         0.0644
     40 H12        -1.5451    2.0375    4.1974 H         1 <0>         0.0683
     41 H13         0.1365    0.5900    1.1842 H         1 <0>         0.0755
     42 H14         0.8647    2.2004    1.3957 H         1 <0>         0.0510
     43 H15        -0.3239    1.9243    0.0998 H         1 <0>         0.0686
     44 H16         0.0457    5.9855    1.2754 H         1 <0>         0.0721
     45 H17        -0.3104    5.9010   -0.4692 H         1 <0>         0.0732
     46 H18         0.0261    8.2352    0.2447 H         1 <0>         0.0788
     47 H19        -1.3167    8.0567    1.4057 H         1 <0>         0.0763
     48 H20        -1.8353    8.9306   -1.1997 H         1 <0>         0.1132
     49 H21        -5.0697    6.6638   -3.4817 H         1 <0>         0.1051
     50 H22        -3.8037    8.4146   -2.5080 H         1 <0>         0.1175
     51 H23        -5.6813    5.4594   -0.4165 H         1 <0>         0.0542
     52 H24        -6.5802    4.9950   -1.8809 H         1 <0>         0.0533
     53 H25        -5.7160    3.7577   -0.9373 H         1 <0>         0.0762
     54 H26        -2.3871    3.0249   -0.2506 H         1 <0>         0.1164
     55 H27        -4.0122    3.5008    0.2980 H         1 <0>         0.0550
     56 H28        -4.9634    2.7436   -1.8632 H         1 <0>         0.0787
     57 H29        -3.3383    2.2677   -2.4117 H         1 <0>         0.0606
     58 H30        -5.8274    0.5036   -2.0859 H         1 <0>         0.0667
     59 H31        -4.2665   -0.1387   -2.6510 H         1 <0>         0.0688
     60 H32        -6.7532   -1.9046   -2.3163 H         1 <0>         0.0622
     61 H33        -5.1282   -2.3804   -2.8655 H         1 <0>         0.0678
     62 H34        -6.9099   -0.6516   -0.2226 H         1 <0>         0.3552
     63 H35        -2.2908    0.3590   -1.2993 H         1 <0>         0.3669
     64 O6         -6.4560   -4.6348   -1.9563 O.co2     1 <0>        -0.7836
@<TRIPOS>BOND
     1    1    2 1
     2    1   36 1
     3    1   37 1
     4    1   38 1
     5    2    3 1
     6    2   39 1
     7    2   40 1
     8    3    4 1
     9    3    5 1
    10    3    6 1
    11    5   41 1
    12    5   42 1
    13    5   43 1
    14    6    7 2
    15    6    8 1
    16    8    9 1
    17    9   10 1
    18    9   15 1
    19    9   11 1
    20   11   12 1
    21   11   44 1
    22   11   45 1
    23   12   13 1
    24   12   46 1
    25   12   47 1
    26   13   14 2
    27   13   48 1
    28   14   22 1
    29   14   15 1
    30   15   16 1
    31   15   17 1
    32   17   18 1
    33   17   19 1
    34   17   24 1
    35   19   20 1
    36   19   21 1
    37   19   23 1
    38   21   22 2
    39   21   49 1
    40   22   50 1
    41   23   51 1
    42   23   52 1
    43   23   53 1
    44   24   25 1
    45   24   54 1
    46   24   55 1
    47   25   26 1
    48   25   56 1
    49   25   57 1
    50   26   27 1
    51   26   28 1
    52   26   35 1
    53   28   29 1
    54   28   58 1
    55   28   59 1
    56   29   30 1
    57   29   31 1
    58   29   34 1
    59   31   32 1
    60   31   60 1
    61   31   61 1
    62   32   33 2
    63   32   64 1
    64   34   62 1
    65   35   63 1
@<TRIPOS>MOLECULE
ZINC29571156
   64    65     0     0     0
SMALL
USER_CHARGES
(3R,5R)-7-[(1S,2S,8S,8aS)-2-methyl-8-[(2S)-2-methylbutanoyl]oxy-1,2,6,7,8,8a-hexahydronaphthalen-1-yl]-3,5-dihydroxy-heptanoic acid
@<TRIPOS>ATOM
      1 C1          2.9604    5.9725   -8.3489 C.3       1 <0>        -0.1546
      2 C2          2.4625    5.7287   -6.9229 C.3       1 <0>        -0.1116
      3 C3          1.4368    4.5935   -6.9279 C.3       1 <0>        -0.0835
      4 H1          1.8768    3.6940   -7.3832 H         1 <0>         0.1070
      5 C4          0.2011    5.0261   -7.7197 C.3       1 <0>        -0.1484
      6 C5          1.0378    4.2707   -5.5110 C.2       1 <0>         0.4610
      7 O1          1.5240    4.8855   -4.5915 O.2       1 <0>        -0.5072
      8 O2          0.1424    3.3001   -5.2704 O.3       1 <0>        -0.3511
      9 C6         -0.1945    3.0435   -3.8816 C.3       1 <0>         0.0997
     10 H2          0.6906    3.2537   -3.2632 H         1 <0>         0.0859
     11 C7         -1.3402    3.9655   -3.4691 C.3       1 <0>        -0.1409
     12 C8         -2.5602    3.6404   -4.3419 C.3       1 <0>        -0.0832
     13 C9         -2.9444    2.2073   -4.0790 C.2       1 <0>        -0.1519
     14 C10        -2.0314    1.3024   -3.7782 C.2       1 <0>        -0.0684
     15 C11        -0.5595    1.5861   -3.7255 C.3       1 <0>        -0.0425
     16 H3         -0.1099    1.1131   -4.6110 H         1 <0>         0.0879
     17 C12        -0.0058    0.9943   -2.4272 C.3       1 <0>        -0.0700
     18 H4          1.0657    1.2262   -2.3375 H         1 <0>         0.0743
     19 C13        -0.2083   -0.5216   -2.4497 C.3       1 <0>        -0.0550
     20 H5          0.4413   -0.9556   -3.2241 H         1 <0>         0.0779
     21 C14        -1.6220   -0.8821   -2.8059 C.2       1 <0>        -0.1452
     22 C15        -2.4644   -0.0674   -3.4172 C.2       1 <0>        -0.1225
     23 C16         0.1244   -1.0901   -1.0688 C.3       1 <0>        -0.1507
     24 C17        -0.7492    1.5938   -1.2319 C.3       1 <0>        -0.1123
     25 C18        -2.1909    1.0817   -1.2190 C.3       1 <0>        -0.1537
     26 C19        -2.8911    1.5613    0.0541 C.3       1 <0>         0.1234
     27 H6         -2.3009    1.3178    0.9499 H         1 <0>         0.0324
     28 C20        -4.2907    0.9478    0.1283 C.3       1 <0>        -0.1408
     29 C21        -4.9435    1.3262    1.4593 C.3       1 <0>         0.1368
     30 H7         -4.2845    1.0906    2.3080 H         1 <0>         0.0465
     31 C22        -6.2905    0.6121    1.5880 C.3       1 <0>        -0.1903
     32 C23        -6.8766    0.8867    2.9489 C.2       1 <0>         0.4625
     33 O3         -6.2783    1.5821    3.7353 O.co2     1 <0>        -0.6449
     34 O4         -8.0633    0.3586    3.2875 O.co2     1 <0>        -0.7710
     35 O5         -5.1474    2.7398    1.5050 O.3       1 <0>        -0.6064
     36 O6         -2.9962    2.9863    0.0320 O.3       1 <0>        -0.6040
     37 H8          3.6978    6.7887   -8.3453 H         1 <0>         0.0598
     38 H9          2.1113    6.2483   -8.9916 H         1 <0>         0.0598
     39 H10         3.4300    5.0558   -8.7351 H         1 <0>         0.0561
     40 H11         3.3116    5.4529   -6.2802 H         1 <0>         0.0722
     41 H12         1.9930    6.6454   -6.5367 H         1 <0>         0.0718
     42 H13        -0.5363    4.2099   -7.7233 H         1 <0>         0.0706
     43 H14         0.4923    5.2617   -8.7540 H         1 <0>         0.0737
     44 H15        -0.2410    5.9177   -7.2511 H         1 <0>         0.0615
     45 H16        -1.5807    3.7996   -2.4086 H         1 <0>         0.1018
     46 H17        -1.0393    5.0131   -3.6173 H         1 <0>         0.0671
     47 H18        -3.3896    4.3129   -4.0778 H         1 <0>         0.0745
     48 H19        -2.2999    3.7779   -5.4018 H         1 <0>         0.0750
     49 H20        -4.0043    1.9197   -4.1409 H         1 <0>         0.1149
     50 H21        -1.9432   -1.8961   -2.5255 H         1 <0>         0.1114
     51 H22        -3.4829   -0.4074   -3.6561 H         1 <0>         0.1225
     52 H23        -0.0189   -2.1807   -1.0770 H         1 <0>         0.0557
     53 H24        -0.5394   -0.6387   -0.3168 H         1 <0>         0.0689
     54 H25         1.1708   -0.8597   -0.8198 H         1 <0>         0.0563
     55 H26        -0.2459    1.2960   -0.3002 H         1 <0>         0.0607
     56 H27        -0.7504    2.6908   -1.3135 H         1 <0>         0.0711
     57 H28        -2.7253    1.4684   -2.0993 H         1 <0>         0.1083
     58 H29        -2.1897   -0.0180   -1.2447 H         1 <0>         0.0900
     59 H30        -4.9029    1.3296   -0.7020 H         1 <0>         0.0721
     60 H31        -4.2155   -0.1472    0.0550 H         1 <0>         0.0719
     61 H32        -6.9769    0.9814    0.8118 H         1 <0>         0.0714
     62 H33        -6.1447   -0.4710    1.4633 H         1 <0>         0.0681
     63 H34        -5.6089    3.2006    2.3908 H         1 <0>         0.4176
     64 H35        -3.4743    3.5156    0.8694 H         1 <0>         0.4097
@<TRIPOS>BOND
     1    1    2 1
     2    1   37 1
     3    1   38 1
     4    1   39 1
     5    2    3 1
     6    2   40 1
     7    2   41 1
     8    3    4 1
     9    3    5 1
    10    3    6 1
    11    5   42 1
    12    5   43 1
    13    5   44 1
    14    6    7 2
    15    6    8 1
    16    8    9 1
    17    9   10 1
    18    9   15 1
    19    9   11 1
    20   11   12 1
    21   11   45 1
    22   11   46 1
    23   12   13 1
    24   12   47 1
    25   12   48 1
    26   13   14 2
    27   13   49 1
    28   14   22 1
    29   14   15 1
    30   15   16 1
    31   15   17 1
    32   17   18 1
    33   17   19 1
    34   17   24 1
    35   19   20 1
    36   19   21 1
    37   19   23 1
    38   21   22 2
    39   21   50 1
    40   22   51 1
    41   23   52 1
    42   23   53 1
    43   23   54 1
    44   24   25 1
    45   24   55 1
    46   24   56 1
    47   25   26 1
    48   25   57 1
    49   25   58 1
    50   26   27 1
    51   26   28 1
    52   26   36 1
    53   28   29 1
    54   28   59 1
    55   28   60 1
    56   29   30 1
    57   29   31 1
    58   29   35 1
    59   31   32 1
    60   31   61 1
    61   31   62 1
    62   32   33 2
    63   32   34 1
    64   35   63 1
    65   36   64 1
@<TRIPOS>MOLECULE
ZINC29571159
   64    65     0     0     0
SMALL
USER_CHARGES
(3R,5S)-7-[(1S,2S,8S,8aS)-2-methyl-8-[(2S)-2-methylbutanoyl]oxy-1,2,6,7,8,8a-hexahydronaphthalen-1-yl]-3,5-dihydroxy-heptanoic acid
@<TRIPOS>ATOM
      1 C1          5.8276    3.6659   -5.0863 C.3       1 <0>        -0.1547
      2 C2          4.7738    3.9872   -4.0247 C.3       1 <0>        -0.1116
      3 C3          4.5813    2.7732   -3.1135 C.3       1 <0>        -0.0834
      4 H1          5.5464    2.4763   -2.6771 H         1 <0>         0.1074
      5 C4          3.9986    1.6141   -3.9245 C.3       1 <0>        -0.1485
      6 C5          3.6357    3.1293   -1.9954 C.2       1 <0>         0.4610
      7 O1          3.1641    4.2401   -1.9337 O.2       1 <0>        -0.5071
      8 O2          3.3173    2.2126   -1.0681 O.3       1 <0>        -0.3501
      9 C6          2.4008    2.6255   -0.0204 C.3       1 <0>         0.0978
     10 H2          2.5243    3.7055    0.1483 H         1 <0>         0.0884
     11 C7          0.9701    2.3372   -0.4703 C.3       1 <0>        -0.1379
     12 C8          0.8217    0.8220   -0.6681 C.3       1 <0>        -0.0852
     13 C9          1.0666    0.1616    0.6645 C.2       1 <0>        -0.1582
     14 C10         1.9229    0.6759    1.5276 C.2       1 <0>        -0.0677
     15 C11         2.7514    1.8962    1.2538 C.3       1 <0>        -0.0457
     16 H3          3.7794    1.5516    1.0682 H         1 <0>         0.0887
     17 C12         2.6773    2.8073    2.4805 C.3       1 <0>        -0.0683
     18 H4          3.2367    3.7357    2.2931 H         1 <0>         0.0749
     19 C13         3.2790    2.0676    3.6766 C.3       1 <0>        -0.0549
     20 H5          4.3603    1.9513    3.5112 H         1 <0>         0.0766
     21 C14         2.7091    0.6896    3.8211 C.2       1 <0>        -0.1365
     22 C15         2.0942    0.0344    2.8514 C.2       1 <0>        -0.1325
     23 C16         2.9904    2.8629    4.9515 C.3       1 <0>        -0.1556
     24 C17         1.2165    3.1553    2.7740 C.3       1 <0>        -0.1142
     25 C18         0.5106    1.9343    3.3671 C.3       1 <0>        -0.1412
     26 C19        -0.9038    2.3239    3.8014 C.3       1 <0>         0.1179
     27 H6         -1.4463    2.8277    2.9879 H         1 <0>         0.0505
     28 C20        -1.6522    1.0778    4.2787 C.3       1 <0>        -0.1387
     29 C21        -3.1036    1.4444    4.5949 C.3       1 <0>         0.1358
     30 H7         -3.1581    2.3099    5.2716 H         1 <0>         0.0462
     31 C22        -3.8185    0.2294    5.1895 C.3       1 <0>        -0.1908
     32 C23        -5.2098    0.6233    5.6141 C.2       1 <0>         0.4626
     33 O3         -5.5904    1.7593    5.4573 O.co2     1 <0>        -0.6447
     34 O4         -6.0261   -0.2878    6.1666 O.co2     1 <0>        -0.7710
     35 O5         -3.7658    1.8462    3.3940 O.3       1 <0>        -0.6110
     36 O6         -0.8304    3.2729    4.8672 O.3       1 <0>        -0.6052
     37 H8          5.9660    4.5386   -5.7414 H         1 <0>         0.0600
     38 H9          5.4936    2.8064   -5.6861 H         1 <0>         0.0598
     39 H10         6.7808    3.4216   -4.5946 H         1 <0>         0.0563
     40 H11         5.1078    4.8467   -3.4249 H         1 <0>         0.0723
     41 H12         3.8206    4.2315   -4.5164 H         1 <0>         0.0718
     42 H13         3.8602    0.7413   -3.2694 H         1 <0>         0.0705
     43 H14         4.6888    1.3542   -4.7406 H         1 <0>         0.0741
     44 H15         3.0279    1.9134   -4.3465 H         1 <0>         0.0615
     45 H16         0.2662    2.6874    0.2990 H         1 <0>         0.0908
     46 H17         0.7704    2.8620   -1.4162 H         1 <0>         0.0695
     47 H18        -0.1936    0.5967   -1.0266 H         1 <0>         0.0749
     48 H19         1.5574    0.4751   -1.4086 H         1 <0>         0.0783
     49 H20         0.5211   -0.7605    0.9139 H         1 <0>         0.1169
     50 H21         2.8279    0.2236    4.8104 H         1 <0>         0.1109
     51 H22         1.7129   -0.9818    3.0300 H         1 <0>         0.1227
     52 H23         3.4202    2.3371    5.8168 H         1 <0>         0.0527
     53 H24         1.9028    2.9602    5.0847 H         1 <0>         0.0828
     54 H25         3.4407    3.8632    4.8695 H         1 <0>         0.0538
     55 H26         1.1750    3.9876    3.4921 H         1 <0>         0.0742
     56 H27         0.7153    3.4511    1.8405 H         1 <0>         0.0597
     57 H28         0.4555    1.1387    2.6095 H         1 <0>         0.1036
     58 H29         1.0751    1.5719    4.2389 H         1 <0>         0.0895
     59 H30        -1.6311    0.3124    3.4889 H         1 <0>         0.0693
     60 H31        -1.1679    0.6836    5.1843 H         1 <0>         0.0745
     61 H32        -3.8776   -0.5675    4.4335 H         1 <0>         0.0706
     62 H33        -3.2578   -0.1348    6.0630 H         1 <0>         0.0684
     63 H34        -4.8231    2.1483    3.4236 H         1 <0>         0.4153
     64 H35        -1.7535    3.6718    5.3130 H         1 <0>         0.4025
@<TRIPOS>BOND
     1    1    2 1
     2    1   37 1
     3    1   38 1
     4    1   39 1
     5    2    3 1
     6    2   40 1
     7    2   41 1
     8    3    4 1
     9    3    5 1
    10    3    6 1
    11    5   42 1
    12    5   43 1
    13    5   44 1
    14    6    7 2
    15    6    8 1
    16    8    9 1
    17    9   10 1
    18    9   15 1
    19    9   11 1
    20   11   12 1
    21   11   45 1
    22   11   46 1
    23   12   13 1
    24   12   47 1
    25   12   48 1
    26   13   14 2
    27   13   49 1
    28   14   22 1
    29   14   15 1
    30   15   16 1
    31   15   17 1
    32   17   18 1
    33   17   19 1
    34   17   24 1
    35   19   20 1
    36   19   21 1
    37   19   23 1
    38   21   22 2
    39   21   50 1
    40   22   51 1
    41   23   52 1
    42   23   53 1
    43   23   54 1
    44   24   25 1
    45   24   55 1
    46   24   56 1
    47   25   26 1
    48   25   57 1
    49   25   58 1
    50   26   27 1
    51   26   28 1
    52   26   36 1
    53   28   29 1
    54   28   59 1
    55   28   60 1
    56   29   30 1
    57   29   31 1
    58   29   35 1
    59   31   32 1
    60   31   61 1
    61   31   62 1
    62   32   33 2
    63   32   34 1
    64   35   63 1
    65   36   64 1
@<TRIPOS>MOLECULE
ZINC26383570
   67    69     0     0     0
SMALL
USER_CHARGES
[(1S,3S,4aR,7S,8S,8aS)-8-[2-[(2R,4R)-4-hydroxy-6-oxo-tetrahydropyran-2-yl]ethyl]-3,7-dimethyl-1,2,3,4,4a,7,8,8a-octahydronaphthalen-1-yl] (2S)-2-methylbutanoate
@<TRIPOS>ATOM
      1 C1         -0.5940   -5.5993    5.2588 C.3       1 <0>        -0.1553
      2 C2         -1.5867   -5.0807    4.2164 C.3       1 <0>        -0.1111
      3 C3         -1.9958   -3.6493    4.5695 C.3       1 <0>        -0.0837
      4 H1         -1.1012   -3.0151    4.6556 H         1 <0>         0.1069
      5 C4         -2.7626   -3.6500    5.8935 C.3       1 <0>        -0.1521
      6 C5         -2.8763   -3.0950    3.4794 C.2       1 <0>         0.4575
      7 O1         -3.1487   -3.7751    2.5185 O.2       1 <0>        -0.5063
      8 O2         -3.3580   -1.8459    3.5757 O.3       1 <0>        -0.3386
      9 C6         -4.1993   -1.3781    2.4887 C.3       1 <0>         0.0919
     10 H2         -3.8558   -1.9024    1.5848 H         1 <0>         0.0917
     11 C7         -5.6653   -1.6988    2.7990 C.3       1 <0>        -0.1320
     12 C8         -6.0942   -0.9980    4.0881 C.3       1 <0>        -0.0870
     13 H3         -7.1553   -1.2173    4.2775 H         1 <0>         0.0690
     14 C9         -5.9071    0.5164    3.9519 C.3       1 <0>        -0.1056
     15 C10        -4.4375    0.8062    3.6581 C.3       1 <0>        -0.0521
     16 H4         -3.8290    0.4232    4.4906 H         1 <0>         0.0910
     17 C11        -4.0488    0.1341    2.3391 C.3       1 <0>        -0.0687
     18 H5         -4.7005    0.4627    1.5161 H         1 <0>         0.0932
     19 C12        -2.6053    0.5182    2.0126 C.3       1 <0>        -0.0753
     20 H6         -1.9493    0.2906    2.8658 H         1 <0>         0.0777
     21 C13        -2.5699    2.0169    1.6988 C.3       1 <0>        -0.0549
     22 H7         -1.5281    2.3689    1.7267 H         1 <0>         0.0773
     23 C14        -3.3366    2.7955    2.7256 C.2       1 <0>        -0.1540
     24 C15        -4.1620    2.2750    3.5813 C.2       1 <0>        -0.1478
     25 C16        -3.1882    2.2571    0.3201 C.3       1 <0>        -0.1502
     26 C17        -2.1220   -0.2755    0.7971 C.3       1 <0>        -0.1266
     27 C18        -0.6496    0.0446    0.5316 C.3       1 <0>        -0.1153
     28 C19        -0.1662   -0.7491   -0.6838 C.3       1 <0>         0.1122
     29 H8         -0.3924   -1.8187   -0.5619 H         1 <0>         0.0867
     30 C20         1.3359   -0.5241   -0.8774 C.3       1 <0>        -0.1501
     31 C21         1.8057   -1.2789   -2.1248 C.3       1 <0>         0.1143
     32 H9          2.8939   -1.1954   -2.2620 H         1 <0>         0.0751
     33 C22         1.0393   -0.7521   -3.3443 C.3       1 <0>        -0.2048
     34 C23        -0.4415   -0.8166   -3.0416 C.2       1 <0>         0.4978
     35 O3         -1.2145   -1.3175   -3.8236 O.2       1 <0>        -0.4563
     36 O4         -0.8743   -0.2989   -1.8730 O.3       1 <0>        -0.3753
     37 O5          1.5479   -2.6752   -1.9644 O.3       1 <0>        -0.5999
     38 C24        -5.2408   -1.5079    5.2511 C.3       1 <0>        -0.1692
     39 H10        -0.2999   -6.6284    5.0049 H         1 <0>         0.0606
     40 H11        -1.0659   -5.5873    6.2523 H         1 <0>         0.0598
     41 H12         0.2975   -4.9550    5.2685 H         1 <0>         0.0565
     42 H13        -1.1148   -5.0927    3.2229 H         1 <0>         0.0722
     43 H14        -2.4782   -5.7250    4.2066 H         1 <0>         0.0709
     44 H15        -3.0567   -2.6209    6.1474 H         1 <0>         0.0726
     45 H16        -2.1198   -4.0546    6.6892 H         1 <0>         0.0743
     46 H17        -3.6625   -4.2750    5.7957 H         1 <0>         0.0610
     47 H18        -6.3000   -1.3512    1.9705 H         1 <0>         0.0793
     48 H19        -5.7850   -2.7854    2.9216 H         1 <0>         0.0686
     49 H20        -6.5327    0.8905    3.1280 H         1 <0>         0.0627
     50 H21        -6.2037    1.0084    4.8900 H         1 <0>         0.0664
     51 H22        -3.1603    3.8813    2.7219 H         1 <0>         0.1021
     52 H23        -4.6960    2.9212    4.2935 H         1 <0>         0.1062
     53 H24        -3.1650    3.3326    0.0902 H         1 <0>         0.0533
     54 H25        -4.2301    1.9043    0.3190 H         1 <0>         0.0561
     55 H26        -2.6140    1.7072   -0.4401 H         1 <0>         0.0699
     56 H27        -2.2335   -1.3519    0.9942 H         1 <0>         0.0626
     57 H28        -2.7216    0.0002   -0.0829 H         1 <0>         0.0815
     58 H29        -0.5382    1.1210    0.3345 H         1 <0>         0.0813
     59 H30        -0.0500   -0.2310    1.4116 H         1 <0>         0.0860
     60 H31         1.5325    0.5510   -1.0023 H         1 <0>         0.0973
     61 H32         1.8790   -0.8962    0.0039 H         1 <0>         0.0977
     62 H33         1.3378    0.2877   -3.5438 H         1 <0>         0.1165
     63 H34         1.2719   -1.3749   -4.2207 H         1 <0>         0.1068
     64 H35         1.8198   -3.3801   -2.7639 H         1 <0>         0.4166
     65 H36        -5.5481   -1.0046    6.1796 H         1 <0>         0.0479
     66 H37        -4.1810   -1.2920    5.0505 H         1 <0>         0.0976
     67 H38        -5.3797   -2.5937    5.3593 H         1 <0>         0.0460
@<TRIPOS>BOND
     1    1    2 1
     2    1   39 1
     3    1   40 1
     4    1   41 1
     5    2    3 1
     6    2   42 1
     7    2   43 1
     8    3    4 1
     9    3    5 1
    10    3    6 1
    11    5   44 1
    12    5   45 1
    13    5   46 1
    14    6    7 2
    15    6    8 1
    16    8    9 1
    17    9   10 1
    18    9   17 1
    19    9   11 1
    20   11   12 1
    21   11   47 1
    22   11   48 1
    23   12   13 1
    24   12   14 1
    25   12   38 1
    26   14   15 1
    27   14   49 1
    28   14   50 1
    29   15   16 1
    30   15   24 1
    31   15   17 1
    32   17   18 1
    33   17   19 1
    34   19   20 1
    35   19   21 1
    36   19   26 1
    37   21   22 1
    38   21   23 1
    39   21   25 1
    40   23   24 2
    41   23   51 1
    42   24   52 1
    43   25   53 1
    44   25   54 1
    45   25   55 1
    46   26   27 1
    47   26   56 1
    48   26   57 1
    49   27   28 1
    50   27   58 1
    51   27   59 1
    52   28   29 1
    53   28   36 1
    54   28   30 1
    55   30   31 1
    56   30   60 1
    57   30   61 1
    58   31   32 1
    59   31   33 1
    60   31   37 1
    61   33   34 1
    62   33   62 1
    63   33   63 1
    64   34   35 2
    65   34   36 1
    66   37   64 1
    67   38   65 1
    68   38   66 1
    69   38   67 1
@<TRIPOS>MOLECULE
ZINC04245664
   65    67     0     0     0
SMALL
USER_CHARGES
[8-[2-(4-hydroxy-6-oxo-tetrahydropyran-2-yl)ethyl]-3,7-dimethyl-1,2,3,7,8,8a-hexahydronaphthalen-1-yl] 2-methylbutanoate
@<TRIPOS>ATOM
      1 C1          7.4383   -2.8201    0.2328 C.3       1 <0>        -0.1542
      2 C2          6.2684   -2.0487   -0.3814 C.3       1 <0>        -0.1070
      3 C3          5.6913   -1.0851    0.6576 C.3       1 <0>        -0.0848
      4 H1          6.4878   -0.4511    1.0470 H         1 <0>         0.1135
      5 C4          5.0690   -1.8844    1.8043 C.3       1 <0>        -0.1407
      6 C5          4.6346   -0.2254    0.0131 C.2       1 <0>         0.4513
      7 O1          4.3054   -0.4291   -1.1314 O.2       1 <0>        -0.5077
      8 O2          4.0592    0.7666    0.7106 O.3       1 <0>        -0.3229
      9 C6          2.9662    1.4755    0.0693 C.3       1 <0>         0.0919
     10 H2          3.1662    1.5397   -1.0002 H         1 <0>         0.0834
     11 C7          1.6719    0.6945    0.2868 C.3       1 <0>        -0.1286
     12 C8          0.5252    1.4624   -0.3850 C.3       1 <0>        -0.0593
     13 H3          0.7377    1.5912   -1.4463 H         1 <0>         0.0844
     14 C9          0.4216    2.8096    0.2821 C.2       1 <0>        -0.1367
     15 C10         1.4924    3.4168    0.7589 C.2       1 <0>        -0.0885
     16 C11         2.8848    2.8720    0.6389 C.3       1 <0>        -0.0419
     17 H4          3.4241    3.5358   -0.0368 H         1 <0>         0.0835
     18 C12         3.5554    2.9698    2.0111 C.3       1 <0>        -0.0608
     19 H5          2.9643    2.4241    2.7466 H         1 <0>         0.0757
     20 C13         3.6396    4.4436    2.4117 C.3       1 <0>        -0.0624
     21 H6          3.9586    4.5117    3.4518 H         1 <0>         0.0834
     22 C14         2.3189    5.1346    2.2593 C.2       1 <0>        -0.1394
     23 C15         1.3306    4.6863    1.5049 C.2       1 <0>        -0.1225
     24 C16         4.6739    5.1429    1.5274 C.3       1 <0>        -0.1559
     25 C17         4.9623    2.3731    1.9385 C.3       1 <0>        -0.1152
     26 C18         5.8061    2.9142    3.0944 C.3       1 <0>        -0.1334
     27 C19         7.2482    2.4250    2.9457 C.3       1 <0>         0.1107
     28 H7          7.6300    2.7095    1.9652 H         1 <0>         0.0806
     29 C20         8.1177    3.0568    4.0363 C.3       1 <0>        -0.1541
     30 C21         9.5488    2.5239    3.9168 C.3       1 <0>         0.1085
     31 H8          9.9518    2.7774    2.9363 H         1 <0>         0.0661
     32 C22         9.5288    0.9997    4.0852 C.3       1 <0>        -0.2063
     33 C23         8.5183    0.4258    3.1166 C.2       1 <0>         0.4896
     34 O3          8.8054   -0.4995    2.3946 O.2       1 <0>        -0.4464
     35 O4          7.2869    0.9767    3.0826 O.3       1 <0>        -0.3653
     36 O5         10.3630    3.1071    4.9362 O.3       1 <0>        -0.5561
     37 C24        -0.7863    0.6945   -0.2086 C.3       1 <0>        -0.1423
     38 H9          7.0717   -3.4538    1.0403 H         1 <0>         0.0550
     39 H10         7.9060   -3.4402   -0.5319 H         1 <0>         0.0551
     40 H11         8.1706   -2.1158    0.6275 H         1 <0>         0.0679
     41 H12         5.4954   -2.7502   -0.6951 H         1 <0>         0.0672
     42 H13         6.6190   -1.4841   -1.2453 H         1 <0>         0.0670
     43 H14         4.6579   -1.1979    2.5444 H         1 <0>         0.0669
     44 H15         4.2725   -2.5184    1.4148 H         1 <0>         0.0564
     45 H16         5.8333   -2.5062    2.2704 H         1 <0>         0.0733
     46 H17         1.4748    0.6004    1.3547 H         1 <0>         0.0760
     47 H18         1.7609   -0.2963   -0.1588 H         1 <0>         0.0726
     48 H19        -0.5430    3.2878    0.3674 H         1 <0>         0.1159
     49 H20         2.1650    6.0571    2.7994 H         1 <0>         0.1070
     50 H21         0.4083    5.2436    1.4326 H         1 <0>         0.1185
     51 H22         4.3725    5.0630    0.4830 H         1 <0>         0.0572
     52 H23         4.7396    6.1944    1.8072 H         1 <0>         0.0562
     53 H24         5.6465    4.6696    1.6621 H         1 <0>         0.0698
     54 H25         4.9006    1.2872    2.0109 H         1 <0>         0.1173
     55 H26         5.4252    2.6483    0.9908 H         1 <0>         0.0583
     56 H27         5.7885    4.0039    3.0780 H         1 <0>         0.1006
     57 H28         5.3974    2.5584    4.0402 H         1 <0>         0.0791
     58 H29         8.1217    4.1401    3.9161 H         1 <0>         0.0982
     59 H30         7.7147    2.8011    5.0163 H         1 <0>         0.0915
     60 H31        10.5168    0.5935    3.8685 H         1 <0>         0.1055
     61 H32         9.2439    0.7469    5.1065 H         1 <0>         0.1164
     62 H33        11.2842    2.8134    4.9198 H         1 <0>         0.3854
     63 H34        -1.6015    1.2589   -0.6612 H         1 <0>         0.0595
     64 H35        -0.7054   -0.2787   -0.6929 H         1 <0>         0.0584
     65 H36        -0.9862    0.5560    0.8539 H         1 <0>         0.0576
@<TRIPOS>BOND
     1    1    2 1
     2    1   38 1
     3    1   39 1
     4    1   40 1
     5    2    3 1
     6    2   41 1
     7    2   42 1
     8    3    4 1
     9    3    5 1
    10    3    6 1
    11    5   43 1
    12    5   44 1
    13    5   45 1
    14    6    7 2
    15    6    8 1
    16    8    9 1
    17    9   10 1
    18    9   16 1
    19    9   11 1
    20   11   12 1
    21   11   46 1
    22   11   47 1
    23   12   13 1
    24   12   14 1
    25   12   37 1
    26   14   15 2
    27   14   48 1
    28   15   23 1
    29   15   16 1
    30   16   17 1
    31   16   18 1
    32   18   19 1
    33   18   20 1
    34   18   25 1
    35   20   21 1
    36   20   22 1
    37   20   24 1
    38   22   23 2
    39   22   49 1
    40   23   50 1
    41   24   51 1
    42   24   52 1
    43   24   53 1
    44   25   26 1
    45   25   54 1
    46   25   55 1
    47   26   27 1
    48   26   56 1
    49   26   57 1
    50   27   28 1
    51   27   35 1
    52   27   29 1
    53   29   30 1
    54   29   58 1
    55   29   59 1
    56   30   31 1
    57   30   32 1
    58   30   36 1
    59   32   33 1
    60   32   60 1
    61   32   61 1
    62   33   34 2
    63   33   35 1
    64   36   62 1
    65   37   63 1
    66   37   64 1
    67   37   65 1
@<TRIPOS>MOLECULE
ZINC14984346
   65    67     0     0     0
SMALL
USER_CHARGES
[(1S,3R,7S,8S,8aS)-8-[2-[(2S,4R)-4-hydroxy-6-oxo-tetrahydropyran-2-yl]ethyl]-3,7-dimethyl-1,2,3,7,8,8a-hexahydronaphthalen-1-yl] (2S)-2-methylbutanoate
@<TRIPOS>ATOM
      1 C1         13.2545   -0.2167    2.7746 C.3       1 <0>        -0.1543
      2 C2         11.7800   -0.1335    2.3748 C.3       1 <0>        -0.1107
      3 C3         10.9670    0.4344    3.5399 C.3       1 <0>        -0.0845
      4 H1         11.3892    1.3918    3.8450 H         1 <0>         0.1076
      5 C4         11.0127   -0.5416    4.7173 C.3       1 <0>        -0.1507
      6 C5          9.5373    0.6313    3.1059 C.2       1 <0>         0.4597
      7 O1          9.2030    0.3467    1.9802 O.2       1 <0>        -0.5063
      8 O2          8.6353    1.1230    3.9698 O.3       1 <0>        -0.3411
      9 C6          7.2771    1.2861    3.4831 C.3       1 <0>         0.1021
     10 H2          7.3085    1.5098    2.4168 H         1 <0>         0.0879
     11 C7          6.5128   -0.0192    3.6945 C.3       1 <0>        -0.1347
     12 C8          6.4663   -0.3136    5.2002 C.3       1 <0>        -0.0572
     13 H3          5.9412   -1.2521    5.3778 H         1 <0>         0.0787
     14 C9          5.7285    0.8184    5.8670 C.2       1 <0>        -0.1541
     15 C10         5.7947    2.0478    5.3906 C.2       1 <0>        -0.0650
     16 C11         6.6303    2.4421    4.2090 C.3       1 <0>        -0.0471
     17 H4          7.4374    3.0769    4.5746 H         1 <0>         0.0924
     18 C12         5.7651    3.2912    3.2748 C.3       1 <0>        -0.0708
     19 H5          6.3393    3.5599    2.3882 H         1 <0>         0.0814
     20 C13         5.3390    4.5585    4.0177 C.3       1 <0>        -0.0575
     21 H6          6.2073    5.2049    4.1453 H         1 <0>         0.0829
     22 C14         4.7624    4.2430    5.3642 C.2       1 <0>        -0.1297
     23 C15         4.9649    3.1074    6.0095 C.2       1 <0>        -0.1353
     24 C16         4.2882    5.2957    3.1851 C.3       1 <0>        -0.1525
     25 C17         4.5244    2.4970    2.8614 C.3       1 <0>        -0.1188
     26 C18         3.6047    2.3213    4.0714 C.3       1 <0>        -0.1563
     27 C19         2.3023    1.6511    3.6291 C.3       1 <0>         0.1062
     28 H7          2.5285    0.7146    3.1192 H         1 <0>         0.0762
     29 C20         1.4303    1.3683    4.8554 C.3       1 <0>        -0.1500
     30 C21         0.1054    0.7460    4.4038 C.3       1 <0>         0.1085
     31 H8          0.3021   -0.1856    3.8732 H         1 <0>         0.0659
     32 C22        -0.6131    1.7270    3.4694 C.3       1 <0>        -0.2053
     33 C23         0.3459    2.1291    2.3707 C.2       1 <0>         0.4902
     34 O3          0.0137    2.0878    1.2098 O.2       1 <0>        -0.4522
     35 O4          1.5830    2.5357    2.7246 O.3       1 <0>        -0.3684
     36 O5         -0.7140    0.4850    5.5450 O.3       1 <0>        -0.5558
     37 C24         7.8893   -0.4030    5.7551 C.3       1 <0>        -0.1441
     38 H9         13.6207    0.7798    3.0216 H         1 <0>         0.0565
     39 H10        13.3595   -0.8678    3.6424 H         1 <0>         0.0596
     40 H11        13.8337   -0.6213    1.9446 H         1 <0>         0.0606
     41 H12        11.4138   -1.1300    2.1278 H         1 <0>         0.0707
     42 H13        11.6750    0.5176    1.5070 H         1 <0>         0.0718
     43 H14        12.0467   -0.6840    5.0312 H         1 <0>         0.0744
     44 H15        10.4334   -0.1370    5.5473 H         1 <0>         0.0728
     45 H16        10.5904   -1.4990    4.4122 H         1 <0>         0.0608
     46 H17         7.0232   -0.8315    3.1770 H         1 <0>         0.0732
     47 H18         5.4984    0.0825    3.3087 H         1 <0>         0.0855
     48 H19         5.1360    0.6208    6.7480 H         1 <0>         0.1153
     49 H20         4.1429    4.9905    5.8373 H         1 <0>         0.1118
     50 H21         4.5272    2.9527    6.9846 H         1 <0>         0.1228
     51 H22         3.3823    4.6924    3.1265 H         1 <0>         0.0699
     52 H23         4.0581    6.2521    3.6546 H         1 <0>         0.0556
     53 H24         4.6756    5.4678    2.1809 H         1 <0>         0.0582
     54 H25         4.8269    1.5180    2.4897 H         1 <0>         0.0647
     55 H26         3.9933    3.0354    2.0764 H         1 <0>         0.0772
     56 H27         3.3826    3.2970    4.5037 H         1 <0>         0.1014
     57 H28         4.0993    1.6980    4.8163 H         1 <0>         0.1233
     58 H29         1.2325    2.3009    5.3839 H         1 <0>         0.0900
     59 H30         1.9493    0.6769    5.5192 H         1 <0>         0.0976
     60 H31        -1.4886    1.2451    3.0343 H         1 <0>         0.1056
     61 H32        -0.9202    2.6099    4.0300 H         1 <0>         0.1165
     62 H33        -1.5736    0.0968    5.3315 H         1 <0>         0.3850
     63 H34         7.8609   -0.8159    6.7634 H         1 <0>         0.0490
     64 H35         8.4892   -1.0495    5.1145 H         1 <0>         0.0520
     65 H36         8.3318    0.5928    5.7826 H         1 <0>         0.0811
@<TRIPOS>BOND
     1    1    2 1
     2    1   38 1
     3    1   39 1
     4    1   40 1
     5    2    3 1
     6    2   41 1
     7    2   42 1
     8    3    4 1
     9    3    5 1
    10    3    6 1
    11    5   43 1
    12    5   44 1
    13    5   45 1
    14    6    7 2
    15    6    8 1
    16    8    9 1
    17    9   10 1
    18    9   16 1
    19    9   11 1
    20   11   12 1
    21   11   46 1
    22   11   47 1
    23   12   13 1
    24   12   14 1
    25   12   37 1
    26   14   15 2
    27   14   48 1
    28   15   23 1
    29   15   16 1
    30   16   17 1
    31   16   18 1
    32   18   19 1
    33   18   20 1
    34   18   25 1
    35   20   21 1
    36   20   22 1
    37   20   24 1
    38   22   23 2
    39   22   49 1
    40   23   50 1
    41   24   51 1
    42   24   52 1
    43   24   53 1
    44   25   26 1
    45   25   54 1
    46   25   55 1
    47   26   27 1
    48   26   56 1
    49   26   57 1
    50   27   28 1
    51   27   35 1
    52   27   29 1
    53   29   30 1
    54   29   58 1
    55   29   59 1
    56   30   31 1
    57   30   32 1
    58   30   36 1
    59   32   33 1
    60   32   60 1
    61   32   61 1
    62   33   34 2
    63   33   35 1
    64   36   62 1
    65   37   63 1
    66   37   64 1
    67   37   65 1
