@<TRIPOS>MOLECULE
ZINC22054857
   32    33     0     0     0
SMALL
USER_CHARGES
(2R)-4-(4-chlorophenyl)-1,1,2,3,3-pentadeuterio-1-imidazol-1-yl-butan-2-ol
@<TRIPOS>ATOM
      1 H1          1.7442   -0.0588    1.2807 H         1 <0>         0.0790
      2 C1          0.7421   -0.5109    1.2415 C.3       1 <0>        -0.1052
      3 H2          0.8355   -1.6057    1.1907 H         1 <0>         0.0824
      4 C2         -0.0416   -0.1236    2.4973 C.3       1 <0>        -0.0780
      5 C3          0.6873   -0.6229    3.7181 C.ar      1 <0>        -0.0786
      6 C4          0.4117   -1.8806    4.2212 C.ar      1 <0>        -0.1062
      7 C5          1.0839   -2.3413    5.3376 C.ar      1 <0>        -0.1082
      8 C6          2.0246   -1.5388    5.9583 C.ar      1 <0>        -0.0389
      9 C7          2.2960   -0.2779    5.4577 C.ar      1 <0>        -0.1077
     10 C8          1.6272    0.1794    4.3379 C.ar      1 <0>        -0.1029
     11 Cl1         2.8647   -2.1141    7.3644 Cl        1 <0>        -0.0698
     12 C9          0.0021   -0.0041    0.0020 C.3       1 <0>         0.1042
     13 H3         -1.0519   -0.3186    0.0104 H         1 <0>         0.0610
     14 C10         0.7182   -0.4975   -1.2568 C.3       1 <0>         0.0677
     15 H4          1.7194   -0.0450   -1.3103 H         1 <0>         0.1052
     16 H5          0.8124   -1.5928   -1.2195 H         1 <0>         0.1012
     17 N1         -0.0549   -0.1139   -2.4405 N.pl3     1 <0>        -0.4610
     18 C11        -1.0361   -0.8529   -3.0444 C.2       1 <0>        -0.0583
     19 C12        -1.4818   -0.1293   -4.0891 C.2       1 <0>        -0.0269
     20 N2         -0.7852    1.0162   -4.1276 N.2       1 <0>        -0.4914
     21 C13         0.0713    1.0324   -3.1432 C.2       1 <0>         0.1747
     22 O1         -0.0173    1.4248    0.0099 O.3       1 <0>        -0.5906
     23 H6         -0.1349    0.9713    2.5481 H         1 <0>         0.0858
     24 H7         -1.0437   -0.5756    2.4581 H         1 <0>         0.0741
     25 H8         -0.3259   -2.5052    3.7392 H         1 <0>         0.1311
     26 H9          0.8717   -3.3256    5.7279 H         1 <0>         0.1336
     27 H10         3.0305    0.3488    5.9416 H         1 <0>         0.1339
     28 H11         1.8391    1.1635    3.9468 H         1 <0>         0.1325
     29 H12        -1.3871   -1.8279   -2.7401 H         1 <0>         0.1738
     30 H13        -2.2608   -0.4219   -4.7775 H         1 <0>         0.1703
     31 H14         0.7657    1.8306   -2.9261 H         1 <0>         0.2063
     32 H15        -0.5089    1.9727   -0.8075 H         1 <0>         0.4069
@<TRIPOS>BOND
     1    1    2 1
     2    2    3 1
     3    2    4 1
     4    2   12 1
     5    4    5 1
     6    4   23 1
     7    4   24 1
     8    5   10 ar
     9    5    6 ar
    10    6    7 ar
    11    6   25 1
    12    7    8 ar
    13    7   26 1
    14    8    9 ar
    15    8   11 1
    16    9   10 ar
    17    9   27 1
    18   10   28 1
    19   12   13 1
    20   12   14 1
    21   12   22 1
    22   14   15 1
    23   14   16 1
    24   14   17 1
    25   17   21 1
    26   17   18 1
    27   18   19 2
    28   18   29 1
    29   19   20 1
    30   19   30 1
    31   20   21 2
    32   21   31 1
    33   22   32 1
@<TRIPOS>MOLECULE
ZINC22054857
   33    34     0     0     0
SMALL
USER_CHARGES
(2R)-4-(4-chlorophenyl)-1,1,2,3,3-pentadeuterio-1-imidazol-1-yl-butan-2-ol
@<TRIPOS>ATOM
      1 H1          1.7442   -0.0588    1.2807 H         1 <0>         0.0855
      2 C1          0.7421   -0.5109    1.2415 C.3       1 <0>        -0.1088
      3 H2          0.8355   -1.6057    1.1907 H         1 <0>         0.0902
      4 C2         -0.0416   -0.1236    2.4973 C.3       1 <0>        -0.0754
      5 C3          0.6873   -0.6229    3.7181 C.ar      1 <0>        -0.0888
      6 C4          0.4117   -1.8806    4.2212 C.ar      1 <0>        -0.1051
      7 C5          1.0839   -2.3413    5.3376 C.ar      1 <0>        -0.1074
      8 C6          2.0246   -1.5388    5.9583 C.ar      1 <0>        -0.0348
      9 C7          2.2960   -0.2779    5.4577 C.ar      1 <0>        -0.1070
     10 C8          1.6272    0.1794    4.3379 C.ar      1 <0>        -0.1021
     11 Cl1         2.8647   -2.1141    7.3644 Cl        1 <0>        -0.0617
     12 C9          0.0021   -0.0041    0.0020 C.3       1 <0>         0.1010
     13 H3         -1.0519   -0.3186    0.0104 H         1 <0>         0.0725
     14 C10         0.7182   -0.4975   -1.2568 C.3       1 <0>         0.0535
     15 H4          1.7194   -0.0450   -1.3103 H         1 <0>         0.1323
     16 H5          0.8124   -1.5928   -1.2195 H         1 <0>         0.1342
     17 N1         -0.0549   -0.1139   -2.4405 N.pl3     1 <0>        -0.4116
     18 C11        -1.0361   -0.8529   -3.0444 C.2       1 <0>         0.0185
     19 C12        -1.4818   -0.1293   -4.0891 C.2       1 <0>        -0.0006
     20 N2         -0.7852    1.0162   -4.1276 N.pl3     1 <0>        -0.4925
     21 C13         0.0713    1.0324   -3.1432 C.cat     1 <0>         0.2856
     22 O1         -0.0173    1.4248    0.0099 O.3       1 <0>        -0.5772
     23 H6         -0.1349    0.9713    2.5481 H         1 <0>         0.0862
     24 H7         -1.0437   -0.5756    2.4581 H         1 <0>         0.0753
     25 H8         -0.3259   -2.5052    3.7392 H         1 <0>         0.1305
     26 H9          0.8717   -3.3256    5.7279 H         1 <0>         0.1358
     27 H10         3.0305    0.3488    5.9416 H         1 <0>         0.1359
     28 H11         1.8391    1.1635    3.9468 H         1 <0>         0.1316
     29 H12        -1.3871   -1.8279   -2.7401 H         1 <0>         0.2199
     30 H13        -2.2608   -0.4219   -4.7775 H         1 <0>         0.2227
     31 H14         0.7657    1.8306   -2.9261 H         1 <0>         0.2590
     32 H15        -0.5089    1.9727   -0.8075 H         1 <0>         0.3956
     33 H16        -0.9890    1.7577   -4.9142 H         1 <0>         0.5073
@<TRIPOS>BOND
     1    1    2 1
     2    2    3 1
     3    2    4 1
     4    2   12 1
     5    4    5 1
     6    4   23 1
     7    4   24 1
     8    5   10 ar
     9    5    6 ar
    10    6    7 ar
    11    6   25 1
    12    7    8 ar
    13    7   26 1
    14    8    9 ar
    15    8   11 1
    16    9   10 ar
    17    9   27 1
    18   10   28 1
    19   12   13 1
    20   12   14 1
    21   12   22 1
    22   14   15 1
    23   14   16 1
    24   14   17 1
    25   17   21 1
    26   17   18 1
    27   18   19 2
    28   18   29 1
    29   19   20 1
    30   19   30 1
    31   20   21 2
    32   20   33 1
    33   21   31 1
    34   22   32 1
@<TRIPOS>MOLECULE
ZINC22054861
   32    33     0     0     0
SMALL
USER_CHARGES
(2S)-4-(4-chlorophenyl)-1,1,2,3,3-pentadeuterio-1-imidazol-1-yl-butan-2-ol
@<TRIPOS>ATOM
      1 H1          4.4254   -0.1284   -0.9144 H         1 <0>         0.0824
      2 C1          4.3868    0.8150   -1.4788 C.3       1 <0>        -0.1052
      3 H2          5.0654    1.5469   -1.0164 H         1 <0>         0.0790
      4 C2          4.8180    0.5622   -2.9248 C.3       1 <0>        -0.0780
      5 C3          6.2253    0.0235   -2.9424 C.ar      1 <0>        -0.0786
      6 C4          7.2970    0.8930   -3.0242 C.ar      1 <0>        -0.1029
      7 C5          8.5881    0.3998   -3.0347 C.ar      1 <0>        -0.1077
      8 C6          8.8075   -0.9649   -2.9748 C.ar      1 <0>        -0.0389
      9 C7          7.7344   -1.8348   -2.8987 C.ar      1 <0>        -0.1082
     10 C8          6.4440   -1.3402   -2.8826 C.ar      1 <0>        -0.1062
     11 Cl1        10.4287   -1.5854   -2.9946 Cl        1 <0>        -0.0698
     12 C9          2.9580    1.3619   -1.4608 C.3       1 <0>         0.1042
     13 H3          2.2793    0.7239   -2.0459 H         1 <0>         0.0610
     14 C10         2.4818    1.4971   -0.0131 C.3       1 <0>         0.0677
     15 H4          2.5876    0.5296    0.4995 H         1 <0>         0.1012
     16 H5          3.0897    2.2543    0.5037 H         1 <0>         0.1052
     17 N1          1.0752    1.9066    0.0020 N.pl3     1 <0>        -0.4610
     18 C11        -0.0126    1.0758    0.0080 C.2       1 <0>        -0.0582
     19 C12        -1.1046    1.8638    0.0167 C.2       1 <0>        -0.0269
     20 N2         -0.6947    3.1409    0.0248 N.2       1 <0>        -0.4914
     21 C13         0.6098    3.1743    0.0128 C.2       1 <0>         0.1747
     22 O1          2.9304    2.6432   -2.0930 O.3       1 <0>        -0.5905
     23 H6          4.1394   -0.1697   -3.3871 H         1 <0>         0.0741
     24 H7          4.7794    1.5056   -3.4892 H         1 <0>         0.0858
     25 H8          7.1254    1.9580   -3.0754 H         1 <0>         0.1325
     26 H9          9.4254    1.0794   -3.0942 H         1 <0>         0.1339
     27 H10         7.9051   -2.9002   -2.8515 H         1 <0>         0.1336
     28 H11         5.6062   -2.0192   -2.8228 H         1 <0>         0.1311
     29 H12         0.0021   -0.0041    0.0020 H         1 <0>         0.1738
     30 H13        -2.1306    1.5265    0.0194 H         1 <0>         0.1703
     31 H14         1.2166    4.0677    0.0120 H         1 <0>         0.2063
     32 H15         1.9827    3.1955   -2.1754 H         1 <0>         0.4069
@<TRIPOS>BOND
     1    1    2 1
     2    2    3 1
     3    2    4 1
     4    2   12 1
     5    4    5 1
     6    4   23 1
     7    4   24 1
     8    5   10 ar
     9    5    6 ar
    10    6    7 ar
    11    6   25 1
    12    7    8 ar
    13    7   26 1
    14    8    9 ar
    15    8   11 1
    16    9   10 ar
    17    9   27 1
    18   10   28 1
    19   12   13 1
    20   12   14 1
    21   12   22 1
    22   14   15 1
    23   14   16 1
    24   14   17 1
    25   17   21 1
    26   17   18 1
    27   18   19 2
    28   18   29 1
    29   19   20 1
    30   19   30 1
    31   20   21 2
    32   21   31 1
    33   22   32 1
@<TRIPOS>MOLECULE
ZINC22054861
   33    34     0     0     0
SMALL
USER_CHARGES
(2S)-4-(4-chlorophenyl)-1,1,2,3,3-pentadeuterio-1-imidazol-1-yl-butan-2-ol
@<TRIPOS>ATOM
      1 H1          4.4254   -0.1284   -0.9144 H         1 <0>         0.0902
      2 C1          4.3868    0.8150   -1.4788 C.3       1 <0>        -0.1088
      3 H2          5.0654    1.5469   -1.0164 H         1 <0>         0.0855
      4 C2          4.8180    0.5622   -2.9248 C.3       1 <0>        -0.0754
      5 C3          6.2253    0.0235   -2.9424 C.ar      1 <0>        -0.0888
      6 C4          7.2970    0.8930   -3.0242 C.ar      1 <0>        -0.1021
      7 C5          8.5881    0.3998   -3.0347 C.ar      1 <0>        -0.1070
      8 C6          8.8075   -0.9649   -2.9748 C.ar      1 <0>        -0.0348
      9 C7          7.7344   -1.8348   -2.8987 C.ar      1 <0>        -0.1074
     10 C8          6.4440   -1.3402   -2.8826 C.ar      1 <0>        -0.1051
     11 Cl1        10.4287   -1.5854   -2.9946 Cl        1 <0>        -0.0617
     12 C9          2.9580    1.3619   -1.4608 C.3       1 <0>         0.1009
     13 H3          2.2793    0.7239   -2.0459 H         1 <0>         0.0725
     14 C10         2.4818    1.4971   -0.0131 C.3       1 <0>         0.0535
     15 H4          2.5876    0.5296    0.4995 H         1 <0>         0.1343
     16 H5          3.0897    2.2543    0.5037 H         1 <0>         0.1323
     17 N1          1.0752    1.9066    0.0020 N.pl3     1 <0>        -0.4117
     18 C11        -0.0126    1.0758    0.0080 C.2       1 <0>         0.0185
     19 C12        -1.1046    1.8638    0.0167 C.2       1 <0>        -0.0006
     20 N2         -0.6947    3.1409    0.0248 N.pl3     1 <0>        -0.4926
     21 C13         0.6098    3.1743    0.0128 C.cat     1 <0>         0.2857
     22 O1          2.9304    2.6432   -2.0930 O.3       1 <0>        -0.5772
     23 H6          4.1394   -0.1697   -3.3871 H         1 <0>         0.0753
     24 H7          4.7794    1.5056   -3.4892 H         1 <0>         0.0862
     25 H8          7.1254    1.9580   -3.0754 H         1 <0>         0.1316
     26 H9          9.4254    1.0794   -3.0942 H         1 <0>         0.1359
     27 H10         7.9051   -2.9002   -2.8515 H         1 <0>         0.1358
     28 H11         5.6062   -2.0192   -2.8228 H         1 <0>         0.1305
     29 H12         0.0021   -0.0041    0.0020 H         1 <0>         0.2199
     30 H13        -2.1306    1.5265    0.0194 H         1 <0>         0.2227
     31 H14         1.2166    4.0677    0.0120 H         1 <0>         0.2590
     32 H15         1.9827    3.1955   -2.1754 H         1 <0>         0.3955
     33 H16        -1.4336    3.9556    0.0394 H         1 <0>         0.5073
@<TRIPOS>BOND
     1    1    2 1
     2    2    3 1
     3    2    4 1
     4    2   12 1
     5    4    5 1
     6    4   23 1
     7    4   24 1
     8    5   10 ar
     9    5    6 ar
    10    6    7 ar
    11    6   25 1
    12    7    8 ar
    13    7   26 1
    14    8    9 ar
    15    8   11 1
    16    9   10 ar
    17    9   27 1
    18   10   28 1
    19   12   13 1
    20   12   14 1
    21   12   22 1
    22   14   15 1
    23   14   16 1
    24   14   17 1
    25   17   21 1
    26   17   18 1
    27   18   19 2
    28   18   29 1
    29   19   20 1
    30   19   30 1
    31   20   21 2
    32   20   33 1
    33   21   31 1
    34   22   32 1
@<TRIPOS>MOLECULE
ZINC03783566
   53    56     0     0     0
SMALL
USER_CHARGES
4-[[2-[2-(4-chlorophenyl)ethyl]-2-(imidazol-1-ylmethyl)-1,3-dioxolan-4-yl]methylsulfanyl]aniline
@<TRIPOS>ATOM
      1 C1        -11.4216    6.0738    1.0414 C.ar      1 <0>        -0.1025
      2 C2        -12.7973    6.0614    1.1750 C.ar      1 <0>        -0.1079
      3 C3        -13.5293    7.2021    0.8975 C.ar      1 <0>        -0.0382
      4 C4        -12.8833    8.3564    0.4919 C.ar      1 <0>        -0.1085
      5 C5        -11.5071    8.3692    0.3642 C.ar      1 <0>        -0.1037
      6 C6        -10.7762    7.2290    0.6412 C.ar      1 <0>        -0.0776
      7 C7         -9.2759    7.2434    0.5007 C.3       1 <0>        -0.0757
      8 C8         -8.6433    7.6625    1.8293 C.3       1 <0>        -0.1122
      9 C9         -7.1200    7.6772    1.6867 C.3       1 <0>         0.2453
     10 O1         -6.7408    8.5983    0.6503 O.3       1 <0>        -0.3571
     11 C10        -5.5959    7.9849    0.0105 C.3       1 <0>         0.0168
     12 C11        -5.9694    6.4827    0.0703 C.3       1 <0>         0.0742
     13 H1         -6.6286    6.2164   -0.7559 H         1 <0>         0.0980
     14 O2         -6.6591    6.3640    1.3310 O.3       1 <0>        -0.3529
     15 C12        -4.7115    5.6119    0.0581 C.3       1 <0>        -0.1134
     16 S1         -5.1878    3.8615    0.0508 S.3       1 <0>        -0.1016
     17 C13        -3.6500    3.0014    0.0371 C.ar      1 <0>        -0.1443
     18 C14        -3.6311    1.6123    0.0290 C.ar      1 <0>        -0.0479
     19 C15        -2.4260    0.9385    0.0187 C.ar      1 <0>        -0.1807
     20 C16        -1.2329    1.6493    0.0169 C.ar      1 <0>         0.2145
     21 C17        -1.2516    3.0378    0.0303 C.ar      1 <0>        -0.1777
     22 C18        -2.4565    3.7121    0.0348 C.ar      1 <0>        -0.0767
     23 N1         -0.0111    0.9658    0.0074 N.pl3     1 <0>        -0.8782
     24 C19        -6.4839    8.1034    3.0113 C.3       1 <0>         0.0844
     25 N2         -5.0260    8.1233    2.8688 N.pl3     1 <0>        -0.4556
     26 C20        -4.2631    9.1885    2.4725 C.2       1 <0>        -0.0548
     27 C21        -2.9818    8.7740    2.4790 C.2       1 <0>        -0.0308
     28 N3         -2.9628    7.4907    2.8688 N.2       1 <0>        -0.4925
     29 C22        -4.1832    7.0960    3.1096 C.2       1 <0>         0.1917
     30 Cl1       -15.2578    7.1850    1.0577 Cl        1 <0>        -0.0703
     31 H2        -10.8505    5.1821    1.2537 H         1 <0>         0.1329
     32 H3        -13.3010    5.1601    1.4917 H         1 <0>         0.1337
     33 H4        -13.4541    9.2472    0.2755 H         1 <0>         0.1333
     34 H5        -11.0027    9.2702    0.0475 H         1 <0>         0.1316
     35 H6         -8.9905    7.9517   -0.2770 H         1 <0>         0.0808
     36 H7         -8.9266    6.2468    0.2304 H         1 <0>         0.0809
     37 H8         -8.9286    6.9542    2.6070 H         1 <0>         0.0903
     38 H9         -8.9925    8.6591    2.0996 H         1 <0>         0.0866
     39 H10        -4.6827    8.1826    0.5718 H         1 <0>         0.0921
     40 H11        -5.4979    8.3219   -1.0215 H         1 <0>         0.1120
     41 H12        -4.1152    5.8224    0.9459 H         1 <0>         0.1032
     42 H13        -4.1254    5.8327   -0.8340 H         1 <0>         0.0994
     43 H14        -4.5589    1.0595    0.0303 H         1 <0>         0.1265
     44 H15        -2.4112   -0.1413    0.0124 H         1 <0>         0.1253
     45 H16        -0.3236    3.5903    0.0331 H         1 <0>         0.1233
     46 H17        -2.4710    4.7920    0.0411 H         1 <0>         0.1203
     47 H18         0.0021   -0.0041    0.0020 H         1 <0>         0.3990
     48 H19         0.8223    1.4622    0.0021 H         1 <0>         0.3990
     49 H20        -6.8364    9.0992    3.2798 H         1 <0>         0.1109
     50 H21        -6.7630    7.3963    3.7925 H         1 <0>         0.1119
     51 H22        -4.6201   10.1724    2.2062 H         1 <0>         0.1731
     52 H23        -2.1205    9.3703    2.2165 H         1 <0>         0.1688
     53 H24        -4.4716    6.1102    3.4435 H         1 <0>         0.2013
@<TRIPOS>BOND
     1    1    6 ar
     2    1    2 ar
     3    1   31 1
     4    2    3 ar
     5    2   32 1
     6    3    4 ar
     7    3   30 1
     8    4    5 ar
     9    4   33 1
    10    5    6 ar
    11    5   34 1
    12    6    7 1
    13    7    8 1
    14    7   35 1
    15    7   36 1
    16    8    9 1
    17    8   37 1
    18    8   38 1
    19    9   14 1
    20    9   10 1
    21    9   24 1
    22   10   11 1
    23   11   12 1
    24   11   39 1
    25   11   40 1
    26   12   13 1
    27   12   14 1
    28   12   15 1
    29   15   16 1
    30   15   41 1
    31   15   42 1
    32   16   17 1
    33   17   22 ar
    34   17   18 ar
    35   18   19 ar
    36   18   43 1
    37   19   20 ar
    38   19   44 1
    39   20   21 ar
    40   20   23 1
    41   21   22 ar
    42   21   45 1
    43   22   46 1
    44   23   47 1
    45   23   48 1
    46   24   25 1
    47   24   49 1
    48   24   50 1
    49   25   29 1
    50   25   26 1
    51   26   27 2
    52   26   51 1
    53   27   28 1
    54   27   52 1
    55   28   29 2
    56   29   53 1
