@<TRIPOS>MOLECULE
ZINC01892860
   38    40     0     0     0
SMALL
USER_CHARGES

@<TRIPOS>ATOM
      1 C1         -0.0169    1.3962    0.0097 C.ar      1 <0>        -0.0188
      2 C2          1.1625    2.0954    0.0022 C.ar      1 <0>        -0.1651
      3 C3          2.3762    1.4165   -0.0135 C.ar      1 <0>         0.1662
      4 C4          2.4006    0.0259   -0.0212 C.ar      1 <0>        -0.2246
      5 C5          1.2269   -0.6828   -0.0138 C.ar      1 <0>        -0.0273
      6 C6          0.0021   -0.0041    0.0020 C.ar      1 <0>        -0.2066
      7 C7         -1.2581   -0.7581    0.0100 C.2       1 <0>         0.4281
      8 O1         -2.3178   -0.1681    0.0233 O.2       1 <0>        -0.4587
      9 C8         -1.2347   -2.2649    0.0017 C.3       1 <0>        -0.2225
     10 C9         -2.2150   -2.9815   -0.9291 C.3       1 <0>        -0.1476
     11 C10        -2.4480   -2.9935    0.5829 C.3       1 <0>        -0.1501
     12 O2          3.5404    2.1130   -0.0218 O.3       1 <0>        -0.3084
     13 C11         4.7507    1.3535   -0.0378 C.3       1 <0>         0.0562
     14 C12         5.9494    2.3043   -0.0452 C.3       1 <0>        -0.1155
     15 C13         7.2453    1.4912   -0.0624 C.3       1 <0>        -0.0389
     16 C14         8.4259    2.4277   -0.0696 C.2       1 <0>        -0.0275
     17 C15         8.9817    3.0104   -1.1490 C.2       1 <0>        -0.0181
     18 N1         10.0067    3.7674   -0.7302 N.2       1 <0>        -0.4935
     19 C16        10.1072    3.6759    0.5677 C.2       1 <0>         0.1869
     20 N2          9.1358    2.8542    1.0203 N.pl3     1 <0>        -0.5676
     21 H1          8.9728    2.6101    1.9448 H         1 <0>         0.4194
     22 H2         -0.9588    1.9243    0.0260 H         1 <0>         0.1415
     23 H3          1.1490    3.1753    0.0081 H         1 <0>         0.1389
     24 H4          3.3458   -0.4966   -0.0334 H         1 <0>         0.1353
     25 H5          1.2469   -1.7626   -0.0205 H         1 <0>         0.1358
     26 H6         -0.2556   -2.7207    0.1493 H         1 <0>         0.1249
     27 H7         -2.8768   -2.3632   -1.5355 H         1 <0>         0.1023
     28 H8         -1.8808   -3.9090   -1.3942 H         1 <0>         0.1060
     29 H9         -2.2673   -3.9288    1.1127 H         1 <0>         0.1052
     30 H10        -3.2632   -2.3830    0.9714 H         1 <0>         0.1050
     31 H11         4.7943    0.7207    0.8486 H         1 <0>         0.0663
     32 H12         4.7763    0.7297   -0.9313 H         1 <0>         0.0696
     33 H13         5.9057    2.9372   -0.9316 H         1 <0>         0.0830
     34 H14         5.9237    2.9282    0.8483 H         1 <0>         0.0740
     35 H15         7.2889    0.8584    0.8240 H         1 <0>         0.0743
     36 H16         7.2709    0.8673   -0.9558 H         1 <0>         0.0930
     37 H17         8.6588    2.8894   -2.1725 H         1 <0>         0.1696
     38 H18        10.8428    4.1775    1.1790 H         1 <0>         0.2092
@<TRIPOS>BOND
     1    1    6 ar
     2    1    2 ar
     3    1   22 1
     4    2    3 ar
     5    2   23 1
     6    3    4 ar
     7    3   12 1
     8    4    5 ar
     9    4   24 1
    10    5    6 ar
    11    5   25 1
    12    6    7 1
    13    7    8 2
    14    7    9 1
    15    9   11 1
    16    9   10 1
    17    9   26 1
    18   10   11 1
    19   10   27 1
    20   10   28 1
    21   11   29 1
    22   11   30 1
    23   12   13 1
    24   13   14 1
    25   13   31 1
    26   13   32 1
    27   14   15 1
    28   14   33 1
    29   14   34 1
    30   15   16 1
    31   15   35 1
    32   15   36 1
    33   16   20 1
    34   16   17 2
    35   17   18 1
    36   17   37 1
    37   18   19 2
    38   19   20 1
    39   19   38 1
    40   20   21 1
@<TRIPOS>MOLECULE
ZINC01892860
   39    41     0     0     0
SMALL
USER_CHARGES

@<TRIPOS>ATOM
      1 C1         -0.0169    1.3962    0.0097 C.ar      1 <0>        -0.0189
      2 C2          1.1625    2.0954    0.0022 C.ar      1 <0>        -0.1606
      3 C3          2.3762    1.4165   -0.0135 C.ar      1 <0>         0.1572
      4 C4          2.4006    0.0259   -0.0212 C.ar      1 <0>        -0.2224
      5 C5          1.2269   -0.6828   -0.0138 C.ar      1 <0>        -0.0284
      6 C6          0.0021   -0.0041    0.0020 C.ar      1 <0>        -0.1965
      7 C7         -1.2581   -0.7581    0.0100 C.2       1 <0>         0.4253
      8 O1         -2.3178   -0.1681    0.0233 O.2       1 <0>        -0.4527
      9 C8         -1.2347   -2.2649    0.0017 C.3       1 <0>        -0.2245
     10 C9         -2.2150   -2.9815   -0.9291 C.3       1 <0>        -0.1467
     11 C10        -2.4480   -2.9935    0.5829 C.3       1 <0>        -0.1489
     12 O2          3.5404    2.1130   -0.0218 O.3       1 <0>        -0.3105
     13 C11         4.7507    1.3535   -0.0378 C.3       1 <0>         0.0546
     14 C12         5.9494    2.3043   -0.0452 C.3       1 <0>        -0.1206
     15 C13         7.2453    1.4912   -0.0624 C.3       1 <0>        -0.0608
     16 C14         8.4259    2.4277   -0.0696 C.2       1 <0>         0.0335
     17 C15         8.9723    3.0039   -1.1573 C.2       1 <0>         0.0370
     18 N1         10.0150    3.7732   -0.7163 N.pl3     1 <0>        -0.5090
     19 H1         10.6046    4.3131   -1.2656 H         1 <0>         0.4686
     20 C16        10.0696    3.6402    0.6265 C.cat     1 <0>         0.3079
     21 N2          9.1131    2.8380    1.0067 N.pl3     1 <0>        -0.4748
     22 H2         -0.9588    1.9243    0.0260 H         1 <0>         0.1443
     23 H3          1.1490    3.1753    0.0081 H         1 <0>         0.1393
     24 H4          3.3458   -0.4966   -0.0334 H         1 <0>         0.1336
     25 H5          1.2469   -1.7626   -0.0205 H         1 <0>         0.1381
     26 H6         -0.2556   -2.7207    0.1493 H         1 <0>         0.1243
     27 H7         -2.8768   -2.3632   -1.5355 H         1 <0>         0.1031
     28 H8         -1.8808   -3.9090   -1.3942 H         1 <0>         0.1071
     29 H9         -2.2673   -3.9288    1.1127 H         1 <0>         0.1065
     30 H10        -3.2632   -2.3830    0.9714 H         1 <0>         0.1060
     31 H11         4.7943    0.7207    0.8486 H         1 <0>         0.0700
     32 H12         4.7763    0.7297   -0.9313 H         1 <0>         0.0726
     33 H13         5.9057    2.9372   -0.9316 H         1 <0>         0.0877
     34 H14         5.9237    2.9282    0.8483 H         1 <0>         0.0805
     35 H15         7.2889    0.8584    0.8240 H         1 <0>         0.1009
     36 H16         7.2709    0.8673   -0.9558 H         1 <0>         0.1173
     37 H17         8.6499    2.8822   -2.1808 H         1 <0>         0.2275
     38 H18        10.7840    4.1213    1.2782 H         1 <0>         0.2672
     39 H19         8.9293    2.5779    1.9229 H         1 <0>         0.4653
@<TRIPOS>BOND
     1    1    6 ar
     2    1    2 ar
     3    1   22 1
     4    2    3 ar
     5    2   23 1
     6    3    4 ar
     7    3   12 1
     8    4    5 ar
     9    4   24 1
    10    5    6 ar
    11    5   25 1
    12    6    7 1
    13    7    8 2
    14    7    9 1
    15    9   11 1
    16    9   10 1
    17    9   26 1
    18   10   11 1
    19   10   27 1
    20   10   28 1
    21   11   29 1
    22   11   30 1
    23   12   13 1
    24   13   14 1
    25   13   31 1
    26   13   32 1
    27   14   15 1
    28   14   33 1
    29   14   34 1
    30   15   16 1
    31   15   35 1
    32   15   36 1
    33   16   21 1
    34   16   17 2
    35   17   18 1
    36   17   37 1
    37   18   19 1
    38   18   20 1
    39   20   21 2
    40   20   38 1
    41   21   39 1
@<TRIPOS>MOLECULE
ZINC01892860
   39    41     0     0     0
SMALL
USER_CHARGES

@<TRIPOS>ATOM
      1 C1         -0.0169    1.3962    0.0097 C.ar      1 <0>        -0.0189
      2 C2          1.1625    2.0954    0.0022 C.ar      1 <0>        -0.1606
      3 C3          2.3762    1.4165   -0.0135 C.ar      1 <0>         0.1572
      4 C4          2.4006    0.0259   -0.0212 C.ar      1 <0>        -0.2224
      5 C5          1.2269   -0.6828   -0.0138 C.ar      1 <0>        -0.0284
      6 C6          0.0021   -0.0041    0.0020 C.ar      1 <0>        -0.1965
      7 C7         -1.2581   -0.7581    0.0100 C.2       1 <0>         0.4253
      8 O1         -2.3178   -0.1681    0.0233 O.2       1 <0>        -0.4527
      9 C8         -1.2347   -2.2649    0.0017 C.3       1 <0>        -0.2245
     10 C9         -2.2150   -2.9815   -0.9291 C.3       1 <0>        -0.1467
     11 C10        -2.4480   -2.9935    0.5829 C.3       1 <0>        -0.1489
     12 O2          3.5404    2.1130   -0.0218 O.3       1 <0>        -0.3104
     13 C11         4.7507    1.3535   -0.0378 C.3       1 <0>         0.0547
     14 C12         5.9494    2.3043   -0.0452 C.3       1 <0>        -0.1201
     15 C13         7.2453    1.4912   -0.0624 C.3       1 <0>        -0.0608
     16 C14         8.4259    2.4277   -0.0696 C.2       1 <0>         0.0635
     17 N1          9.1358    2.8542    1.0203 N.pl3     1 <0>        -0.5108
     18 C15        10.1053    3.6783    0.5680 C.cat     1 <0>         0.3073
     19 N2         10.0094    3.7640   -0.7306 N.pl3     1 <0>        -0.4727
     20 C16         8.9890    3.0012   -1.1501 C.2       1 <0>         0.0056
     21 H1         -0.9588    1.9243    0.0260 H         1 <0>         0.1443
     22 H2          1.1490    3.1753    0.0081 H         1 <0>         0.1393
     23 H3          3.3458   -0.4966   -0.0334 H         1 <0>         0.1337
     24 H4          1.2469   -1.7626   -0.0205 H         1 <0>         0.1381
     25 H5         -0.2556   -2.7207    0.1493 H         1 <0>         0.1243
     26 H6         -2.8768   -2.3632   -1.5355 H         1 <0>         0.1031
     27 H7         -1.8808   -3.9090   -1.3942 H         1 <0>         0.1071
     28 H8         -2.2673   -3.9288    1.1127 H         1 <0>         0.1065
     29 H9         -3.2632   -2.3830    0.9714 H         1 <0>         0.1060
     30 H10         4.7943    0.7207    0.8486 H         1 <0>         0.0702
     31 H11         4.7763    0.7297   -0.9313 H         1 <0>         0.0727
     32 H12         5.9057    2.9372   -0.9316 H         1 <0>         0.0879
     33 H13         5.9237    2.9282    0.8483 H         1 <0>         0.0810
     34 H14         7.2889    0.8584    0.8240 H         1 <0>         0.1020
     35 H15         7.2709    0.8673   -0.9558 H         1 <0>         0.1186
     36 H16        10.8383    4.1831    1.1797 H         1 <0>         0.2671
     37 H17         8.6728    2.8717   -2.1747 H         1 <0>         0.2253
     38 H18         8.9728    2.6101    1.9448 H         1 <0>         0.4657
     39 H19        10.5871    4.2932   -1.3026 H         1 <0>         0.4682
@<TRIPOS>BOND
     1    1    6 ar
     2    1    2 ar
     3    1   21 1
     4    2    3 ar
     5    2   22 1
     6    3    4 ar
     7    3   12 1
     8    4    5 ar
     9    4   23 1
    10    5    6 ar
    11    5   24 1
    12    6    7 1
    13    7    8 2
    14    7    9 1
    15    9   11 1
    16    9   10 1
    17    9   25 1
    18   10   11 1
    19   10   26 1
    20   10   27 1
    21   11   28 1
    22   11   29 1
    23   12   13 1
    24   13   14 1
    25   13   30 1
    26   13   31 1
    27   14   15 1
    28   14   32 1
    29   14   33 1
    30   15   34 1
    31   15   35 1
    32   15   16 1
    33   16   17 1
    34   16   20 2
    35   17   18 1
    36   17   38 1
    37   18   36 1
    38   18   19 2
    39   19   20 1
    40   19   39 1
    41   20   37 1
@<TRIPOS>MOLECULE
ZINC01892860
   38    40     0     0     0
SMALL
USER_CHARGES

@<TRIPOS>ATOM
      1 C1         -0.0169    1.3962    0.0097 C.ar      1 <0>        -0.0188
      2 C2          1.1625    2.0954    0.0022 C.ar      1 <0>        -0.1665
      3 C3          2.3762    1.4165   -0.0135 C.ar      1 <0>         0.1685
      4 C4          2.4006    0.0259   -0.0212 C.ar      1 <0>        -0.2252
      5 C5          1.2269   -0.6828   -0.0138 C.ar      1 <0>        -0.0271
      6 C6          0.0021   -0.0041    0.0020 C.ar      1 <0>        -0.2089
      7 C7         -1.2581   -0.7581    0.0100 C.2       1 <0>         0.4286
      8 O1         -2.3178   -0.1681    0.0233 O.2       1 <0>        -0.4599
      9 C8         -1.2347   -2.2649    0.0017 C.3       1 <0>        -0.2221
     10 C9         -2.2150   -2.9815   -0.9291 C.3       1 <0>        -0.1479
     11 C10        -2.4480   -2.9935    0.5829 C.3       1 <0>        -0.1503
     12 O2          3.5404    2.1130   -0.0218 O.3       1 <0>        -0.3077
     13 C11         4.7507    1.3535   -0.0378 C.3       1 <0>         0.0561
     14 C12         5.9494    2.3043   -0.0452 C.3       1 <0>        -0.1106
     15 C13         7.2453    1.4912   -0.0624 C.3       1 <0>        -0.0289
     16 C14         8.4259    2.4277   -0.0696 C.2       1 <0>         0.0011
     17 N1          8.6474    3.4100   -0.9557 N.2       1 <0>        -0.4885
     18 C15         9.7636    4.0161   -0.6562 C.2       1 <0>         0.1872
     19 N2         10.2924    3.4325    0.4408 N.pl3     1 <0>        -0.5707
     20 C16         9.4406    2.4288    0.8158 C.2       1 <0>        -0.0525
     21 H1         -0.9588    1.9243    0.0260 H         1 <0>         0.1408
     22 H2          1.1490    3.1753    0.0081 H         1 <0>         0.1386
     23 H3          3.3458   -0.4966   -0.0334 H         1 <0>         0.1357
     24 H4          1.2469   -1.7626   -0.0205 H         1 <0>         0.1352
     25 H5         -0.2556   -2.7207    0.1493 H         1 <0>         0.1250
     26 H6         -2.8768   -2.3632   -1.5355 H         1 <0>         0.1020
     27 H7         -1.8808   -3.9090   -1.3942 H         1 <0>         0.1058
     28 H8         -2.2673   -3.9288    1.1127 H         1 <0>         0.1049
     29 H9         -3.2632   -2.3830    0.9714 H         1 <0>         0.1048
     30 H10         4.7943    0.7207    0.8486 H         1 <0>         0.0657
     31 H11         4.7763    0.7297   -0.9313 H         1 <0>         0.0671
     32 H12         5.9057    2.9372   -0.9316 H         1 <0>         0.0836
     33 H13         5.9237    2.9282    0.8483 H         1 <0>         0.0726
     34 H14         7.2889    0.8584    0.8240 H         1 <0>         0.0774
     35 H15         7.2709    0.8673   -0.9558 H         1 <0>         0.0781
     36 H16        10.1934    4.8467   -1.1965 H         1 <0>         0.2087
     37 H17         9.5602    1.7642    1.6587 H         1 <0>         0.1764
     38 H18        11.1196    3.6805    0.8825 H         1 <0>         0.4217
@<TRIPOS>BOND
     1    1    6 ar
     2    1    2 ar
     3    1   21 1
     4    2    3 ar
     5    2   22 1
     6    3    4 ar
     7    3   12 1
     8    4    5 ar
     9    4   23 1
    10    5    6 ar
    11    5   24 1
    12    6    7 1
    13    7    8 2
    14    7    9 1
    15    9   11 1
    16    9   10 1
    17    9   25 1
    18   10   11 1
    19   10   26 1
    20   10   27 1
    21   11   28 1
    22   11   29 1
    23   12   13 1
    24   13   14 1
    25   13   30 1
    26   13   31 1
    27   14   15 1
    28   14   32 1
    29   14   33 1
    30   15   34 1
    31   15   35 1
    32   15   16 1
    33   16   17 1
    34   16   20 2
    35   17   18 2
    36   18   36 1
    37   18   19 1
    38   19   20 1
    39   19   38 1
    40   20   37 1
@<TRIPOS>MOLECULE
ZINC13472648
   42    44     0     0     0
SMALL
USER_CHARGES
N-[2-(1-piperidyl)ethyl]quinolin-4-amine
@<TRIPOS>ATOM
      1 C1          0.0725   -2.7802   -0.0154 C.ar      1 <0>        -0.0997
      2 C2         -1.1453   -2.1045    0.0004 C.ar      1 <0>        -0.0251
      3 C3         -1.1930   -0.7441    0.0090 C.ar      1 <0>        -0.1446
      4 C4          0.0021   -0.0041    0.0020 C.ar      1 <0>         0.1723
      5 C5          1.2377   -0.6941   -0.0135 C.ar      1 <0>        -0.1254
      6 C6          1.2506   -2.0957   -0.0220 C.ar      1 <0>        -0.0674
      7 C7          2.4393    0.0538   -0.0205 C.ar      1 <0>         0.3604
      8 C8          2.3424    1.4366   -0.0117 C.ar      1 <0>        -0.2640
      9 C9          1.0918    2.0381    0.0026 C.ar      1 <0>         0.2467
     10 N1          3.6741   -0.5766   -0.0351 N.pl3     1 <0>        -0.6890
     11 C10         4.9033    0.2203   -0.0421 C.3       1 <0>         0.0768
     12 C11         6.1158   -0.7127   -0.0582 C.3       1 <0>        -0.0198
     13 C12         7.4729    0.8511   -1.3126 C.3       1 <0>        -0.0087
     14 C13         8.6870    1.7786   -1.2251 C.3       1 <0>        -0.1475
     15 C14         9.9471    0.9411   -0.9901 C.3       1 <0>        -0.1421
     16 C15         9.7721    0.1179    0.2890 C.3       1 <0>        -0.1485
     17 C16         8.5266   -0.7615    0.1576 C.3       1 <0>        -0.0010
     18 H1          0.0831   -3.8601   -0.0220 H         1 <0>         0.1552
     19 H2         -2.0662   -2.6687    0.0058 H         1 <0>         0.1588
     20 H3         -2.1455   -0.2352    0.0211 H         1 <0>         0.1599
     21 H4          2.1890   -2.6301   -0.0342 H         1 <0>         0.1446
     22 H5          3.2361    2.0431   -0.0163 H         1 <0>         0.1764
     23 H6          1.0281    3.1162    0.0086 H         1 <0>         0.1987
     24 H7          3.7240   -1.5453   -0.0408 H         1 <0>         0.4249
     25 H8          4.9206    0.8538   -0.9289 H         1 <0>         0.1058
     26 H9          4.9369    0.8443    0.8510 H         1 <0>         0.1062
     27 H10         6.0986   -1.3463    0.8286 H         1 <0>         0.1424
     28 H11         6.0823   -1.3367   -0.9513 H         1 <0>         0.1439
     29 H12         7.6006    0.1636   -2.1488 H         1 <0>         0.1350
     30 H13         6.5720    1.4454   -1.4656 H         1 <0>         0.1260
     31 H14         8.5536    2.4754   -0.3976 H         1 <0>         0.0896
     32 H15         8.7884    2.3352   -2.1568 H         1 <0>         0.1162
     33 H16        10.8083    1.6007   -0.8839 H         1 <0>         0.0988
     34 H17        10.1034    0.2713   -1.8358 H         1 <0>         0.0840
     35 H18         9.6559    0.7886    1.1404 H         1 <0>         0.0898
     36 H19        10.6486   -0.5126    0.4388 H         1 <0>         0.1176
     37 H20         8.3911   -1.3384    1.0724 H         1 <0>         0.1317
     38 H21         8.6495   -1.4413   -0.6856 H         1 <0>         0.1342
     39 N2         -0.0859    1.3717    0.0103 N.ar      1 <0>        -0.5280
     40 H22        -0.9889    1.8604    0.0216 H         1 <0>         0.4756
     41 N3          7.3460    0.1055   -0.0422 N.4       1 <0>        -0.3904
     42 H23         7.2903    0.7761    0.7334 H         1 <0>         0.4299
@<TRIPOS>BOND
     1    1    6 ar
     2    1    2 ar
     3    1   18 1
     4    2    3 ar
     5    2   19 1
     6    3    4 ar
     7    3   20 1
     8    4    5 ar
     9    4   39 ar
    10    5    6 ar
    11    5    7 ar
    12    6   21 1
    13    7    8 ar
    14    7   10 1
    15    8    9 ar
    16    8   22 1
    17    9   23 1
    18    9   39 ar
    19   10   11 1
    20   10   24 1
    21   11   12 1
    22   11   25 1
    23   11   26 1
    24   12   27 1
    25   12   28 1
    26   12   41 1
    27   13   14 1
    28   13   29 1
    29   13   30 1
    30   13   41 1
    31   14   15 1
    32   14   31 1
    33   14   32 1
    34   15   16 1
    35   15   33 1
    36   15   34 1
    37   16   17 1
    38   16   35 1
    39   16   36 1
    40   17   37 1
    41   17   38 1
    42   17   41 1
    43   39   40 1
    44   41   42 1
@<TRIPOS>MOLECULE
ZINC00016827
   30    32     0     0     0
SMALL
USER_CHARGES
1,2,3,4-tetrahydroacridin-9-amine
@<TRIPOS>ATOM
      1 C1         -2.2590   -4.1734    0.7266 C.ar      1 <0>        -0.1151
      2 C2         -1.1015   -4.8453    0.3414 C.ar      1 <0>        -0.0282
      3 C3          0.0181   -4.1626   -0.0240 C.ar      1 <0>        -0.1547
      4 C4          0.0125   -2.7569   -0.0146 C.ar      1 <0>         0.1855
      5 C5         -1.1660   -2.0778    0.3770 C.ar      1 <0>        -0.1377
      6 C6         -2.3011   -2.8116    0.7474 C.ar      1 <0>        -0.0565
      7 C7         -1.1623   -0.6653    0.3817 C.ar      1 <0>         0.3675
      8 C8          0.0021   -0.0041    0.0020 C.ar      1 <0>        -0.2105
      9 C9          1.1175   -0.7361   -0.3646 C.ar      1 <0>         0.2712
     10 C10         2.4120   -0.0754   -0.7701 C.3       1 <0>        -0.1168
     11 C11         2.1762    1.3865   -1.1417 C.3       1 <0>        -0.1213
     12 C12         1.4039    2.0583   -0.0003 C.3       1 <0>        -0.1267
     13 C13        -0.0183    1.5015    0.0103 C.3       1 <0>        -0.0727
     14 N1         -2.2920    0.0458    0.7563 N.pl3     1 <0>        -0.7940
     15 H1         -3.1340   -4.7385    1.0119 H         1 <0>         0.1511
     16 H2         -1.0919   -5.9252    0.3327 H         1 <0>         0.1529
     17 H3          0.9072   -4.6991   -0.3207 H         1 <0>         0.1539
     18 H4         -3.2041   -2.3007    1.0473 H         1 <0>         0.1465
     19 H5          3.1167   -0.1260    0.0600 H         1 <0>         0.1184
     20 H6          2.8304   -0.6013   -1.6283 H         1 <0>         0.1086
     21 H7          3.1338    1.8881   -1.2812 H         1 <0>         0.0939
     22 H8          1.5929    1.4414   -2.0609 H         1 <0>         0.0797
     23 H9          1.3752    3.1361   -0.1607 H         1 <0>         0.0897
     24 H10         1.8906    1.8408    0.9505 H         1 <0>         0.0760
     25 H11        -0.5506    1.8586   -0.8713 H         1 <0>         0.0921
     26 H12        -0.5337    1.8490    0.9057 H         1 <0>         0.0852
     27 H13        -2.2768    1.0157    0.7558 H         1 <0>         0.4265
     28 H14        -3.0975   -0.4265    1.0190 H         1 <0>         0.4221
     29 N2          1.1637   -2.1007   -0.3898 N.ar      1 <0>        -0.5514
     30 H15         2.0097   -2.6092   -0.6727 H         1 <0>         0.4649
@<TRIPOS>BOND
     1    1    6 ar
     2    1    2 ar
     3    1   15 1
     4    2    3 ar
     5    2   16 1
     6    3    4 ar
     7    3   17 1
     8    4    5 ar
     9    4   29 ar
    10    5    6 ar
    11    5    7 ar
    12    6   18 1
    13    7    8 ar
    14    7   14 1
    15    8   13 1
    16    8    9 ar
    17    9   10 1
    18    9   29 ar
    19   10   11 1
    20   10   19 1
    21   10   20 1
    22   11   12 1
    23   11   21 1
    24   11   22 1
    25   12   13 1
    26   12   23 1
    27   12   24 1
    28   13   25 1
    29   13   26 1
    30   14   27 1
    31   14   28 1
    32   29   30 1
