@<TRIPOS>MOLECULE
ZINC13473744
   32    33     0     0     0
SMALL
USER_CHARGES

@<TRIPOS>ATOM
      1 C1          0.3839    0.6766   -1.0302 C.ar      1 <0>        -0.0261
      2 C2          1.5893    1.3440   -1.0817 C.ar      1 <0>        -0.1066
      3 C3          2.4056    1.3945    0.0536 C.ar      1 <0>         0.0656
      4 C4          1.9904    0.7659    1.2332 C.ar      1 <0>        -0.0133
      5 C5          0.7825    0.1029    1.2680 C.ar      1 <0>        -0.0061
      6 C6         -0.0194    0.0577    0.1402 C.ar      1 <0>        -0.2061
      7 C7         -1.3387   -0.6691    0.1874 C.3       1 <0>         0.5191
      8 F1         -1.9659   -0.5787   -1.0598 F         1 <0>        -0.1753
      9 F2         -1.1191   -2.0143    0.5026 F         1 <0>        -0.1733
     10 F3         -2.1560   -0.0889    1.1635 F         1 <0>        -0.1757
     11 N1          2.8463    0.8127    2.4400 N.pl3     1 <0>         0.0371
     12 O1          2.5436    0.1740    3.4208 O.2       1 <0>        -0.1931
     13 O2          3.8480    1.4895    2.4447 O.3       1 <0>        -0.1075
     14 C8          3.6935    2.1039    0.0075 C.2       1 <0>         0.3828
     15 O3          3.7200    3.4421   -0.1374 O.3       1 <0>        -0.5626
     16 C9          4.8905    1.3881    0.1142 C.2       1 <0>        -0.4997
     17 C10         4.8641   -0.0264    0.1012 C.2       1 <0>         0.4008
     18 O4          3.8040   -0.6095   -0.0001 O.2       1 <0>        -0.5556
     19 C11         6.1441   -0.8131    0.2118 C.3       1 <0>        -0.1575
     20 C12         7.1621   -0.0154    1.0305 C.3       1 <0>        -0.1029
     21 C13         7.4142    1.3309    0.3473 C.3       1 <0>        -0.1610
     22 C14         6.1159    2.0860    0.2284 C.2       1 <0>         0.4115
     23 O5          6.1210    3.3000    0.2348 O.2       1 <0>        -0.4976
     24 H1         -0.2494    0.6405   -1.9043 H         1 <0>         0.1513
     25 H2          1.9027    1.8262   -1.9958 H         1 <0>         0.1527
     26 H3          0.4608   -0.3829    2.1773 H         1 <0>         0.1549
     27 H4          5.9450   -1.7639    0.7063 H         1 <0>         0.0748
     28 H5          6.5444   -0.9983   -0.7850 H         1 <0>         0.0827
     29 H6          6.7706    0.1531    2.0338 H         1 <0>         0.0687
     30 H7          8.0966   -0.5729    1.0925 H         1 <0>         0.0618
     31 H8          8.1222    1.9116    0.9384 H         1 <0>         0.0775
     32 H9          7.8241    1.1620   -0.6485 H         1 <0>         0.0787
@<TRIPOS>BOND
     1    1    6 ar
     2    1    2 ar
     3    1   24 1
     4    2    3 ar
     5    2   25 1
     6    3    4 ar
     7    3   14 1
     8    4    5 ar
     9    4   11 1
    10    5    6 ar
    11    5   26 1
    12    6    7 1
    13    7    8 1
    14    7    9 1
    15    7   10 1
    16   11   12 2
    17   11   13 1
    18   14   15 1
    19   14   16 2
    20   16   22 1
    21   16   17 1
    22   17   18 2
    23   17   19 1
    24   19   20 1
    25   19   27 1
    26   19   28 1
    27   20   21 1
    28   20   29 1
    29   20   30 1
    30   21   22 1
    31   21   31 1
    32   21   32 1
    33   22   23 2
@<TRIPOS>MOLECULE
ZINC00391471
   28    29     0     0     0
SMALL
USER_CHARGES
(3-oxo-1-cyclohexenyl) benzoate
@<TRIPOS>ATOM
      1 C1         -1.8575   -2.6950    1.3783 C.ar      1 <0>        -0.0771
      2 C2         -2.1982   -1.9270    2.4777 C.ar      1 <0>        -0.1303
      3 C3         -2.1201   -0.5514    2.4130 C.ar      1 <0>        -0.0504
      4 C4         -1.6959    0.0659    1.2343 C.ar      1 <0>        -0.1315
      5 C5         -1.3587   -0.7152    0.1268 C.ar      1 <0>        -0.0602
      6 C6         -1.4365   -2.0900    0.2073 C.ar      1 <0>        -0.1320
      7 C7         -1.6103    1.5383    1.1573 C.2       1 <0>         0.5154
      8 O1         -1.9090    2.2152    2.1206 O.2       1 <0>        -0.4817
      9 O2         -1.1950    2.1310    0.0193 O.3       1 <0>        -0.2947
     10 C8         -1.2368    3.4780   -0.0198 C.2       1 <0>         0.1529
     11 C9         -0.0881    4.1713   -0.0958 C.2       1 <0>        -0.2467
     12 C10        -0.0754    5.5746   -0.1497 C.2       1 <0>         0.3955
     13 O3          0.9836    6.1653   -0.2184 O.2       1 <0>        -0.4553
     14 C11        -1.3651    6.3536   -0.1175 C.3       1 <0>        -0.1630
     15 C12        -2.4791    5.5017   -0.7342 C.3       1 <0>        -0.1116
     16 C13        -2.5689    4.1772    0.0288 C.3       1 <0>        -0.1212
     17 H1         -1.9202   -3.7718    1.4346 H         1 <0>         0.1333
     18 H2         -2.5257   -2.4057    3.3888 H         1 <0>         0.1368
     19 H3         -2.3866    0.0469    3.2717 H         1 <0>         0.1400
     20 H4         -1.0342   -0.2440   -0.7892 H         1 <0>         0.1398
     21 H5         -1.1724   -2.6955   -0.6472 H         1 <0>         0.1354
     22 H6          0.8493    3.6354   -0.1198 H         1 <0>         0.1424
     23 H7         -1.2571    7.1988   -0.6410 H         1 <0>         0.0911
     24 H8         -1.6196    6.5950    0.9145 H         1 <0>         0.1051
     25 H9         -2.2510    5.3049   -1.7818 H         1 <0>         0.0769
     26 H10        -3.4293    6.0307   -0.6606 H         1 <0>         0.0905
     27 H11        -3.3283    3.5442   -0.4302 H         1 <0>         0.0936
     28 H12        -2.8384    4.3735    1.0666 H         1 <0>         0.1074
@<TRIPOS>BOND
     1    1    6 ar
     2    1    2 ar
     3    1   17 1
     4    2    3 ar
     5    2   18 1
     6    3    4 ar
     7    3   19 1
     8    4    5 ar
     9    4    7 1
    10    5    6 ar
    11    5   20 1
    12    6   21 1
    13    7    8 2
    14    7    9 1
    15    9   10 1
    16   10   16 1
    17   10   11 2
    18   11   12 1
    19   11   22 1
    20   12   13 2
    21   12   14 1
    22   14   15 1
    23   14   23 1
    24   14   24 1
    25   15   16 1
    26   15   25 1
    27   15   26 1
    28   16   27 1
    29   16   28 1
@<TRIPOS>MOLECULE
ZINC04293617
   21    21     0     0     0
SMALL
USER_CHARGES
(3-oxo-1-cyclohexenyl) acetate
@<TRIPOS>ATOM
      1 C1         -4.0830    5.4492   -0.9729 C.3       1 <0>        -0.1451
      2 C2         -2.8041    4.6521   -0.9817 C.2       1 <0>         0.4643
      3 O1         -2.0404    4.7455   -1.9133 O.2       1 <0>        -0.4905
      4 O2         -2.5129    3.8371    0.0470 O.3       1 <0>        -0.3003
      5 C3         -1.3058    3.2359    0.0292 C.2       1 <0>         0.1508
      6 C4         -1.2363    1.9008   -0.1040 C.2       1 <0>        -0.2493
      7 C5         -0.0058    1.2235   -0.1174 C.2       1 <0>         0.3951
      8 O3          0.0156    0.0152   -0.2389 O.2       1 <0>        -0.4560
      9 C6          1.2885    1.9848    0.0115 C.3       1 <0>        -0.1631
     10 C7          1.0411    3.2561    0.8300 C.3       1 <0>        -0.1119
     11 C8         -0.0616    4.0741    0.1520 C.3       1 <0>        -0.1204
     12 H1         -4.6378    5.2358   -0.0592 H         1 <0>         0.0966
     13 H2         -3.8485    6.5128   -1.0155 H         1 <0>         0.1132
     14 H3         -4.6877    5.1755   -1.8375 H         1 <0>         0.1122
     15 H4         -2.1502    1.3333   -0.1988 H         1 <0>         0.1419
     16 H5          1.9669    1.4132    0.4731 H         1 <0>         0.0908
     17 H6          1.6540    2.2531   -0.9797 H         1 <0>         0.1049
     18 H7          0.7277    2.9859    1.8384 H         1 <0>         0.0768
     19 H8          1.9577    3.8439    0.8776 H         1 <0>         0.0902
     20 H9         -0.2774    4.9591    0.7505 H         1 <0>         0.0932
     21 H10         0.2704    4.3789   -0.8404 H         1 <0>         0.1065
@<TRIPOS>BOND
     1    1    2 1
     2    1   12 1
     3    1   13 1
     4    1   14 1
     5    2    3 2
     6    2    4 1
     7    4    5 1
     8    5   11 1
     9    5    6 2
    10    6    7 1
    11    6   15 1
    12    7    8 2
    13    7    9 1
    14    9   10 1
    15    9   16 1
    16    9   17 1
    17   10   11 1
    18   10   18 1
    19   10   19 1
    20   11   20 1
    21   11   21 1
@<TRIPOS>MOLECULE
ZINC00396107
   19    19     0     0     0
SMALL
USER_CHARGES
2-(4-hydroxyphenoxy)acetic acid
@<TRIPOS>ATOM
      1 C1          0.0021   -0.0041    0.0020 C.ar      1 <0>        -0.1037
      2 C2         -0.0167    1.3771    0.0096 C.ar      1 <0>        -0.1449
      3 C3          1.1749    2.0869    0.0020 C.ar      1 <0>         0.1352
      4 C4          2.3853    1.4098   -0.0136 C.ar      1 <0>        -0.2018
      5 C5          2.4041    0.0286   -0.0212 C.ar      1 <0>        -0.1013
      6 C6          1.2125   -0.6811   -0.0136 C.ar      1 <0>         0.0430
      7 O1          1.2309   -2.0408   -0.0211 O.3       1 <0>        -0.4996
      8 O2          1.1565    3.4465    0.0091 O.3       1 <0>        -0.2860
      9 C7          2.4208    4.1126    0.0006 C.3       1 <0>         0.0169
     10 C8          2.2031    5.6037    0.0101 C.2       1 <0>         0.4689
     11 O3          1.0804    6.0503    0.0228 O.co2     1 <0>        -0.6135
     12 H1         -0.9258   -0.5567    0.0079 H         1 <0>         0.1305
     13 H2         -0.9592    1.9043    0.0169 H         1 <0>         0.1351
     14 H3          3.3132    1.9625   -0.0194 H         1 <0>         0.1339
     15 H4          3.3466   -0.4986   -0.0326 H         1 <0>         0.1266
     16 H5          1.2275   -2.4293   -0.9066 H         1 <0>         0.3803
     17 H6          2.9900    3.8228    0.8838 H         1 <0>         0.0677
     18 H7          2.9734    3.8318   -0.8960 H         1 <0>         0.0675
     19 O4          3.2563    6.4358    0.0045 O.co2     1 <0>        -0.7547
@<TRIPOS>BOND
     1    1    6 ar
     2    1    2 ar
     3    1   12 1
     4    2    3 ar
     5    2   13 1
     6    3    4 ar
     7    3    8 1
     8    4    5 ar
     9    4   14 1
    10    5    6 ar
    11    5   15 1
    12    6    7 1
    13    7   16 1
    14    8    9 1
    15    9   10 1
    16    9   17 1
    17    9   18 1
    18   10   11 2
    19   10   19 1
@<TRIPOS>MOLECULE
ZINC02382749
   33    34     0     0     0
SMALL
USER_CHARGES

@<TRIPOS>ATOM
      1 C1          0.4114    2.7831   -0.5098 C.3       1 <0>        -0.6510
      2 S1          0.1378    0.9994   -0.3252 S.o2      1 <0>         2.5042
      3 O1          0.8494    0.5093    0.8030 O.2       1 <0>        -0.9388
      4 O2         -1.2388    0.6944   -0.5018 O.2       1 <0>        -0.9369
      5 C2          0.9413    0.2719   -1.7143 C.ar      1 <0>        -0.6452
      6 C3          0.2415    0.0828   -2.8937 C.ar      1 <0>        -0.0414
      7 C4          0.8634   -0.4855   -3.9853 C.ar      1 <0>        -0.0612
      8 C5          2.2030   -0.8709   -3.8999 C.ar      1 <0>        -0.0591
      9 C6          2.9040   -0.6775   -2.7068 C.ar      1 <0>        -0.0249
     10 C7          2.2694   -0.1022   -1.6230 C.ar      1 <0>        -0.0365
     11 Cl1         4.5694   -1.1531   -2.5888 Cl        1 <0>        -0.0370
     12 C8          2.8758   -1.4810   -5.0659 C.2       1 <0>         0.4926
     13 C9          2.1097   -1.7752   -6.2860 C.2       1 <0>        -0.6023
     14 C10         2.3874   -1.0685   -7.4579 C.2       1 <0>         0.4043
     15 O3          3.2603   -0.2152   -7.4569 O.3       1 <0>        -0.5749
     16 C11         1.6201   -1.3498   -8.7233 C.3       1 <0>        -0.1559
     17 C12         0.2112   -1.8308   -8.3658 C.3       1 <0>        -0.1002
     18 C13         0.3177   -3.0808   -7.4881 C.3       1 <0>        -0.1570
     19 C14         1.1207   -2.7605   -6.2545 C.2       1 <0>         0.3996
     20 O4          0.9020   -3.3648   -5.2168 O.2       1 <0>        -0.5768
     21 O5          4.0634   -1.7398   -5.0161 O.2       1 <0>        -0.4566
     22 H1          1.4818    2.9885   -0.5096 H         1 <0>         0.1322
     23 H2         -0.0234    3.1219   -1.4501 H         1 <0>         0.1329
     24 H3         -0.0600    3.3107    0.3194 H         1 <0>         0.1308
     25 H4         -0.7945    0.3808   -2.9588 H         1 <0>         0.1464
     26 H5          0.3155   -0.6324   -4.9044 H         1 <0>         0.1479
     27 H6          2.8107    0.0524   -0.7012 H         1 <0>         0.1489
     28 H7          1.5535   -0.4389   -9.3182 H         1 <0>         0.0708
     29 H8          2.1337   -2.1220   -9.2960 H         1 <0>         0.0769
     30 H9         -0.3145   -1.0466   -7.8211 H         1 <0>         0.0620
     31 H10        -0.3344   -2.0713   -9.2782 H         1 <0>         0.0578
     32 H11        -0.6809   -3.4086   -7.1993 H         1 <0>         0.0724
     33 H12         0.8147   -3.8751   -8.0451 H         1 <0>         0.0760
@<TRIPOS>BOND
     1    1    2 1
     2    1   22 1
     3    1   23 1
     4    1   24 1
     5    2    3 2
     6    2    4 2
     7    2    5 1
     8    5   10 ar
     9    5    6 ar
    10    6    7 ar
    11    6   25 1
    12    7    8 ar
    13    7   26 1
    14    8    9 ar
    15    8   12 1
    16    9   10 ar
    17    9   11 1
    18   10   27 1
    19   12   13 1
    20   12   21 2
    21   13   19 1
    22   13   14 2
    23   14   15 1
    24   14   16 1
    25   16   17 1
    26   16   28 1
    27   16   29 1
    28   17   18 1
    29   17   30 1
    30   17   31 1
    31   18   19 1
    32   18   32 1
    33   18   33 1
    34   19   20 2
@<TRIPOS>MOLECULE
ZINC02382749
   34    35     0     0     0
SMALL
USER_CHARGES
2-[(2-chloro-4-methylsulfonyl-phenyl)-hydroxy-methylene]cyclohexane-1,3-dione
@<TRIPOS>ATOM
      1 C1          5.1874    1.0631   -0.2287 C.3       1 <0>        -0.6466
      2 S1          3.9265    2.2527    0.3057 S.o2      1 <0>         2.4988
      3 O1          3.7955    3.2917   -0.6547 O.2       1 <0>        -0.9302
      4 O2          4.0934    2.5569    1.6837 O.2       1 <0>        -0.9297
      5 C2          2.4049    1.3682    0.2216 C.ar      1 <0>        -0.6321
      6 C3          1.6654    1.3802   -0.9494 C.ar      1 <0>        -0.0167
      7 C4          0.4744    0.6916   -1.0246 C.ar      1 <0>        -0.1004
      8 C5          0.0113   -0.0223    0.0871 C.ar      1 <0>        -0.0510
      9 C6          0.7647   -0.0297    1.2679 C.ar      1 <0>         0.0019
     10 C7          1.9559    0.6658    1.3255 C.ar      1 <0>        -0.0127
     11 Cl1         0.2030   -0.9112    2.6539 Cl        1 <0>        -0.0412
     12 C8         -1.2582   -0.7603    0.0154 C.2       1 <0>         0.3289
     13 C9         -1.2601   -2.1578    0.0871 C.2       1 <0>        -0.3481
     14 C10        -0.0333   -2.8616    0.0643 C.2       1 <0>         0.4103
     15 O3          1.0116   -2.2504   -0.0286 O.3       1 <0>        -0.4700
     16 C11        -0.0161   -4.3654    0.1547 C.3       1 <0>        -0.1605
     17 C12        -1.2959   -4.9247   -0.4714 C.3       1 <0>        -0.1129
     18 C13        -2.5090   -4.3562    0.2688 C.3       1 <0>        -0.1649
     19 C14        -2.4888   -2.8523    0.1816 C.2       1 <0>         0.4009
     20 O4         -3.5329   -2.2329    0.1929 O.2       1 <0>        -0.4534
     21 O5         -2.4189   -0.0915   -0.1190 O.2       1 <0>        -0.4293
     22 H1          4.9684    0.7332   -1.2443 H         1 <0>         0.1342
     23 H2          6.1682    1.5378   -0.2045 H         1 <0>         0.1374
     24 H3          5.1832    0.2034    0.4414 H         1 <0>         0.1348
     25 H4          2.0235    1.9313   -1.8064 H         1 <0>         0.1572
     26 H5         -0.0983    0.6989   -1.9403 H         1 <0>         0.1477
     27 H6          2.5389    0.6613    2.2347 H         1 <0>         0.1596
     28 H7          0.0402   -4.6695    1.2000 H         1 <0>         0.1038
     29 H8          0.8502   -4.7503   -0.3833 H         1 <0>         0.0988
     30 H9         -1.2962   -6.0117   -0.3899 H         1 <0>         0.0849
     31 H10        -1.3434   -4.6384   -1.5221 H         1 <0>         0.0721
     32 H11        -2.4720   -4.6602    1.3149 H         1 <0>         0.1012
     33 H12        -3.4236   -4.7345   -0.1878 H         1 <0>         0.0985
     34 H13        -2.4298    0.8086   -0.5545 H         1 <0>         0.4289
@<TRIPOS>BOND
     1    1    2 1
     2    1   22 1
     3    1   23 1
     4    1   24 1
     5    2    3 2
     6    2    4 2
     7    2    5 1
     8    5   10 ar
     9    5    6 ar
    10    6    7 ar
    11    6   25 1
    12    7    8 ar
    13    7   26 1
    14    8    9 ar
    15    8   12 1
    16    9   10 ar
    17    9   11 1
    18   10   27 1
    19   12   13 1
    20   12   21 2
    21   13   19 1
    22   13   14 2
    23   14   16 1
    24   14   15 1
    25   15   34 1
    26   16   17 1
    27   16   28 1
    28   16   29 1
    29   17   18 1
    30   17   30 1
    31   17   31 1
    32   18   19 1
    33   18   32 1
    34   18   33 1
    35   19   20 2
