@<TRIPOS>MOLECULE
ZINC00596712
   46    49     0     0     0
SMALL
USER_CHARGES
1-[4-(chloroBLAHylidene)-1-piperidyl]ethanone
@<TRIPOS>ATOM
      1 C1          5.2433   -3.5248    4.5784 C.3       1 <0>        -0.1808
      2 C2          4.3511   -4.3678    3.7040 C.2       1 <0>         0.5132
      3 O1          4.5184   -5.5676    3.6449 O.2       1 <0>        -0.5455
      4 N1          3.3674   -3.7885    2.9878 N.am      1 <0>        -0.6137
      5 C3          2.4147   -4.6122    2.2325 C.3       1 <0>         0.1148
      6 C4          2.4706   -4.2026    0.7553 C.3       1 <0>        -0.1097
      7 C5          2.3592   -2.6961    0.6722 C.2       1 <0>        -0.0506
      8 C6          1.4389   -2.1188   -0.1099 C.2       1 <0>        -0.0651
      9 C7          0.4349   -2.9654   -0.7936 C.ar      1 <0>        -0.0285
     10 C8          0.8125   -3.9327   -1.7205 C.ar      1 <0>        -0.0876
     11 C9         -0.1656   -4.7069   -2.3169 C.ar      1 <0>        -0.1115
     12 C10        -1.4967   -4.5122   -1.9889 C.ar      1 <0>        -0.0311
     13 C11        -1.8624   -3.5437   -1.0693 C.ar      1 <0>        -0.1050
     14 C12        -0.8850   -2.7639   -0.4719 C.ar      1 <0>        -0.0591
     15 C13        -1.2691   -1.7076    0.5171 C.3       1 <0>        -0.0785
     16 C14        -1.1147   -0.3104   -0.0200 C.3       1 <0>        -0.0682
     17 C15         0.3060    0.1287   -0.2575 C.ar      1 <0>        -0.1103
     18 C16         1.4466   -0.6486   -0.2728 C.ar      1 <0>         0.1754
     19 N2          2.6485   -0.0884   -0.4573 N.ar      1 <0>        -0.4749
     20 C17         2.8096    1.1990   -0.6526 C.ar      1 <0>         0.1038
     21 C18         1.7118    2.0399   -0.6679 C.ar      1 <0>        -0.1711
     22 C19         0.4545    1.5064   -0.4648 C.ar      1 <0>        -0.0845
     23 Cl1        -2.7188   -5.4917   -2.7377 Cl        1 <0>        -0.0686
     24 C20         3.3172   -1.8578    1.4898 C.3       1 <0>        -0.0959
     25 C21         3.2361   -2.3262    2.9533 C.3       1 <0>         0.1019
     26 H1          4.8823   -2.4963    4.5814 H         1 <0>         0.0826
     27 H2          5.2312   -3.9171    5.5953 H         1 <0>         0.0959
     28 H3          6.2617   -3.5512    4.1909 H         1 <0>         0.0958
     29 H4          1.4077   -4.4526    2.6180 H         1 <0>         0.0694
     30 H5          2.6807   -5.6647    2.3302 H         1 <0>         0.0978
     31 H6          1.6426   -4.6621    0.2154 H         1 <0>         0.0908
     32 H7          3.4167   -4.5251    0.3206 H         1 <0>         0.0863
     33 H8          1.8535   -4.0766   -1.9697 H         1 <0>         0.1370
     34 H9          0.1084   -5.4626   -3.0382 H         1 <0>         0.1369
     35 H10        -2.9027   -3.3971   -0.8190 H         1 <0>         0.1366
     36 H11        -0.6434   -1.8134    1.4034 H         1 <0>         0.0781
     37 H12        -2.3097   -1.8599    0.8035 H         1 <0>         0.0822
     38 H13        -1.5745    0.3815    0.6856 H         1 <0>         0.0855
     39 H14        -1.6570   -0.2432   -0.9631 H         1 <0>         0.0798
     40 H15         3.8003    1.6023   -0.8019 H         1 <0>         0.1598
     41 H16         1.8362    3.0993   -0.8366 H         1 <0>         0.1358
     42 H17        -0.4133    2.1493   -0.4702 H         1 <0>         0.1337
     43 H18         4.3322   -1.9898    1.1148 H         1 <0>         0.0858
     44 H19         3.0345   -0.8072    1.4230 H         1 <0>         0.0934
     45 H20         2.2763   -2.0353    3.3802 H         1 <0>         0.0708
     46 H21         4.0454   -1.8730    3.5258 H         1 <0>         0.0971
@<TRIPOS>BOND
     1    1    2 1
     2    1   26 1
     3    1   27 1
     4    1   28 1
     5    2    3 2
     6    2    4 am
     7    4   25 1
     8    4    5 1
     9    5    6 1
    10    5   29 1
    11    5   30 1
    12    6    7 1
    13    6   31 1
    14    6   32 1
    15    7    8 2
    16    7   24 1
    17    8   18 1
    18    8    9 1
    19    9   14 ar
    20    9   10 ar
    21   10   11 ar
    22   10   33 1
    23   11   12 ar
    24   11   34 1
    25   12   13 ar
    26   12   23 1
    27   13   14 ar
    28   13   35 1
    29   14   15 1
    30   15   16 1
    31   15   36 1
    32   15   37 1
    33   16   17 1
    34   16   38 1
    35   16   39 1
    36   17   22 ar
    37   17   18 ar
    38   18   19 ar
    39   19   20 ar
    40   20   21 ar
    41   20   40 1
    42   21   22 ar
    43   21   41 1
    44   22   42 1
    45   24   25 1
    46   24   43 1
    47   24   44 1
    48   25   45 1
    49   25   46 1
@<TRIPOS>MOLECULE
ZINC00020245
   46    48     0     0     0
SMALL
USER_CHARGES

@<TRIPOS>ATOM
      1 C1         -5.6836    1.3838    0.0162 C.3       1 <0>        -0.0473
      2 N1         -5.6620   -0.0833   -0.0564 N.4       1 <0>        -0.3868
      3 C2         -6.3713   -0.5242   -1.2649 C.3       1 <0>        -0.0522
      4 C3         -4.2702   -0.5505   -0.1076 C.3       1 <0>        -0.0086
      5 C4         -4.2434   -2.0795   -0.0575 C.3       1 <0>        -0.1781
      6 C5         -2.7938   -2.5661   -0.1108 C.3       1 <0>         0.1490
      7 N2         -2.7704   -4.0309   -0.1190 N.pl3     1 <0>        -0.6108
      8 C6         -2.7295   -4.7451   -1.3212 C.ar      1 <0>         0.1758
      9 C7         -1.6865   -4.4783   -2.2022 C.ar      1 <0>        -0.1411
     10 C8         -1.5734   -5.1772   -3.3856 C.ar      1 <0>        -0.1022
     11 C9         -2.5089   -6.1508   -3.6854 C.ar      1 <0>        -0.1266
     12 C10        -3.5489   -6.4041   -2.8209 C.ar      1 <0>        -0.1101
     13 C11        -3.6933   -5.6947   -1.6266 C.ar      1 <0>        -0.0998
     14 C12        -4.9357   -6.0340   -0.8354 C.3       1 <0>        -0.0687
     15 C13        -5.1005   -5.1892    0.4158 C.3       1 <0>        -0.0773
     16 C14        -3.9592   -5.4030    1.3779 C.ar      1 <0>        -0.0996
     17 C15        -2.7824   -4.7590    1.0748 C.ar      1 <0>         0.1523
     18 C16        -1.6837   -4.8488    1.9126 C.ar      1 <0>        -0.1184
     19 C17        -1.7825   -5.6251    3.0560 C.ar      1 <0>        -0.1094
     20 C18        -2.9565   -6.2950    3.3488 C.ar      1 <0>        -0.1165
     21 C19        -4.0679   -6.1865    2.5030 C.ar      1 <0>        -0.1028
     22 H1         -6.7163    1.7305    0.0542 H         1 <0>         0.1245
     23 H2         -5.1573    1.7109    0.9129 H         1 <0>         0.1235
     24 H3         -5.1933    1.7984   -0.8646 H         1 <0>         0.1221
     25 H4         -6.3552   -1.6128   -1.3188 H         1 <0>         0.1231
     26 H5         -7.4040   -0.1775   -1.2269 H         1 <0>         0.1246
     27 H6         -5.8810   -0.1096   -2.1457 H         1 <0>         0.1227
     28 H7         -3.8061   -0.2091   -1.0329 H         1 <0>         0.1308
     29 H8         -3.7207   -0.1494    0.7440 H         1 <0>         0.1320
     30 H9         -4.7075   -2.4209    0.8678 H         1 <0>         0.0908
     31 H10        -4.7929   -2.4806   -0.9091 H         1 <0>         0.0915
     32 H11        -2.3174   -2.1901   -1.0161 H         1 <0>         0.0824
     33 H12        -2.2550   -2.1990    0.7627 H         1 <0>         0.0801
     34 H13        -0.9599   -3.7176   -1.9576 H         1 <0>         0.1215
     35 H14        -0.7646   -4.9667   -4.0697 H         1 <0>         0.1276
     36 H15        -2.4229   -6.7145   -4.6025 H         1 <0>         0.1250
     37 H16        -4.2693   -7.1687   -3.0712 H         1 <0>         0.1222
     38 H17        -5.8074   -5.8880   -1.4734 H         1 <0>         0.0793
     39 H18        -4.8898   -7.0837   -0.5452 H         1 <0>         0.0765
     40 H19        -5.1365   -4.1371    0.1334 H         1 <0>         0.0724
     41 H20        -6.0358   -5.4578    0.9068 H         1 <0>         0.0709
     42 H21        -0.7686   -4.3248    1.6795 H         1 <0>         0.1257
     43 H22        -0.9372   -5.7074    3.7231 H         1 <0>         0.1275
     44 H23        -3.0178   -6.9071    4.2365 H         1 <0>         0.1269
     45 H24        -4.9880   -6.7067    2.7249 H         1 <0>         0.1290
     46 H25        -6.1159   -0.4671    0.7589 H         1 <0>         0.4268
@<TRIPOS>BOND
     1    1    2 1
     2    1   22 1
     3    1   23 1
     4    1   24 1
     5    2    3 1
     6    2    4 1
     7    2   46 1
     8    3   25 1
     9    3   26 1
    10    3   27 1
    11    4    5 1
    12    4   28 1
    13    4   29 1
    14    5    6 1
    15    5   30 1
    16    5   31 1
    17    6    7 1
    18    6   32 1
    19    6   33 1
    20    7   17 1
    21    7    8 1
    22    8   13 ar
    23    8    9 ar
    24    9   10 ar
    25    9   34 1
    26   10   11 ar
    27   10   35 1
    28   11   12 ar
    29   11   36 1
    30   12   13 ar
    31   12   37 1
    32   13   14 1
    33   14   15 1
    34   14   38 1
    35   14   39 1
    36   15   16 1
    37   15   40 1
    38   15   41 1
    39   16   21 ar
    40   16   17 ar
    41   17   18 ar
    42   18   19 ar
    43   18   42 1
    44   19   20 ar
    45   19   43 1
    46   20   21 ar
    47   20   44 1
    48   21   45 1
@<TRIPOS>MOLECULE
ZINC22862791
   43    46     0     0     0
SMALL
USER_CHARGES
chloro-piperazin-1-yl-BLAH
@<TRIPOS>ATOM
      1 C1         -3.0686    2.5725   -2.4560 C.ar      1 <0>        -0.1697
      2 C2         -1.7756    2.8924   -2.7993 C.ar      1 <0>        -0.0732
      3 C3         -0.6888    2.3666   -2.0580 C.ar      1 <0>        -0.0990
      4 C4         -0.9595    1.6193   -0.9924 C.ar      1 <0>         0.0963
      5 N1         -2.2364    1.2854   -0.7094 N.ar      1 <0>        -0.5060
      6 C5         -3.2671    1.7190   -1.3860 C.ar      1 <0>         0.1175
      7 C6         -0.0127    1.0858    0.0080 C.3       1 <0>         0.1733
      8 H1          0.0193    0.0305   -0.3009 H         1 <0>         0.1159
      9 C7          1.4334    1.3875    0.0483 C.ar      1 <0>        -0.0583
     10 C8          2.1097    0.6432    1.0388 C.ar      1 <0>        -0.0803
     11 C9          3.4707    0.7174    1.1917 C.ar      1 <0>        -0.1133
     12 C10         4.1917    1.5364    0.3392 C.ar      1 <0>        -0.0252
     13 C11         3.5203    2.2759   -0.6001 C.ar      1 <0>        -0.1228
     14 C12         2.1111    2.2333   -0.7206 C.ar      1 <0>        -0.0520
     15 C13         1.6621    3.2616   -1.7365 C.3       1 <0>        -0.0793
     16 C14         0.6183    2.7821   -2.6970 C.3       1 <0>        -0.0842
     17 Cl1         5.9214    1.6252    0.4576 Cl        1 <0>        -0.0576
     18 N2         -0.5488    1.4624    1.3228 N.3       1 <0>        -0.5048
     19 C15        -0.9280    2.8819    1.3500 C.3       1 <0>         0.0247
     20 C16        -1.4058    3.2528    2.7560 C.3       1 <0>         0.0065
     21 N3         -2.5439    2.3994    3.1247 N.4       1 <0>        -0.5356
     22 C17        -2.1647    0.9799    3.0976 C.3       1 <0>        -0.0006
     23 C18        -1.6869    0.6090    1.6916 C.3       1 <0>        -0.0118
     24 H2         -3.9054    2.9768   -3.0063 H         1 <0>         0.1425
     25 H3         -1.5882    3.5475   -3.6373 H         1 <0>         0.1399
     26 H4         -4.2659    1.4128   -1.1120 H         1 <0>         0.1653
     27 H5          1.5410   -0.0010    1.6930 H         1 <0>         0.1342
     28 H6          3.9701    0.1485    1.9620 H         1 <0>         0.1385
     29 H7          4.0840    2.9104   -1.2680 H         1 <0>         0.1336
     30 H8          1.2365    4.1313   -1.2144 H         1 <0>         0.0767
     31 H9          2.5244    3.5819   -2.3397 H         1 <0>         0.0920
     32 H10         1.0518    1.9262   -3.2351 H         1 <0>         0.0858
     33 H11         0.4357    3.6051   -3.4037 H         1 <0>         0.0906
     34 H12        -0.0576    3.4991    1.0828 H         1 <0>         0.1142
     35 H13        -1.7385    3.0588    0.6277 H         1 <0>         0.0601
     36 H14        -0.5857    3.1023    3.4735 H         1 <0>         0.1352
     37 H15        -1.7172    4.3077    2.7711 H         1 <0>         0.1331
     38 H16        -2.8810    2.6562    4.1398 H         1 <0>         0.4534
     39 H17        -1.3542    0.8031    3.8199 H         1 <0>         0.1284
     40 H18        -3.0351    0.3627    3.3649 H         1 <0>         0.1335
     41 H19        -2.5062    0.7597    0.9732 H         1 <0>         0.1251
     42 H20        -1.3747   -0.4456    1.6757 H         1 <0>         0.1123
     43 H21        -3.3676    2.5592    2.4134 H         1 <0>         0.4452
@<TRIPOS>BOND
     1    1    6 ar
     2    1    2 ar
     3    1   24 1
     4    2    3 ar
     5    2   25 1
     6    3   16 1
     7    3    4 ar
     8    4    5 ar
     9    4    7 1
    10    5    6 ar
    11    6   26 1
    12    7    8 1
    13    7    9 1
    14    7   18 1
    15    9   14 ar
    16    9   10 ar
    17   10   11 ar
    18   10   27 1
    19   11   12 ar
    20   11   28 1
    21   12   13 ar
    22   12   17 1
    23   13   14 ar
    24   13   29 1
    25   14   15 1
    26   15   16 1
    27   15   30 1
    28   15   31 1
    29   16   32 1
    30   16   33 1
    31   18   23 1
    32   18   19 1
    33   19   20 1
    34   19   34 1
    35   19   35 1
    36   20   21 1
    37   20   36 1
    38   20   37 1
    39   21   22 1
    40   21   38 1
    41   21   43 1
    42   22   23 1
    43   22   39 1
    44   22   40 1
    45   23   41 1
    46   23   42 1
@<TRIPOS>MOLECULE
ZINC22862794
   43    46     0     0     0
SMALL
USER_CHARGES
chloro-piperazin-1-yl-BLAH
@<TRIPOS>ATOM
      1 C1          4.8582    0.4668   -0.7213 C.ar      1 <0>        -0.1672
      2 C2          3.7594   -0.3601   -0.7083 C.ar      1 <0>        -0.0783
      3 C3          2.4581    0.1813   -0.5498 C.ar      1 <0>        -0.1002
      4 C4          2.3485    1.4911   -0.3646 C.ar      1 <0>         0.0846
      5 N1          3.4390    2.2829   -0.4291 N.ar      1 <0>        -0.4977
      6 C5          4.6542    1.8284   -0.5926 C.ar      1 <0>         0.1204
      7 C6          1.1347    2.2535    0.0033 C.3       1 <0>         0.1774
      8 H1          1.4271    2.6202    0.9983 H         1 <0>         0.1183
      9 C7         -0.1752    1.6456    0.3221 C.ar      1 <0>        -0.0686
     10 C8         -1.1829    2.6188    0.4997 C.ar      1 <0>        -0.0772
     11 C9         -2.4944    2.2706    0.6980 C.ar      1 <0>        -0.1164
     12 C10        -2.8290    0.9272    0.7239 C.ar      1 <0>        -0.0247
     13 C11        -1.8364   -0.0086    0.5866 C.ar      1 <0>        -0.1242
     14 C12        -0.4794    0.3558    0.4191 C.ar      1 <0>        -0.0489
     15 C13         0.3787   -0.8916    0.4199 C.3       1 <0>        -0.0847
     16 C14         1.4330   -0.9259   -0.6429 C.3       1 <0>        -0.0782
     17 Cl1        -4.4813    0.4350    0.9278 Cl        1 <0>        -0.0578
     18 N2          0.8944    3.2019   -1.0925 N.3       1 <0>        -0.5111
     19 C15         2.0001    4.1629   -1.2093 C.3       1 <0>         0.0051
     20 C16         1.6754    5.1792   -2.3066 C.3       1 <0>        -0.0017
     21 N3          1.4592    4.4725   -3.5768 N.4       1 <0>        -0.5367
     22 C17         0.3535    3.5116   -3.4600 C.3       1 <0>         0.0037
     23 C18         0.6782    2.4952   -2.3627 C.3       1 <0>         0.0254
     24 H2          5.8542    0.0633   -0.8294 H         1 <0>         0.1423
     25 H3          3.8880   -1.4267   -0.8188 H         1 <0>         0.1390
     26 H4          5.4910    2.5103   -0.6266 H         1 <0>         0.1663
     27 H5         -0.9137    3.6645    0.4789 H         1 <0>         0.1386
     28 H6         -3.2513    3.0292    0.8318 H         1 <0>         0.1382
     29 H7         -2.0983   -1.0562    0.6074 H         1 <0>         0.1336
     30 H8          0.8978   -0.9789    1.3858 H         1 <0>         0.0826
     31 H9         -0.2582   -1.7749    0.2647 H         1 <0>         0.0922
     32 H10         0.9125   -0.8633   -1.6099 H         1 <0>         0.0789
     33 H11         1.9370   -1.9001   -0.5602 H         1 <0>         0.0906
     34 H12         2.1336    4.6864   -0.2511 H         1 <0>         0.1189
     35 H13         2.9258    3.6273   -1.4665 H         1 <0>         0.1091
     36 H14         0.7652    5.7339   -2.0349 H         1 <0>         0.1306
     37 H15         2.5144    5.8822   -2.4152 H         1 <0>         0.1339
     38 H16         1.2137    5.2004   -4.3642 H         1 <0>         0.4539
     39 H17        -0.5721    4.0473   -3.2027 H         1 <0>         0.1363
     40 H18         0.2199    2.9881   -4.4182 H         1 <0>         0.1346
     41 H19         1.5887    1.9404   -2.6332 H         1 <0>         0.0561
     42 H20        -0.1606    1.7921   -2.2530 H         1 <0>         0.1185
     43 H21         2.3738    3.9275   -3.8535 H         1 <0>         0.4447
@<TRIPOS>BOND
     1    1    6 ar
     2    1    2 ar
     3    1   24 1
     4    2    3 ar
     5    2   25 1
     6    3   16 1
     7    3    4 ar
     8    4    5 ar
     9    4    7 1
    10    5    6 ar
    11    6   26 1
    12    7    8 1
    13    7    9 1
    14    7   18 1
    15    9   14 ar
    16    9   10 ar
    17   10   11 ar
    18   10   27 1
    19   11   12 ar
    20   11   28 1
    21   12   13 ar
    22   12   17 1
    23   13   14 ar
    24   13   29 1
    25   14   15 1
    26   15   16 1
    27   15   30 1
    28   15   31 1
    29   16   32 1
    30   16   33 1
    31   18   23 1
    32   18   19 1
    33   19   20 1
    34   19   34 1
    35   19   35 1
    36   20   21 1
    37   20   36 1
    38   20   37 1
    39   21   22 1
    40   21   38 1
    41   21   43 1
    42   22   23 1
    43   22   39 1
    44   22   40 1
    45   23   41 1
    46   23   42 1
@<TRIPOS>MOLECULE
ZINC01915508
   64    68     0     0     0
SMALL
USER_CHARGES
8-[4-[4-(9-thia-8-azabicyclo[4.3.0]nona-2,4,7,10-tetraen-7-yl)piperazin-1-yl]butyl]-8-azaspiro[4.5]decane-7,9-dione
@<TRIPOS>ATOM
      1 C1         -0.1854    3.0363    3.0585 C.ar      1 <0>        -0.1227
      2 C2          0.9702    2.2871    2.8731 C.ar      1 <0>        -0.0631
      3 C3          1.7797    2.5384    1.7969 C.ar      1 <0>        -0.0775
      4 C4          1.4398    3.5390    0.9109 C.ar      1 <0>        -0.1195
      5 C5          0.2738    4.3208    1.0775 C.ar      1 <0>        -0.1259
      6 C6         -0.5340    4.0311    2.1987 C.ar      1 <0>        -0.0351
      7 C7          0.1089    5.3174    0.0302 C.2       1 <0>         0.2965
      8 N1          0.9929    5.4074   -0.9213 N.2       1 <0>        -0.4531
      9 S1          2.1517    4.2026   -0.5700 S.3       1 <0>         0.2239
     10 N2         -0.9928    6.1742    0.0458 N.pl3     1 <0>        -0.4740
     11 C8         -1.8260    5.9826   -1.1494 C.3       1 <0>         0.0288
     12 C9         -3.0618    6.8807   -1.0559 C.3       1 <0>         0.0019
     13 C10        -1.8041    8.4738    0.2628 C.3       1 <0>         0.0063
     14 C11        -0.5684    7.5757    0.1693 C.3       1 <0>         0.0281
     15 C12        -3.7969    9.1840   -0.9159 C.3       1 <0>        -0.0018
     16 C13        -4.4982    9.1379   -2.2750 C.3       1 <0>        -0.1459
     17 C14        -5.7059   10.0771   -2.2578 C.3       1 <0>        -0.1286
     18 C15        -6.4072   10.0310   -3.6168 C.3       1 <0>         0.0907
     19 N3         -7.5636   10.9302   -3.6003 N.am      1 <0>        -0.5674
     20 C16        -8.7518   10.4404   -3.2171 C.2       1 <0>         0.5275
     21 O1         -8.8357    9.2783   -2.8824 O.2       1 <0>        -0.4991
     22 C17        -9.9833   11.3079   -3.1892 C.3       1 <0>        -0.1340
     23 C18        -9.5725   12.7603   -2.9521 C.3       1 <0>        -0.0662
     24 C19       -10.8015   13.6767   -3.0258 C.3       1 <0>        -0.1145
     25 C20       -10.9201   14.3606   -1.6469 C.3       1 <0>        -0.1263
     26 C21        -9.4840   14.3020   -1.0687 C.3       1 <0>        -0.1244
     27 C22        -8.9806   12.9141   -1.5400 C.3       1 <0>        -0.1218
     28 C23        -8.5400   13.1786   -3.9978 C.3       1 <0>        -0.1329
     29 C24        -7.3893   12.2063   -3.9743 C.2       1 <0>         0.5269
     30 O2         -6.2846   12.5847   -4.3000 O.2       1 <0>        -0.4987
     31 H1         -0.8189    2.8271    3.9078 H         1 <0>         0.1379
     32 H2          1.2271    1.5059    3.5731 H         1 <0>         0.1446
     33 H3          2.6772    1.9577    1.6438 H         1 <0>         0.1426
     34 H4         -1.4362    4.5989    2.3719 H         1 <0>         0.1355
     35 H5         -1.2524    6.2448   -2.0384 H         1 <0>         0.0752
     36 H6         -2.1380    4.9401   -1.2119 H         1 <0>         0.1258
     37 H7         -3.6497    6.6005   -0.1819 H         1 <0>         0.1430
     38 H8         -3.6669    6.7619   -1.9547 H         1 <0>         0.1398
     39 H9         -2.3778    8.2117    1.1518 H         1 <0>         0.1425
     40 H10        -1.4921    9.5163    0.3257 H         1 <0>         0.1394
     41 H11         0.0365    7.6946    1.0683 H         1 <0>         0.1260
     42 H12         0.0195    7.8560   -0.7047 H         1 <0>         0.0753
     43 H13        -4.4917    8.8682   -0.1377 H         1 <0>         0.1343
     44 H14        -3.4629   10.2016   -0.7137 H         1 <0>         0.1317
     45 H15        -3.8034    9.4537   -3.0532 H         1 <0>         0.0910
     46 H16        -4.8321    8.1202   -2.4772 H         1 <0>         0.0910
     47 H17        -6.4007    9.7613   -1.4795 H         1 <0>         0.0800
     48 H18        -5.3719   11.0947   -2.0556 H         1 <0>         0.0795
     49 H19        -5.7124   10.3468   -4.3951 H         1 <0>         0.0985
     50 H20        -6.7411    9.0133   -3.8190 H         1 <0>         0.0987
     51 H21       -10.6438   10.9805   -2.3863 H         1 <0>         0.1190
     52 H22       -10.5031   11.2276   -4.1439 H         1 <0>         0.1155
     53 H23       -10.6624   14.4268   -3.8044 H         1 <0>         0.0769
     54 H24       -11.6956   13.0875   -3.2291 H         1 <0>         0.0769
     55 H25       -11.6116   13.8121   -1.0073 H         1 <0>         0.0700
     56 H26       -11.2444   15.3952   -1.7587 H         1 <0>         0.0725
     57 H27        -9.5035   14.3564    0.0198 H         1 <0>         0.0709
     58 H28        -8.8653   15.0981   -1.4826 H         1 <0>         0.0705
     59 H29        -9.3535   12.1291   -0.8821 H         1 <0>         0.0742
     60 H30        -7.8914   12.8959   -1.5784 H         1 <0>         0.0612
     61 H31        -8.1754   14.1800   -3.7693 H         1 <0>         0.1185
     62 H32        -9.0001   13.1744   -4.9859 H         1 <0>         0.1158
     63 N4         -2.6214    8.2879   -0.9547 N.4       1 <0>        -0.3991
     64 H33        -2.0524    8.5196   -1.7774 H         1 <0>         0.4266
@<TRIPOS>BOND
     1    1    6 ar
     2    1    2 ar
     3    1   31 1
     4    2    3 ar
     5    2   32 1
     6    3    4 ar
     7    3   33 1
     8    4    9 1
     9    4    5 ar
    10    5    6 ar
    11    5    7 1
    12    6   34 1
    13    7    8 2
    14    7   10 1
    15    8    9 1
    16   10   14 1
    17   10   11 1
    18   11   12 1
    19   11   35 1
    20   11   36 1
    21   12   37 1
    22   12   38 1
    23   12   63 1
    24   13   14 1
    25   13   39 1
    26   13   40 1
    27   13   63 1
    28   14   41 1
    29   14   42 1
    30   15   16 1
    31   15   43 1
    32   15   44 1
    33   15   63 1
    34   16   17 1
    35   16   45 1
    36   16   46 1
    37   17   18 1
    38   17   47 1
    39   17   48 1
    40   18   19 1
    41   18   49 1
    42   18   50 1
    43   19   29 am
    44   19   20 am
    45   20   21 2
    46   20   22 1
    47   22   23 1
    48   22   51 1
    49   22   52 1
    50   23   27 1
    51   23   24 1
    52   23   28 1
    53   24   25 1
    54   24   53 1
    55   24   54 1
    56   25   26 1
    57   25   55 1
    58   25   56 1
    59   26   27 1
    60   26   57 1
    61   26   58 1
    62   27   59 1
    63   27   60 1
    64   28   29 1
    65   28   61 1
    66   28   62 1
    67   29   30 2
    68   63   64 1
@<TRIPOS>MOLECULE
ZINC28635561
   58    61     0     0     0
SMALL
USER_CHARGES
methyl (1S,2R)-2-[(4-hydroxy-4-phenyl-1-piperidyl)methyl]-1-(p-tolyl)cyclopropanecarboxylate
@<TRIPOS>ATOM
      1 C1         -8.8883   -3.1101   -7.6859 C.3       1 <0>        -0.1264
      2 C2         -8.7714   -2.4172   -6.3527 C.ar      1 <0>        -0.0684
      3 C3         -9.8392   -2.4227   -5.4749 C.ar      1 <0>        -0.1148
      4 C4         -9.7320   -1.7871   -4.2520 C.ar      1 <0>        -0.0961
      5 C5         -8.5566   -1.1468   -3.9066 C.ar      1 <0>        -0.0812
      6 C6         -7.4904   -1.1371   -4.7864 C.ar      1 <0>        -0.1058
      7 C7         -7.5962   -1.7764   -6.0075 C.ar      1 <0>        -0.1199
      8 C8         -8.4397   -0.4539   -2.5734 C.3       1 <0>        -0.0785
      9 C9         -8.3512    1.0743   -2.5766 C.3       1 <0>        -0.1212
     10 C10        -7.1133    0.2366   -2.2500 C.3       1 <0>        -0.1254
     11 H1         -6.0882    0.1764   -2.6445 H         1 <0>         0.1441
     12 C11        -6.6404    0.2122   -0.7951 C.3       1 <0>        -0.0033
     13 N1         -5.3045    0.8164   -0.7042 N.4       1 <0>        -0.3993
     14 C12        -4.9165    1.0272    0.6963 C.3       1 <0>         0.0036
     15 C13        -3.5894    1.7875    0.7504 C.3       1 <0>        -0.1333
     16 C14        -2.5137    0.9795    0.0193 C.3       1 <0>         0.1859
     17 C15        -2.9643    0.7323   -1.4231 C.3       1 <0>        -0.1685
     18 C16        -4.3095    0.0026   -1.4142 C.3       1 <0>        -0.0082
     19 C17        -1.2190    1.7506    0.0173 C.ar      1 <0>        -0.1263
     20 C18        -0.0126    1.0758    0.0080 C.ar      1 <0>        -0.1062
     21 C19         1.1750    1.7832    0.0004 C.ar      1 <0>        -0.1112
     22 C20         1.1563    3.1654    0.0081 C.ar      1 <0>        -0.1076
     23 C21        -0.0501    3.8402    0.0228 C.ar      1 <0>        -0.1129
     24 C22        -1.2377    3.1328    0.0294 C.ar      1 <0>        -0.1162
     25 O1         -2.3232   -0.2719    0.6825 O.3       1 <0>        -0.5789
     26 C23        -9.1805   -1.1060   -1.4346 C.2       1 <0>         0.5044
     27 O2         -8.7225   -1.0707   -0.3170 O.2       1 <0>        -0.5124
     28 O3        -10.3492   -1.7260   -1.6616 O.3       1 <0>        -0.3382
     29 C24       -11.0072   -2.3319   -0.5178 C.3       1 <0>         0.0257
     30 H2         -9.8884   -3.5585   -7.7796 H         1 <0>         0.0705
     31 H3         -8.1247   -3.8986   -7.7575 H         1 <0>         0.0748
     32 H4         -8.7371   -2.3789   -8.4936 H         1 <0>         0.0756
     33 H5        -10.7574   -2.9233   -5.7446 H         1 <0>         0.1294
     34 H6        -10.5664   -1.7912   -3.5664 H         1 <0>         0.1443
     35 H7         -6.5737   -0.6331   -4.5183 H         1 <0>         0.1172
     36 H8         -6.7618   -1.7724   -6.6932 H         1 <0>         0.1273
     37 H9         -8.6120    1.4546   -3.5753 H         1 <0>         0.1346
     38 H10        -9.0518    1.4837   -1.8339 H         1 <0>         0.1253
     39 H11        -7.3441    0.7828   -0.1712 H         1 <0>         0.1371
     40 H12        -6.5971   -0.8284   -0.4410 H         1 <0>         0.1441
     41 H13        -5.6948    1.6121    1.2083 H         1 <0>         0.1326
     42 H14        -4.8015    0.0537    1.1954 H         1 <0>         0.1354
     43 H15        -3.7081    2.7672    0.2646 H         1 <0>         0.1042
     44 H16        -3.2921    1.9321    1.7996 H         1 <0>         0.1218
     45 H17        -3.0709    1.6952   -1.9440 H         1 <0>         0.0990
     46 H18        -2.2144    0.1163   -1.9411 H         1 <0>         0.1155
     47 H19        -4.1973   -0.9660   -0.9051 H         1 <0>         0.1353
     48 H20        -4.6428   -0.1636   -2.4492 H         1 <0>         0.1312
     49 H21         0.0021   -0.0041    0.0020 H         1 <0>         0.1215
     50 H22         2.1175    1.2560   -0.0111 H         1 <0>         0.1290
     51 H23         2.0841    3.7181    0.0029 H         1 <0>         0.1290
     52 H24        -0.0647    4.9201    0.0295 H         1 <0>         0.1284
     53 H25        -2.1802    3.6600    0.0413 H         1 <0>         0.1228
     54 H26        -1.5848   -0.9911    0.2984 H         1 <0>         0.4205
     55 H27       -11.9473   -2.8020   -0.8422 H         1 <0>         0.1132
     56 H28       -11.2243   -1.5577    0.2329 H         1 <0>         0.0704
     57 H29       -10.3485   -3.0950   -0.0776 H         1 <0>         0.0701
     58 H30        -5.3429    1.8010   -1.1932 H         1 <0>         0.4361
@<TRIPOS>BOND
     1    1    2 1
     2    1   30 1
     3    1   31 1
     4    1   32 1
     5    2    7 ar
     6    2    3 ar
     7    3    4 ar
     8    3   33 1
     9    4    5 ar
    10    4   34 1
    11    5    6 ar
    12    5    8 1
    13    6    7 ar
    14    6   35 1
    15    7   36 1
    16    8   10 1
    17    8    9 1
    18    8   26 1
    19    9   10 1
    20    9   37 1
    21    9   38 1
    22   10   11 1
    23   10   12 1
    24   12   13 1
    25   12   39 1
    26   12   40 1
    27   13   18 1
    28   13   14 1
    29   13   58 1
    30   14   15 1
    31   14   41 1
    32   14   42 1
    33   15   16 1
    34   15   43 1
    35   15   44 1
    36   16   17 1
    37   16   19 1
    38   16   25 1
    39   17   18 1
    40   17   45 1
    41   17   46 1
    42   18   47 1
    43   18   48 1
    44   19   24 ar
    45   19   20 ar
    46   20   21 ar
    47   20   49 1
    48   21   22 ar
    49   21   50 1
    50   22   23 ar
    51   22   51 1
    52   23   24 ar
    53   23   52 1
    54   24   53 1
    55   25   54 1
    56   26   27 2
    57   26   28 1
    58   28   29 1
    59   29   55 1
    60   29   56 1
    61   29   57 1
@<TRIPOS>MOLECULE
ZINC13861059
   43    46     0     0     0
SMALL
USER_CHARGES
4-(chloroBLAHylidene)piperidine-1-carbaldehyde
@<TRIPOS>ATOM
      1 C1          1.6250    2.0735   -0.5644 C.ar      1 <0>        -0.1707
      2 C2          0.3749    1.5206   -0.3688 C.ar      1 <0>        -0.0847
      3 C3          0.2445    0.1381   -0.1831 C.ar      1 <0>        -0.1109
      4 C4          1.3950   -0.6240   -0.2114 C.ar      1 <0>         0.1744
      5 N1          2.5894   -0.0455   -0.3881 N.ar      1 <0>        -0.4744
      6 C5          2.7336    1.2468   -0.5632 C.ar      1 <0>         0.1043
      7 C6          1.4066   -2.0966   -0.0717 C.2       1 <0>        -0.0646
      8 C7          2.3350   -2.6741    0.7005 C.2       1 <0>        -0.0517
      9 C8          3.2824   -1.8364    1.5310 C.3       1 <0>        -0.0936
     10 C9          3.2085   -2.3294    2.9868 C.3       1 <0>         0.1071
     11 N2          3.3592   -3.7901    2.9977 N.am      1 <0>        -0.6203
     12 C10         2.4171   -4.6142    2.2297 C.3       1 <0>         0.1157
     13 C11         2.4665   -4.1802    0.7592 C.3       1 <0>        -0.1128
     14 C12         4.3511   -4.3678    3.7040 C.2       1 <0>         0.4933
     15 O1          5.1254   -3.6806    4.3359 O.2       1 <0>        -0.5521
     16 C13         0.4130   -2.9453   -0.7679 C.ar      1 <0>        -0.0281
     17 C14         0.8022   -3.8930   -1.7102 C.ar      1 <0>        -0.0881
     18 C15        -0.1663   -4.6703   -2.3179 C.ar      1 <0>        -0.1118
     19 C16        -1.4996   -4.4980   -1.9859 C.ar      1 <0>        -0.0314
     20 C17        -1.8768   -3.5489   -1.0510 C.ar      1 <0>        -0.1048
     21 C18        -0.9091   -2.7660   -0.4421 C.ar      1 <0>        -0.0584
     22 C19        -1.3059   -1.7305    0.5637 C.3       1 <0>        -0.0790
     23 C20        -1.1701   -0.3231    0.0485 C.3       1 <0>        -0.0681
     24 Cl1        -2.7096   -5.4814   -2.7491 Cl        1 <0>        -0.0685
     25 H1          1.7354    3.1370   -0.7166 H         1 <0>         0.1360
     26 H2         -0.5011    2.1522   -0.3635 H         1 <0>         0.1337
     27 H3          3.7188    1.6652   -0.7068 H         1 <0>         0.1599
     28 H4          4.2987   -1.9488    1.1535 H         1 <0>         0.0844
     29 H5          2.9857   -0.7887    1.4813 H         1 <0>         0.0912
     30 H6          2.2452   -2.0582    3.4189 H         1 <0>         0.0663
     31 H7          4.0121   -1.8748    3.5662 H         1 <0>         0.0965
     32 H8          1.4083   -4.4743    2.6182 H         1 <0>         0.0733
     33 H9          2.6972   -5.6645    2.3102 H         1 <0>         0.0908
     34 H10         1.6444   -4.6419    0.2124 H         1 <0>         0.0923
     35 H11         3.4166   -4.4830    0.3189 H         1 <0>         0.0878
     36 H12         4.4565   -5.4426    3.7074 H         1 <0>         0.1305
     37 H13         1.8447   -4.0193   -1.9624 H         1 <0>         0.1371
     38 H14         0.1168   -5.4109   -3.0512 H         1 <0>         0.1368
     39 H15        -2.9187   -3.4199   -0.7976 H         1 <0>         0.1366
     40 H16        -0.6781   -1.8420    1.4477 H         1 <0>         0.0784
     41 H17        -2.3442   -1.9007    0.8484 H         1 <0>         0.0823
     42 H18        -1.6383    0.3516    0.7652 H         1 <0>         0.0855
     43 H19        -1.7142   -0.2482   -0.8931 H         1 <0>         0.0797
@<TRIPOS>BOND
     1    1    6 ar
     2    1    2 ar
     3    1   25 1
     4    2    3 ar
     5    2   26 1
     6    3   23 1
     7    3    4 ar
     8    4    5 ar
     9    4    7 1
    10    5    6 ar
    11    6   27 1
    12    7    8 2
    13    7   16 1
    14    8   13 1
    15    8    9 1
    16    9   10 1
    17    9   28 1
    18    9   29 1
    19   10   11 1
    20   10   30 1
    21   10   31 1
    22   11   12 1
    23   11   14 am
    24   12   13 1
    25   12   32 1
    26   12   33 1
    27   13   34 1
    28   13   35 1
    29   14   15 2
    30   14   36 1
    31   16   21 ar
    32   16   17 ar
    33   17   18 ar
    34   17   37 1
    35   18   19 ar
    36   18   38 1
    37   19   20 ar
    38   19   24 1
    39   20   21 ar
    40   20   39 1
    41   21   22 1
    42   22   23 1
    43   22   40 1
    44   22   41 1
    45   23   42 1
    46   23   43 1
@<TRIPOS>MOLECULE
ZINC00020248
   46    48     0     0     0
SMALL
USER_CHARGES

@<TRIPOS>ATOM
      1 C1         -5.6600    1.3618    0.4597 C.3       1 <0>        -0.0474
      2 N1         -5.6471   -0.0878    0.2218 N.4       1 <0>        -0.3867
      3 C2         -6.3574   -0.3850   -1.0293 C.3       1 <0>        -0.0523
      4 C3         -4.2581   -0.5548    0.1191 C.3       1 <0>        -0.0083
      5 C4         -4.2405   -2.0797   -0.0038 C.3       1 <0>        -0.1741
      6 C5         -2.7938   -2.5661   -0.1108 C.3       1 <0>         0.1309
      7 N2         -2.7704   -4.0309   -0.1190 N.pl3     1 <0>        -0.5935
      8 C6         -2.7303   -4.6837   -1.3451 C.ar      1 <0>         0.1859
      9 C7         -1.8260   -4.1660   -2.2811 C.ar      1 <0>        -0.1574
     10 C8         -1.6797   -4.7476   -3.5192 C.ar      1 <0>        -0.0952
     11 C9         -2.4365   -5.8609   -3.8384 C.ar      1 <0>        -0.1332
     12 C10        -3.3330   -6.3646   -2.9249 C.ar      1 <0>        -0.0999
     13 C11        -3.5037   -5.7750   -1.6688 C.ar      1 <0>        -0.1089
     14 C12        -4.5743   -6.4166   -0.8216 C.3       1 <0>        -0.0721
     15 C13        -4.9918   -5.6033    0.3783 C.3       1 <0>        -0.0690
     16 C14        -3.8887   -5.4681    1.3836 C.ar      1 <0>        -0.0980
     17 C15        -2.7839   -4.6994    1.1019 C.ar      1 <0>         0.1741
     18 C16        -1.7322   -4.5882    1.9998 C.ar      1 <0>        -0.1187
     19 C17        -1.8086   -5.2524    3.2126 C.ar      1 <0>        -0.0223
     20 C18        -2.9248   -6.0132    3.5136 C.ar      1 <0>        -0.1131
     21 C19        -3.9754   -6.1256    2.6005 C.ar      1 <0>        -0.0889
     22 Cl1        -0.5058   -5.1313    4.3535 Cl        1 <0>        -0.0554
     23 H1         -6.6906    1.7083    0.5359 H         1 <0>         0.1247
     24 H2         -5.1330    1.5823    1.3879 H         1 <0>         0.1236
     25 H3         -5.1660    1.8703   -0.3683 H         1 <0>         0.1224
     26 H4         -5.8633    0.1235   -1.8572 H         1 <0>         0.1230
     27 H5         -6.3478   -1.4606   -1.2058 H         1 <0>         0.1233
     28 H6         -7.3880   -0.0385   -0.9531 H         1 <0>         0.1247
     29 H7         -3.7907   -0.1139   -0.7614 H         1 <0>         0.1315
     30 H8         -3.7074   -0.2558    1.0110 H         1 <0>         0.1322
     31 H9         -4.7079   -2.5206    0.8766 H         1 <0>         0.0896
     32 H10        -4.7912   -2.3787   -0.8957 H         1 <0>         0.0908
     33 H11        -2.3515   -2.1905   -1.0335 H         1 <0>         0.0902
     34 H12        -2.2229   -2.1984    0.7418 H         1 <0>         0.0815
     35 H13        -1.2357   -3.2979   -2.0274 H         1 <0>         0.1217
     36 H14        -0.9815   -4.3392   -4.2348 H         1 <0>         0.1273
     37 H15        -2.3238   -6.3333   -4.8030 H         1 <0>         0.1262
     38 H16        -3.9182   -7.2346   -3.1839 H         1 <0>         0.1241
     39 H17        -5.4518   -6.5884   -1.4450 H         1 <0>         0.0825
     40 H18        -4.2074   -7.3823   -0.4739 H         1 <0>         0.0763
     41 H19        -5.2905   -4.6094    0.0453 H         1 <0>         0.0673
     42 H20        -5.8457   -6.0866    0.8532 H         1 <0>         0.0790
     43 H21        -0.8653   -3.9919    1.7562 H         1 <0>         0.1372
     44 H22        -2.9858   -6.5230    4.4638 H         1 <0>         0.1382
     45 H23        -4.8449   -6.7215    2.8354 H         1 <0>         0.1390
     46 H24        -6.1044   -0.5585    0.9882 H         1 <0>         0.4269
@<TRIPOS>BOND
     1    1    2 1
     2    1   23 1
     3    1   24 1
     4    1   25 1
     5    2    3 1
     6    2    4 1
     7    2   46 1
     8    3   26 1
     9    3   27 1
    10    3   28 1
    11    4    5 1
    12    4   29 1
    13    4   30 1
    14    5    6 1
    15    5   31 1
    16    5   32 1
    17    6    7 1
    18    6   33 1
    19    6   34 1
    20    7   17 1
    21    7    8 1
    22    8   13 ar
    23    8    9 ar
    24    9   10 ar
    25    9   35 1
    26   10   11 ar
    27   10   36 1
    28   11   12 ar
    29   11   37 1
    30   12   13 ar
    31   12   38 1
    32   13   14 1
    33   14   15 1
    34   14   39 1
    35   14   40 1
    36   15   16 1
    37   15   41 1
    38   15   42 1
    39   16   21 ar
    40   16   17 ar
    41   17   18 ar
    42   18   19 ar
    43   18   43 1
    44   19   20 ar
    45   19   22 1
    46   20   21 ar
    47   20   44 1
    48   21   45 1
@<TRIPOS>MOLECULE
ZINC19796155
   42    45     0     0     0
SMALL
USER_CHARGES

@<TRIPOS>ATOM
      1 C1         -0.0670    1.4396   -0.3852 C.3       1 <0>         0.0243
      2 N1         -0.0229   -0.0169   -0.1987 N.3       1 <0>        -0.5428
      3 C2          0.3808   -0.6943   -1.4380 C.3       1 <0>         0.0399
      4 C3          0.2401   -2.2095   -1.2572 C.3       1 <0>         0.1263
      5 N2          0.9912   -2.6085   -0.0572 N.pl3     1 <0>        -0.5953
      6 C4          0.7394   -1.8803    1.1955 C.3       1 <0>         0.1122
      7 C5          0.8604   -0.3781    0.9181 C.3       1 <0>         0.0393
      8 C6          1.9051   -3.6365   -0.1053 C.2       1 <0>         0.5098
      9 N3          2.1670   -4.1290   -1.2643 N.2       1 <0>        -0.6041
     10 C7          3.0130   -5.1503   -1.5719 C.ar      1 <0>         0.1655
     11 C8          2.6280   -6.0848   -2.5372 C.ar      1 <0>        -0.1058
     12 C9          3.4872   -7.1047   -2.8991 C.ar      1 <0>        -0.0230
     13 C10         4.7348   -7.2069   -2.3106 C.ar      1 <0>        -0.1209
     14 C11         5.1212   -6.2977   -1.3402 C.ar      1 <0>        -0.1017
     15 C12         4.2618   -5.2835   -0.9546 C.ar      1 <0>         0.1117
     16 N4          4.6314   -4.4326    0.1003 N.pl3     1 <0>        -0.7261
     17 C13         3.8434   -4.4184    1.2519 C.ar      1 <0>         0.2140
     18 C14         2.4943   -4.0640    1.1729 C.ar      1 <0>        -0.1453
     19 C15         1.7072   -4.1133    2.3240 C.ar      1 <0>        -0.0723
     20 C16         2.2727   -4.4729    3.5311 C.ar      1 <0>        -0.1389
     21 C17         3.6189   -4.7825    3.6069 C.ar      1 <0>        -0.0765
     22 C18         4.3974   -4.7629    2.4751 C.ar      1 <0>        -0.1433
     23 Cl1         2.9987   -8.2627   -4.0966 Cl        1 <0>        -0.0679
     24 H1          0.9359    1.8090   -0.5992 H         1 <0>         0.0255
     25 H2         -0.7279    1.6794   -1.2181 H         1 <0>         0.0711
     26 H3         -0.4416    1.9111    0.5233 H         1 <0>         0.0709
     27 H4         -0.2581   -0.3649   -2.2574 H         1 <0>         0.0878
     28 H5          1.4186   -0.4499   -1.6647 H         1 <0>         0.0378
     29 H6         -0.8117   -2.4673   -1.1334 H         1 <0>         0.0720
     30 H7          0.6453   -2.7216   -2.1299 H         1 <0>         0.1060
     31 H8         -0.2645   -2.1065    1.5551 H         1 <0>         0.0792
     32 H9          1.4746   -2.1748    1.9444 H         1 <0>         0.0984
     33 H10         1.8915   -0.1381    0.6586 H         1 <0>         0.0379
     34 H11         0.5693    0.1807    1.8075 H         1 <0>         0.0892
     35 H12         1.6558   -6.0097   -3.0016 H         1 <0>         0.1375
     36 H13         5.4083   -7.9971   -2.6081 H         1 <0>         0.1357
     37 H14         6.0961   -6.3802   -0.8829 H         1 <0>         0.1326
     38 H15         5.4169   -3.8679    0.0299 H         1 <0>         0.4097
     39 H16         0.6563   -3.8699    2.2709 H         1 <0>         0.1344
     40 H17         1.6613   -4.5124    4.4205 H         1 <0>         0.1323
     41 H18         4.0571   -5.0467    4.5580 H         1 <0>         0.1317
     42 H19         5.4473   -5.0071    2.5424 H         1 <0>         0.1313
@<TRIPOS>BOND
     1    1    2 1
     2    1   24 1
     3    1   25 1
     4    1   26 1
     5    2    7 1
     6    2    3 1
     7    3    4 1
     8    3   27 1
     9    3   28 1
    10    4    5 1
    11    4   29 1
    12    4   30 1
    13    5    6 1
    14    5    8 1
    15    6    7 1
    16    6   31 1
    17    6   32 1
    18    7   33 1
    19    7   34 1
    20    8   18 1
    21    8    9 2
    22    9   10 1
    23   10   15 ar
    24   10   11 ar
    25   11   12 ar
    26   11   35 1
    27   12   13 ar
    28   12   23 1
    29   13   14 ar
    30   13   36 1
    31   14   15 ar
    32   14   37 1
    33   15   16 1
    34   16   17 1
    35   16   38 1
    36   17   22 ar
    37   17   18 ar
    38   18   19 ar
    39   19   20 ar
    40   19   39 1
    41   20   21 ar
    42   20   40 1
    43   21   22 ar
    44   21   41 1
    45   22   42 1
@<TRIPOS>MOLECULE
ZINC19796155
   44    47     0     0     0
SMALL
USER_CHARGES

@<TRIPOS>ATOM
      1 C1         -1.5703   -0.0018   -1.9302 C.3       1 <0>        -0.0497
      2 N1         -0.7527   -0.7171   -0.9414 N.4       1 <0>        -0.3854
      3 C2         -1.0498   -2.1535   -1.0104 C.3       1 <0>        -0.0252
      4 C3         -0.2839   -2.8861    0.0962 C.3       1 <0>         0.1048
      5 N2          1.1441   -2.5548   -0.0269 N.pl3     1 <0>        -0.7052
      6 C4          1.5202   -1.1363   -0.1296 C.3       1 <0>         0.1049
      7 C5          0.6692   -0.4862   -1.2256 C.3       1 <0>        -0.0251
      8 C6          2.0831   -3.5253   -0.0448 C.2       1 <0>         0.6309
      9 C7          2.6112   -3.9094    1.2074 C.ar      1 <0>        -0.2438
     10 C8          2.0495   -3.1929    2.2728 C.ar      1 <0>         0.0055
     11 C9          2.4602   -3.4528    3.5483 C.ar      1 <0>        -0.1817
     12 C10         3.4265   -4.4148    3.8208 C.ar      1 <0>         0.0489
     13 C11         4.0101   -5.1439    2.8276 C.ar      1 <0>        -0.2233
     14 C12         3.6302   -4.9235    1.4921 C.ar      1 <0>         0.3343
     15 N3          4.2865   -5.7106    0.6358 N.pl3     1 <0>        -0.6131
     16 C13         4.1767   -5.7728   -0.7271 C.ar      1 <0>         0.1589
     17 C14         5.0408   -6.7320   -1.2562 C.ar      1 <0>        -0.1157
     18 C15         5.0795   -6.9478   -2.6222 C.ar      1 <0>        -0.0495
     19 C16         4.2642   -6.2154   -3.4643 C.ar      1 <0>        -0.0338
     20 C17         3.4016   -5.2585   -2.9468 C.ar      1 <0>        -0.0846
     21 C18         3.3520   -5.0321   -1.5848 C.ar      1 <0>         0.0769
     22 N4          2.4115   -4.0290   -1.2719 N.pl3     1 <0>        -0.5773
     23 Cl1         4.3195   -6.4929   -5.1771 Cl        1 <0>        -0.0159
     24 H1         -1.3348   -0.3678   -2.9295 H         1 <0>         0.1246
     25 H2         -2.6262   -0.1724   -1.7203 H         1 <0>         0.1321
     26 H3         -1.3566    1.0656   -1.8745 H         1 <0>         0.1321
     27 H4         -2.1201   -2.3101   -0.8766 H         1 <0>         0.1569
     28 H5         -0.7442   -2.5415   -1.9820 H         1 <0>         0.1344
     29 H6         -0.6518   -2.5648    1.0707 H         1 <0>         0.1155
     30 H7         -0.4211   -3.9618   -0.0138 H         1 <0>         0.1302
     31 H8          1.3345   -0.6383    0.8220 H         1 <0>         0.1155
     32 H9          2.5758   -1.0551   -0.3891 H         1 <0>         0.1302
     33 H10         0.9228   -0.9247   -2.1907 H         1 <0>         0.1344
     34 H11         0.8655    0.5856   -1.2504 H         1 <0>         0.1569
     35 H12         1.2975   -2.4405    2.0860 H         1 <0>         0.1502
     36 H13         2.0243   -2.8976    4.3657 H         1 <0>         0.1496
     37 H14         3.7223   -4.5886    4.8448 H         1 <0>         0.1558
     38 H15         4.7590   -5.8851    3.0650 H         1 <0>         0.1623
     39 H16         5.6790   -7.3052   -0.6001 H         1 <0>         0.1677
     40 H17         5.7487   -7.6901   -3.0316 H         1 <0>         0.1653
     41 H18         2.7675   -4.6896   -3.6107 H         1 <0>         0.1565
     42 H19         1.9393   -3.6432   -2.0263 H         1 <0>         0.4255
     43 H20         4.9278   -6.3202    1.0333 H         1 <0>         0.4372
     44 H21        -0.9695   -0.3754   -0.0171 H         1 <0>         0.4310
@<TRIPOS>BOND
     1    1    2 1
     2    1   24 1
     3    1   25 1
     4    1   26 1
     5    2    7 1
     6    2    3 1
     7    2   44 1
     8    3    4 1
     9    3   27 1
    10    3   28 1
    11    4    5 1
    12    4   29 1
    13    4   30 1
    14    5    6 1
    15    5    8 1
    16    6    7 1
    17    6   31 1
    18    6   32 1
    19    7   33 1
    20    7   34 1
    21    8   22 1
    22    8    9 2
    23    9   14 ar
    24    9   10 ar
    25   10   11 ar
    26   10   35 1
    27   11   12 ar
    28   11   36 1
    29   12   13 ar
    30   12   37 1
    31   13   14 ar
    32   13   38 1
    33   14   15 2
    34   15   16 1
    35   15   43 1
    36   16   21 ar
    37   16   17 ar
    38   17   18 ar
    39   17   39 1
    40   18   19 ar
    41   18   40 1
    42   19   20 ar
    43   19   23 1
    44   20   21 ar
    45   20   41 1
    46   21   22 1
    47   22   42 1
@<TRIPOS>MOLECULE
ZINC19796155
   43    46     0     0     0
SMALL
USER_CHARGES

@<TRIPOS>ATOM
      1 C1         -0.0523    1.4387   -0.3863 C.3       1 <0>        -0.0469
      2 N1         -0.0147   -0.0168   -0.1908 N.4       1 <0>        -0.3852
      3 C2          0.4863   -0.6601   -1.4120 C.3       1 <0>        -0.0213
      4 C3          0.4181   -2.1823   -1.2510 C.3       1 <0>         0.1002
      5 N2          1.1441   -2.5548   -0.0269 N.pl3     1 <0>        -0.6180
      6 C4          0.8178   -1.8405    1.2170 C.3       1 <0>         0.0860
      7 C5          0.8671   -0.3344    0.9395 C.3       1 <0>        -0.0221
      8 C6          2.1017   -3.5432   -0.0451 C.2       1 <0>         0.5019
      9 N3          2.4234   -4.0210   -1.1951 N.2       1 <0>        -0.5760
     10 C7          3.3217   -5.0050   -1.4750 C.ar      1 <0>         0.1390
     11 C8          3.0096   -5.9522   -2.4541 C.ar      1 <0>        -0.0932
     12 C9          3.9229   -6.9340   -2.7877 C.ar      1 <0>        -0.0267
     13 C10         5.1529   -6.9852   -2.1572 C.ar      1 <0>        -0.1032
     14 C11         5.4673   -6.0631   -1.1730 C.ar      1 <0>        -0.1031
     15 C12         4.5533   -5.0871   -0.8155 C.ar      1 <0>         0.1235
     16 N4          4.8505   -4.2243    0.2524 N.pl3     1 <0>        -0.7273
     17 C13         4.0239   -4.2464    1.3765 C.ar      1 <0>         0.2173
     18 C14         2.6645   -3.9489    1.2520 C.ar      1 <0>        -0.1537
     19 C15         1.8414   -4.0345    2.3754 C.ar      1 <0>        -0.0841
     20 C16         2.3802   -4.3733    3.6007 C.ar      1 <0>        -0.1334
     21 C17         3.7349   -4.6261    3.7220 C.ar      1 <0>        -0.0692
     22 C18         4.5500   -4.5705    2.6174 C.ar      1 <0>        -0.1369
     23 Cl1         3.5248   -8.1083   -4.0027 Cl        1 <0>        -0.0551
     24 H1          0.9534    1.8033   -0.5956 H         1 <0>         0.1211
     25 H2         -0.7066    1.6758   -1.2253 H         1 <0>         0.1256
     26 H3         -0.4316    1.9169    0.5167 H         1 <0>         0.1252
     27 H4         -0.1269   -0.3565   -2.2605 H         1 <0>         0.1425
     28 H5          1.5196   -0.3587   -1.5839 H         1 <0>         0.1315
     29 H6         -0.6226   -2.4957   -1.1694 H         1 <0>         0.0898
     30 H7          0.8819   -2.6629   -2.1125 H         1 <0>         0.1431
     31 H8         -0.1827   -2.1194    1.5479 H         1 <0>         0.0960
     32 H9          1.5457   -2.0950    1.9873 H         1 <0>         0.1385
     33 H10         1.8889   -0.0428    0.6965 H         1 <0>         0.1320
     34 H11         0.5345    0.2092    1.8238 H         1 <0>         0.1439
     35 H12         2.0515   -5.9169   -2.9512 H         1 <0>         0.1396
     36 H13         5.8689   -7.7454   -2.4325 H         1 <0>         0.1422
     37 H14         6.4287   -6.1057   -0.6827 H         1 <0>         0.1382
     38 H15         5.6134   -3.6267    0.2096 H         1 <0>         0.4129
     39 H16         0.7836   -3.8354    2.2868 H         1 <0>         0.1314
     40 H17         1.7411   -4.4409    4.4686 H         1 <0>         0.1357
     41 H18         4.1512   -4.8742    4.6872 H         1 <0>         0.1370
     42 H19         5.6063   -4.7705    2.7202 H         1 <0>         0.1363
     43 H20        -0.9456   -0.3526    0.0057 H         1 <0>         0.4250
@<TRIPOS>BOND
     1    1    2 1
     2    1   24 1
     3    1   25 1
     4    1   26 1
     5    2    7 1
     6    2    3 1
     7    2   43 1
     8    3    4 1
     9    3   27 1
    10    3   28 1
    11    4    5 1
    12    4   29 1
    13    4   30 1
    14    5    6 1
    15    5    8 1
    16    6    7 1
    17    6   31 1
    18    6   32 1
    19    7   33 1
    20    7   34 1
    21    8   18 1
    22    8    9 2
    23    9   10 1
    24   10   15 ar
    25   10   11 ar
    26   11   12 ar
    27   11   35 1
    28   12   13 ar
    29   12   23 1
    30   13   14 ar
    31   13   36 1
    32   14   15 ar
    33   14   37 1
    34   15   16 1
    35   16   17 1
    36   16   38 1
    37   17   22 ar
    38   17   18 ar
    39   18   19 ar
    40   19   20 ar
    41   19   39 1
    42   20   21 ar
    43   20   40 1
    44   21   22 ar
    45   21   41 1
    46   22   42 1
@<TRIPOS>MOLECULE
ZINC01530741
   42    44     0     0     0
SMALL
USER_CHARGES

@<TRIPOS>ATOM
      1 C1         -0.0178    1.4648    0.0101 C.3       1 <0>        -0.0473
      2 N1          0.0021   -0.0041    0.0020 N.4       1 <0>        -0.5104
      3 C2         -1.3761   -0.5125    0.0124 C.3       1 <0>        -0.0075
      4 C3         -1.3553   -2.0424    0.0040 C.3       1 <0>        -0.1205
      5 C4         -2.7691   -2.5640    0.0147 C.2       1 <0>        -0.1701
      6 C5         -3.1759   -3.4141   -0.9354 C.2       1 <0>         0.0084
      7 C6         -2.2617   -3.8737   -2.0162 C.ar      1 <0>        -0.0603
      8 C7         -1.0502   -4.4584   -1.6510 C.ar      1 <0>        -0.1120
      9 C8         -0.1817   -4.9254   -2.6144 C.ar      1 <0>        -0.1225
     10 C9         -0.5309   -4.8091   -3.9481 C.ar      1 <0>        -0.1072
     11 C10        -1.7216   -4.2226   -4.3099 C.ar      1 <0>        -0.1263
     12 C11        -2.6129   -3.7258   -3.3561 C.ar      1 <0>        -0.0535
     13 C12        -3.8344   -3.0498   -3.9297 C.3       1 <0>        -0.0765
     14 C13        -4.7567   -2.4533   -2.8869 C.3       1 <0>        -0.0806
     15 C14        -5.3648   -3.4987   -1.9877 C.ar      1 <0>        -0.0737
     16 C15        -4.5615   -3.9515   -0.9605 C.ar      1 <0>        -0.0697
     17 C16        -5.0352   -4.8627   -0.0270 C.ar      1 <0>        -0.0955
     18 C17        -6.3272   -5.3414   -0.1696 C.ar      1 <0>        -0.1191
     19 C18        -7.1195   -4.9199   -1.2225 C.ar      1 <0>        -0.1080
     20 C19        -6.6408   -3.9814   -2.1491 C.ar      1 <0>        -0.1083
     21 H1          1.0047    1.8421    0.0024 H         1 <0>         0.1266
     22 H2         -0.5450    1.8259   -0.8730 H         1 <0>         0.1232
     23 H3         -0.5280    1.8163    0.9069 H         1 <0>         0.1239
     24 H4          0.4744   -0.3295   -0.8281 H         1 <0>         0.4301
     25 H5         -1.8863   -0.1610    0.9092 H         1 <0>         0.1332
     26 H6         -1.9033   -0.1515   -0.8706 H         1 <0>         0.1314
     27 H7         -0.8451   -2.3939   -0.8928 H         1 <0>         0.0991
     28 H8         -0.8281   -2.4035    0.8871 H         1 <0>         0.0962
     29 H9         -3.4541   -2.2517    0.7892 H         1 <0>         0.1310
     30 H10        -0.7900   -4.5458   -0.6065 H         1 <0>         0.1235
     31 H11         0.7582   -5.3762   -2.3319 H         1 <0>         0.1290
     32 H12         0.1367   -5.1814   -4.7112 H         1 <0>         0.1265
     33 H13        -1.9733   -4.1443   -5.3573 H         1 <0>         0.1247
     34 H14        -3.5084   -2.2546   -4.6003 H         1 <0>         0.0855
     35 H15        -4.3952   -3.7815   -4.5113 H         1 <0>         0.0834
     36 H16        -4.1905   -1.7497   -2.2766 H         1 <0>         0.0703
     37 H17        -5.5577   -1.9136   -3.3920 H         1 <0>         0.0793
     38 H18        -4.4114   -5.1904    0.7915 H         1 <0>         0.1267
     39 H19        -6.7188   -6.0491    0.5460 H         1 <0>         0.1278
     40 H20        -8.1181   -5.3161   -1.3327 H         1 <0>         0.1275
     41 H21        -7.2557   -3.6486   -2.9723 H         1 <0>         0.1315
     42 H22         0.4901   -0.3383    0.8195 H         1 <0>         0.4302
@<TRIPOS>BOND
     1    1    2 1
     2    1   21 1
     3    1   22 1
     4    1   23 1
     5    2    3 1
     6    2   24 1
     7    2   42 1
     8    3    4 1
     9    3   25 1
    10    3   26 1
    11    4    5 1
    12    4   27 1
    13    4   28 1
    14    5    6 2
    15    5   29 1
    16    6   16 1
    17    6    7 1
    18    7   12 ar
    19    7    8 ar
    20    8    9 ar
    21    8   30 1
    22    9   10 ar
    23    9   31 1
    24   10   11 ar
    25   10   32 1
    26   11   12 ar
    27   11   33 1
    28   12   13 1
    29   13   14 1
    30   13   34 1
    31   13   35 1
    32   14   15 1
    33   14   36 1
    34   14   37 1
    35   15   20 ar
    36   15   16 ar
    37   16   17 ar
    38   17   18 ar
    39   17   38 1
    40   18   19 ar
    41   18   39 1
    42   19   20 ar
    43   19   40 1
    44   20   41 1
@<TRIPOS>MOLECULE
ZINC00004448
   42    45     0     0     0
SMALL
USER_CHARGES

@<TRIPOS>ATOM
      1 C1         -0.4391   -3.3377    1.8722 C.3       1 <0>        -0.1123
      2 C2         -0.1697   -2.2466    0.8683 C.cat     1 <0>         0.2989
      3 N1         -0.0089   -2.4170   -0.4155 N.pl3     1 <0>        -0.4743
      4 C3          0.2118   -1.2278   -0.9953 C.2       1 <0>        -0.0131
      5 C4          0.1869   -0.2847   -0.0343 C.2       1 <0>         0.0706
      6 N2         -0.0604   -0.9298    1.1473 N.pl3     1 <0>        -0.3998
      7 C5         -0.1811   -0.3082    2.4684 C.3       1 <0>         0.1079
      8 C6         -1.6568   -0.2375    2.8660 C.3       1 <0>        -0.1546
      9 H1         -2.1022   -1.2287    2.7806 H         1 <0>         0.1154
     10 C7         -1.7700    0.2464    4.3115 C.3       1 <0>        -0.1029
     11 C8         -3.2416    0.3294    4.7350 C.3       1 <0>        -0.0678
     12 C9         -3.9618    1.2252    3.7555 C.2       1 <0>         0.1597
     13 C10        -3.5215    1.3875    2.4463 C.2       1 <0>        -0.2921
     14 C11        -4.4444    2.3149    1.8134 C.ar      1 <0>        -0.0463
     15 C12        -4.5189    2.8565    0.5307 C.ar      1 <0>        -0.0763
     16 C13        -5.5626    3.7304    0.2795 C.ar      1 <0>        -0.1250
     17 C14        -6.4928    4.0558    1.2516 C.ar      1 <0>        -0.1030
     18 C15        -6.4370    3.5295    2.5307 C.ar      1 <0>        -0.1113
     19 C16        -5.3960    2.6468    2.8098 C.ar      1 <0>         0.0678
     20 N3         -5.0642    1.9669    3.9526 N.pl3     1 <0>        -0.4390
     21 C17        -5.8081    2.0387    5.2127 C.3       1 <0>         0.0582
     22 C18        -2.3800    0.7188    1.9432 C.2       1 <0>         0.4331
     23 O1         -1.9955    0.9054    0.8069 O.2       1 <0>        -0.4805
     24 H2         -1.5134   -3.4249    2.0346 H         1 <0>         0.1174
     25 H3         -0.0509   -4.2834    1.4940 H         1 <0>         0.1154
     26 H4          0.0521   -3.0941    2.8143 H         1 <0>         0.1145
     27 H5          0.3800   -1.0566   -2.0483 H         1 <0>         0.2213
     28 H6          0.3302    0.7771   -0.1704 H         1 <0>         0.2190
     29 H7          0.3645   -0.9030    3.2010 H         1 <0>         0.1257
     30 H8          0.2350    0.6987    2.4355 H         1 <0>         0.1281
     31 H9         -1.2451   -0.4489    4.9665 H         1 <0>         0.0978
     32 H10        -1.3139    1.2326    4.3982 H         1 <0>         0.0859
     33 H11        -3.6859   -0.6659    4.7191 H         1 <0>         0.1031
     34 H12        -3.3127    0.7488    5.7386 H         1 <0>         0.1005
     35 H13        -3.7956    2.6061   -0.2312 H         1 <0>         0.1359
     36 H14        -5.6535    4.1710   -0.7023 H         1 <0>         0.1265
     37 H15        -7.2882    4.7431    1.0040 H         1 <0>         0.1296
     38 H16        -7.1689    3.7920    3.2802 H         1 <0>         0.1330
     39 H17        -5.4075    2.8462    5.8256 H         1 <0>         0.0854
     40 H18        -6.8605    2.2295    5.0030 H         1 <0>         0.0945
     41 H19        -5.7096    1.0938    5.7471 H         1 <0>         0.0927
     42 H20        -0.0436   -3.2691   -0.8775 H         1 <0>         0.4603
@<TRIPOS>BOND
     1    1    2 1
     2    1   24 1
     3    1   25 1
     4    1   26 1
     5    2    6 1
     6    2    3 2
     7    3    4 1
     8    3   42 1
     9    4    5 2
    10    4   27 1
    11    5    6 1
    12    5   28 1
    13    6    7 1
    14    7    8 1
    15    7   29 1
    16    7   30 1
    17    8    9 1
    18    8   22 1
    19    8   10 1
    20   10   11 1
    21   10   31 1
    22   10   32 1
    23   11   12 1
    24   11   33 1
    25   11   34 1
    26   12   20 1
    27   12   13 2
    28   13   14 1
    29   13   22 1
    30   14   19 ar
    31   14   15 ar
    32   15   16 ar
    33   15   35 1
    34   16   17 ar
    35   16   36 1
    36   17   18 ar
    37   17   37 1
    38   18   19 ar
    39   18   38 1
    40   19   20 1
    41   20   21 1
    42   21   39 1
    43   21   40 1
    44   21   41 1
    45   22   23 2
@<TRIPOS>MOLECULE
ZINC00004448
   41    44     0     0     0
SMALL
USER_CHARGES

@<TRIPOS>ATOM
      1 C1         -0.4391   -3.3377    1.8722 C.3       1 <0>        -0.0665
      2 C2         -0.1697   -2.2466    0.8683 C.2       1 <0>         0.1894
      3 N1         -0.0089   -2.4170   -0.4155 N.2       1 <0>        -0.4892
      4 C3          0.2118   -1.2278   -0.9953 C.2       1 <0>        -0.0442
      5 C4          0.1868   -0.2847   -0.0343 C.2       1 <0>        -0.0089
      6 N2         -0.0604   -0.9298    1.1473 N.pl3     1 <0>        -0.4502
      7 C5         -0.1811   -0.3082    2.4684 C.3       1 <0>         0.1208
      8 C6         -1.6568   -0.2375    2.8660 C.3       1 <0>        -0.1505
      9 H1         -2.1022   -1.2287    2.7806 H         1 <0>         0.1106
     10 C7         -1.7700    0.2464    4.3115 C.3       1 <0>        -0.1021
     11 C8         -3.2416    0.3294    4.7350 C.3       1 <0>        -0.0641
     12 C9         -3.9618    1.2252    3.7555 C.2       1 <0>         0.1486
     13 C10        -3.5215    1.3875    2.4463 C.2       1 <0>        -0.2760
     14 C11        -4.4444    2.3149    1.8134 C.ar      1 <0>        -0.0490
     15 C12        -4.5189    2.8565    0.5307 C.ar      1 <0>        -0.0694
     16 C13        -5.5626    3.7304    0.2795 C.ar      1 <0>        -0.1333
     17 C14        -6.4928    4.0558    1.2516 C.ar      1 <0>        -0.1057
     18 C15        -6.4370    3.5295    2.5307 C.ar      1 <0>        -0.1186
     19 C16        -5.3960    2.6468    2.8098 C.ar      1 <0>         0.0711
     20 N3         -5.0642    1.9669    3.9526 N.pl3     1 <0>        -0.4472
     21 C17        -5.8081    2.0387    5.2127 C.3       1 <0>         0.0636
     22 C18        -2.3800    0.7188    1.9432 C.2       1 <0>         0.4253
     23 O1         -1.9955    0.9054    0.8069 O.2       1 <0>        -0.4537
     24 H2         -1.5134   -3.4248    2.0346 H         1 <0>         0.0742
     25 H3         -0.0510   -4.2834    1.4939 H         1 <0>         0.0891
     26 H4          0.0522   -3.0941    2.8143 H         1 <0>         0.0704
     27 H5          0.3800   -1.0566   -2.0483 H         1 <0>         0.1656
     28 H6          0.3302    0.7771   -0.1704 H         1 <0>         0.1690
     29 H7          0.3645   -0.9030    3.2010 H         1 <0>         0.0973
     30 H8          0.2350    0.6987    2.4355 H         1 <0>         0.0958
     31 H9         -1.2451   -0.4489    4.9665 H         1 <0>         0.0916
     32 H10        -1.3139    1.2326    4.3982 H         1 <0>         0.0786
     33 H11        -3.6859   -0.6659    4.7191 H         1 <0>         0.0996
     34 H12        -3.3127    0.7488    5.7386 H         1 <0>         0.0928
     35 H13        -3.7956    2.6061   -0.2312 H         1 <0>         0.1375
     36 H14        -5.6535    4.1710   -0.7023 H         1 <0>         0.1236
     37 H15        -7.2882    4.7431    1.0040 H         1 <0>         0.1251
     38 H16        -7.1689    3.7920    3.2802 H         1 <0>         0.1289
     39 H17        -5.4075    2.8462    5.8256 H         1 <0>         0.0801
     40 H18        -6.8605    2.2295    5.0030 H         1 <0>         0.0900
     41 H19        -5.7096    1.0938    5.7471 H         1 <0>         0.0899
@<TRIPOS>BOND
     1    1    2 1
     2    1   24 1
     3    1   25 1
     4    1   26 1
     5    2    6 1
     6    2    3 2
     7    3    4 1
     8    4    5 2
     9    4   27 1
    10    5    6 1
    11    5   28 1
    12    6    7 1
    13    7    8 1
    14    7   29 1
    15    7   30 1
    16    8    9 1
    17    8   22 1
    18    8   10 1
    19   10   11 1
    20   10   31 1
    21   10   32 1
    22   11   12 1
    23   11   33 1
    24   11   34 1
    25   12   20 1
    26   12   13 2
    27   13   14 1
    28   13   22 1
    29   14   19 ar
    30   14   15 ar
    31   15   16 ar
    32   15   35 1
    33   16   17 ar
    34   16   36 1
    35   17   18 ar
    36   17   37 1
    37   18   19 ar
    38   18   38 1
    39   19   20 1
    40   20   21 1
    41   21   39 1
    42   21   40 1
    43   21   41 1
    44   22   23 2
@<TRIPOS>MOLECULE
ZINC00075126
   42    45     0     0     0
SMALL
USER_CHARGES

@<TRIPOS>ATOM
      1 C1         -0.0184    1.5028    0.0103 C.3       1 <0>        -0.1124
      2 C2          0.0021   -0.0041    0.0020 C.cat     1 <0>         0.2979
      3 N1          0.0080   -0.7588   -1.0626 N.pl3     1 <0>        -0.4737
      4 C3          0.0275   -2.0475   -0.6911 C.2       1 <0>        -0.0205
      5 C4          0.0339   -2.0930    0.6548 C.2       1 <0>         0.0808
      6 N2          0.0232   -0.7970    1.0950 N.pl3     1 <0>        -0.4033
      7 C5          0.0304   -0.3529    2.4910 C.3       1 <0>         0.1075
      8 C6         -1.4059   -0.0982    2.9525 C.3       1 <0>        -0.1549
      9 H1         -1.8841    0.6077    2.2734 H         1 <0>         0.1159
     10 C7         -1.3885    0.4885    4.3640 C.3       1 <0>        -0.1033
     11 C8         -2.8183    0.7509    4.8527 C.3       1 <0>        -0.0678
     12 C9         -3.5900   -0.5440    4.7622 C.2       1 <0>         0.1608
     13 C10        -3.2525   -1.5391    3.8511 C.2       1 <0>        -0.2929
     14 C11        -4.1973   -2.6242    4.0575 C.ar      1 <0>        -0.0457
     15 C12        -4.3599   -3.8715    3.4560 C.ar      1 <0>        -0.0764
     16 C13        -5.3958   -4.6619    3.9235 C.ar      1 <0>        -0.1247
     17 C14        -6.2353   -4.2398    4.9399 C.ar      1 <0>        -0.1031
     18 C15        -6.0913   -3.0056    5.5500 C.ar      1 <0>        -0.1109
     19 C16        -5.0557   -2.1905    5.0985 C.ar      1 <0>         0.0674
     20 N3         -4.6518   -0.9388    5.4840 N.pl3     1 <0>        -0.4386
     21 C17        -5.2885   -0.1432    6.5366 C.3       1 <0>         0.0582
     22 C18        -2.1743   -1.4014    2.9445 C.2       1 <0>         0.4351
     23 O1         -1.8781   -2.2996    2.1833 O.2       1 <0>        -0.4834
     24 H2          1.0042    1.8801    0.0026 H         1 <0>         0.1202
     25 H3         -0.5455    1.8639   -0.8728 H         1 <0>         0.1154
     26 H4         -0.5286    1.8543    0.9071 H         1 <0>         0.1111
     27 H5          0.0365   -2.8993   -1.3550 H         1 <0>         0.2206
     28 H6          0.0489   -2.9814    1.2688 H         1 <0>         0.2208
     29 H7          0.4812   -1.1244    3.1154 H         1 <0>         0.1274
     30 H8          0.6082    0.5674    2.5767 H         1 <0>         0.1264
     31 H9         -0.8997   -0.2132    5.0399 H         1 <0>         0.0860
     32 H10        -0.8320    1.4257    4.3579 H         1 <0>         0.0979
     33 H11        -2.7965    1.0950    5.8867 H         1 <0>         0.1003
     34 H12        -3.2899    1.5053    4.2230 H         1 <0>         0.1037
     35 H13        -3.7083   -4.2053    2.6621 H         1 <0>         0.1362
     36 H14        -5.5535   -5.6351    3.4825 H         1 <0>         0.1266
     37 H15        -7.0290   -4.8948    5.2675 H         1 <0>         0.1297
     38 H16        -6.7537   -2.6880    6.3417 H         1 <0>         0.1330
     39 H17        -6.0755    0.4723    6.1009 H         1 <0>         0.0853
     40 H18        -5.7197   -0.8087    7.2844 H         1 <0>         0.0946
     41 H19        -4.5439    0.4986    7.0075 H         1 <0>         0.0930
     42 H20        -0.0004   -0.4384   -1.9781 H         1 <0>         0.4599
@<TRIPOS>BOND
     1    1    2 1
     2    1   24 1
     3    1   25 1
     4    1   26 1
     5    2    6 1
     6    2    3 2
     7    3    4 1
     8    3   42 1
     9    4    5 2
    10    4   27 1
    11    5    6 1
    12    5   28 1
    13    6    7 1
    14    7    8 1
    15    7   29 1
    16    7   30 1
    17    8    9 1
    18    8   22 1
    19    8   10 1
    20   10   11 1
    21   10   31 1
    22   10   32 1
    23   11   12 1
    24   11   33 1
    25   11   34 1
    26   12   20 1
    27   12   13 2
    28   13   14 1
    29   13   22 1
    30   14   19 ar
    31   14   15 ar
    32   15   16 ar
    33   15   35 1
    34   16   17 ar
    35   16   36 1
    36   17   18 ar
    37   17   37 1
    38   18   19 ar
    39   18   38 1
    40   19   20 1
    41   20   21 1
    42   21   39 1
    43   21   40 1
    44   21   41 1
    45   22   23 2
@<TRIPOS>MOLECULE
ZINC00075126
   41    44     0     0     0
SMALL
USER_CHARGES

@<TRIPOS>ATOM
      1 C1         -0.0184    1.5028    0.0103 C.3       1 <0>        -0.0661
      2 C2          0.0021   -0.0041    0.0020 C.2       1 <0>         0.1869
      3 N1          0.0080   -0.7588   -1.0626 N.2       1 <0>        -0.4889
      4 C3          0.0275   -2.0475   -0.6911 C.2       1 <0>        -0.0505
      5 C4          0.0339   -2.0930    0.6548 C.2       1 <0>         0.0014
      6 N2          0.0232   -0.7970    1.0950 N.pl3     1 <0>        -0.4534
      7 C5          0.0304   -0.3529    2.4910 C.3       1 <0>         0.1206
      8 C6         -1.4059   -0.0982    2.9525 C.3       1 <0>        -0.1509
      9 H1         -1.8841    0.6077    2.2734 H         1 <0>         0.1102
     10 C7         -1.3885    0.4885    4.3640 C.3       1 <0>        -0.1025
     11 C8         -2.8183    0.7509    4.8527 C.3       1 <0>        -0.0640
     12 C9         -3.5900   -0.5440    4.7622 C.2       1 <0>         0.1489
     13 C10        -3.2525   -1.5391    3.8511 C.2       1 <0>        -0.2766
     14 C11        -4.1973   -2.6242    4.0575 C.ar      1 <0>        -0.0486
     15 C12        -4.3599   -3.8715    3.4560 C.ar      1 <0>        -0.0694
     16 C13        -5.3958   -4.6619    3.9235 C.ar      1 <0>        -0.1332
     17 C14        -6.2353   -4.2398    4.9399 C.ar      1 <0>        -0.1059
     18 C15        -6.0913   -3.0056    5.5500 C.ar      1 <0>        -0.1184
     19 C16        -5.0557   -2.1905    5.0985 C.ar      1 <0>         0.0708
     20 N3         -4.6518   -0.9388    5.4840 N.pl3     1 <0>        -0.4469
     21 C17        -5.2885   -0.1432    6.5366 C.3       1 <0>         0.0636
     22 C18        -2.1743   -1.4014    2.9445 C.2       1 <0>         0.4259
     23 O1         -1.8781   -2.2996    2.1833 O.2       1 <0>        -0.4545
     24 H2          1.0042    1.8801    0.0026 H         1 <0>         0.0774
     25 H3         -0.5455    1.8639   -0.8728 H         1 <0>         0.0878
     26 H4         -0.5286    1.8543    0.9071 H         1 <0>         0.0677
     27 H5          0.0365   -2.8993   -1.3550 H         1 <0>         0.1650
     28 H6          0.0489   -2.9814    1.2688 H         1 <0>         0.1714
     29 H7          0.4812   -1.1244    3.1154 H         1 <0>         0.0947
     30 H8          0.6082    0.5674    2.5767 H         1 <0>         0.0991
     31 H9         -0.8997   -0.2132    5.0399 H         1 <0>         0.0787
     32 H10        -0.8320    1.4257    4.3579 H         1 <0>         0.0916
     33 H11        -2.7965    1.0950    5.8867 H         1 <0>         0.0925
     34 H12        -3.2899    1.5053    4.2230 H         1 <0>         0.0998
     35 H13        -3.7083   -4.2053    2.6621 H         1 <0>         0.1378
     36 H14        -5.5535   -5.6351    3.4825 H         1 <0>         0.1237
     37 H15        -7.0290   -4.8948    5.2675 H         1 <0>         0.1251
     38 H16        -6.7537   -2.6880    6.3417 H         1 <0>         0.1289
     39 H17        -6.0755    0.4723    6.1009 H         1 <0>         0.0805
     40 H18        -5.7197   -0.8087    7.2844 H         1 <0>         0.0898
     41 H19        -4.5439    0.4986    7.0075 H         1 <0>         0.0898
@<TRIPOS>BOND
     1    1    2 1
     2    1   24 1
     3    1   25 1
     4    1   26 1
     5    2    6 1
     6    2    3 2
     7    3    4 1
     8    4    5 2
     9    4   27 1
    10    5    6 1
    11    5   28 1
    12    6    7 1
    13    7    8 1
    14    7   29 1
    15    7   30 1
    16    8    9 1
    17    8   22 1
    18    8   10 1
    19   10   11 1
    20   10   31 1
    21   10   32 1
    22   11   12 1
    23   11   33 1
    24   11   34 1
    25   12   20 1
    26   12   13 2
    27   13   14 1
    28   13   22 1
    29   14   19 ar
    30   14   15 ar
    31   15   16 ar
    32   15   35 1
    33   16   17 ar
    34   16   36 1
    35   17   18 ar
    36   17   37 1
    37   18   19 ar
    38   18   38 1
    39   19   20 1
    40   20   21 1
    41   21   39 1
    42   21   40 1
    43   21   41 1
    44   22   23 2
@<TRIPOS>MOLECULE
ZINC01530695
   52    55     0     0     0
SMALL
USER_CHARGES

@<TRIPOS>ATOM
      1 C1         -1.1433    3.8527    2.8784 C.3       1 <0>        -0.0541
      2 N1         -1.4072    3.2632    1.5590 N.4       1 <0>        -0.3810
      3 C2         -2.7176    2.6020    1.5734 C.3       1 <0>        -0.0065
      4 C3         -3.0331    2.0563    0.1791 C.3       1 <0>        -0.1473
      5 C4         -1.9545    1.0467   -0.2240 C.3       1 <0>        -0.1369
      6 C5         -0.5840    1.7272   -0.1636 C.3       1 <0>        -0.1460
      7 C6         -0.3592    2.2851    1.2434 C.3       1 <0>         0.0311
      8 H1         -0.3936    1.4703    1.9666 H         1 <0>         0.1391
      9 C7          1.0094    2.9660    1.3087 C.3       1 <0>        -0.1818
     10 C8          2.1091    1.9201    1.1151 C.3       1 <0>         0.1200
     11 N2          3.4204    2.5646    1.2225 N.pl3     1 <0>        -0.5620
     12 C9          4.0139    2.6094    2.4812 C.ar      1 <0>         0.1850
     13 C10         3.2033    2.5259    3.6086 C.ar      1 <0>        -0.1649
     14 C11         3.7597    2.5612    4.8729 C.ar      1 <0>        -0.0801
     15 C12         5.1280    2.6793    5.0277 C.ar      1 <0>        -0.1283
     16 C13         5.9435    2.7651    3.9143 C.ar      1 <0>        -0.0543
     17 C14         5.3912    2.7328    2.6416 C.ar      1 <0>        -0.1487
     18 S1          6.4447    2.8536    1.2352 S.3       1 <0>         0.0334
     19 C15         5.3514    3.2711   -0.0815 C.ar      1 <0>        -0.1560
     20 C16         3.9807    3.0807    0.0571 C.ar      1 <0>         0.2073
     21 C17         3.1391    3.4181   -0.9969 C.ar      1 <0>        -0.1491
     22 C18         3.6637    3.9309   -2.1755 C.ar      1 <0>        -0.0444
     23 C19         5.0342    4.1090   -2.3068 C.ar      1 <0>        -0.1462
     24 C20         5.8696    3.7867   -1.2603 C.ar      1 <0>        -0.0333
     25 S2          2.5893    4.3553   -3.5060 S.3       1 <0>        -0.1137
     26 C21         3.7086    4.9669   -4.7959 C.3       1 <0>        -0.1435
     27 H2         -0.2348    4.4533    2.8329 H         1 <0>         0.1242
     28 H3         -1.9826    4.4850    3.1683 H         1 <0>         0.1268
     29 H4         -1.0168    3.0575    3.6130 H         1 <0>         0.1229
     30 H5         -2.7016    1.7804    2.2896 H         1 <0>         0.1285
     31 H6         -3.4837    3.3210    1.8636 H         1 <0>         0.1318
     32 H7         -4.0056    1.5642    0.1923 H         1 <0>         0.1132
     33 H8         -3.0495    2.8771   -0.5379 H         1 <0>         0.0884
     34 H9         -1.9720    0.2007    0.4631 H         1 <0>         0.0824
     35 H10        -2.1435    0.6972   -1.2391 H         1 <0>         0.0966
     36 H11         0.1941    0.9999   -0.3954 H         1 <0>         0.1125
     37 H12        -0.5496    2.5412   -0.8877 H         1 <0>         0.0914
     38 H13         1.0795    3.7170    0.5218 H         1 <0>         0.0979
     39 H14         1.1307    3.4453    2.2802 H         1 <0>         0.0990
     40 H15         2.0183    1.1511    1.8823 H         1 <0>         0.0959
     41 H16         2.0078    1.4644    0.1302 H         1 <0>         0.0961
     42 H17         2.1332    2.4333    3.4951 H         1 <0>         0.1224
     43 H18         3.1233    2.4958    5.7430 H         1 <0>         0.1320
     44 H19         5.5598    2.7050    6.0173 H         1 <0>         0.1363
     45 H20         7.0127    2.8577    4.0355 H         1 <0>         0.1381
     46 H21         2.0724    3.2810   -0.8981 H         1 <0>         0.1306
     47 H22         5.4429    4.5065   -3.2241 H         1 <0>         0.1358
     48 H23         6.9356    3.9267   -1.3633 H         1 <0>         0.1409
     49 H24         4.4111    4.1800   -5.0704 H         1 <0>         0.0900
     50 H25         3.1288    5.2582   -5.6718 H         1 <0>         0.1152
     51 H26         4.2583    5.8301   -4.4206 H         1 <0>         0.0894
     52 H27        -1.4078    3.9913    0.8605 H         1 <0>         0.4234
@<TRIPOS>BOND
     1    1    2 1
     2    1   27 1
     3    1   28 1
     4    1   29 1
     5    2    7 1
     6    2    3 1
     7    2   52 1
     8    3    4 1
     9    3   30 1
    10    3   31 1
    11    4    5 1
    12    4   32 1
    13    4   33 1
    14    5    6 1
    15    5   34 1
    16    5   35 1
    17    6    7 1
    18    6   36 1
    19    6   37 1
    20    7    8 1
    21    7    9 1
    22    9   10 1
    23    9   38 1
    24    9   39 1
    25   10   11 1
    26   10   40 1
    27   10   41 1
    28   11   20 1
    29   11   12 1
    30   12   17 ar
    31   12   13 ar
    32   13   14 ar
    33   13   42 1
    34   14   15 ar
    35   14   43 1
    36   15   16 ar
    37   15   44 1
    38   16   17 ar
    39   16   45 1
    40   17   18 1
    41   18   19 1
    42   19   24 ar
    43   19   20 ar
    44   20   21 ar
    45   21   22 ar
    46   21   46 1
    47   22   23 ar
    48   22   25 1
    49   23   24 ar
    50   23   47 1
    51   24   48 1
    52   25   26 1
    53   26   49 1
    54   26   50 1
    55   26   51 1
@<TRIPOS>MOLECULE
ZINC01530697
   52    55     0     0     0
SMALL
USER_CHARGES

@<TRIPOS>ATOM
      1 C1          3.1751    3.9957    0.6546 C.3       1 <0>        -0.0543
      2 N1          2.2566    3.2865   -0.2461 N.4       1 <0>        -0.3805
      3 C2          2.9839    2.8604   -1.4478 C.3       1 <0>        -0.0069
      4 C3          2.0144    2.1926   -2.4254 C.3       1 <0>        -0.1470
      5 C4          1.3787    0.9728   -1.7522 C.3       1 <0>        -0.1373
      6 C5          0.6861    1.4179   -0.4609 C.3       1 <0>        -0.1459
      7 C6          1.7047    2.1144    0.4439 C.3       1 <0>         0.0306
      8 H1          2.5112    1.4212    0.6833 H         1 <0>         0.1397
      9 C7          1.0172    2.5607    1.7358 C.3       1 <0>        -0.1811
     10 C8          0.5179    1.3320    2.4986 C.3       1 <0>         0.1193
     11 N2         -0.2067    1.7623    3.6969 N.pl3     1 <0>        -0.5619
     12 C9         -1.5768    1.9795    3.5767 C.ar      1 <0>         0.1847
     13 C10        -2.1019    2.2735    2.3225 C.ar      1 <0>        -0.1647
     14 C11        -3.4579    2.4889    2.1663 C.ar      1 <0>        -0.0800
     15 C12        -4.3044    2.4133    3.2562 C.ar      1 <0>        -0.1280
     16 C13        -3.7934    2.1236    4.5080 C.ar      1 <0>        -0.0546
     17 C14        -2.4323    1.9087    4.6726 C.ar      1 <0>        -0.1489
     18 S1         -1.7980    1.5511    6.2764 S.3       1 <0>         0.0335
     19 C15        -0.0680    1.8478    6.1263 C.ar      1 <0>        -0.1558
     20 C16         0.5259    1.9174    4.8706 C.ar      1 <0>         0.2078
     21 C17         1.8931    2.1526    4.7792 C.ar      1 <0>        -0.1492
     22 C18         2.6556    2.3074    5.9289 C.ar      1 <0>        -0.0444
     23 C19         2.0545    2.2277    7.1777 C.ar      1 <0>        -0.1462
     24 C20         0.6983    2.0065    7.2715 C.ar      1 <0>        -0.0330
     25 S2          4.3878    2.6049    5.8031 S.3       1 <0>        -0.1153
     26 C21         4.9372    2.7342    7.5270 C.3       1 <0>        -0.1430
     27 H2          3.9104    3.2946    1.0493 H         1 <0>         0.1239
     28 H3          3.6855    4.7861    0.1044 H         1 <0>         0.1271
     29 H4          2.6108    4.4326    1.4786 H         1 <0>         0.1242
     30 H5          3.4384    3.7292   -1.9240 H         1 <0>         0.1320
     31 H6          3.7630    2.1513   -1.1681 H         1 <0>         0.1290
     32 H7          1.2349    2.9009   -2.7060 H         1 <0>         0.0879
     33 H8          2.5567    1.8754   -3.3161 H         1 <0>         0.1132
     34 H9          0.6455    0.5266   -2.4240 H         1 <0>         0.0963
     35 H10         2.1522    0.2416   -1.5175 H         1 <0>         0.0830
     36 H11        -0.1210    2.1101   -0.7007 H         1 <0>         0.0904
     37 H12         0.2788    0.5468    0.0525 H         1 <0>         0.1129
     38 H13         1.7276    3.1088    2.3548 H         1 <0>         0.0984
     39 H14         0.1728    3.2060    1.4937 H         1 <0>         0.0981
     40 H15        -0.1486    0.7534    1.8590 H         1 <0>         0.0974
     41 H16         1.3680    0.7151    2.7900 H         1 <0>         0.0952
     42 H17        -1.4463    2.3341    1.4664 H         1 <0>         0.1242
     43 H18        -3.8576    2.7167    1.1892 H         1 <0>         0.1322
     44 H19        -5.3639    2.5805    3.1303 H         1 <0>         0.1363
     45 H20        -4.4550    2.0649    5.3596 H         1 <0>         0.1380
     46 H21         2.3641    2.2154    3.8093 H         1 <0>         0.1289
     47 H22         2.6474    2.3466    8.0724 H         1 <0>         0.1358
     48 H23         0.2315    1.9456    8.2436 H         1 <0>         0.1410
     49 H24         4.7172    1.8031    8.0493 H         1 <0>         0.0901
     50 H25         6.0108    2.9206    7.5532 H         1 <0>         0.1152
     51 H26         4.4136    3.5566    8.0145 H         1 <0>         0.0895
     52 H27         1.5043    3.9040   -0.5121 H         1 <0>         0.4225
@<TRIPOS>BOND
     1    1    2 1
     2    1   27 1
     3    1   28 1
     4    1   29 1
     5    2    7 1
     6    2    3 1
     7    2   52 1
     8    3    4 1
     9    3   30 1
    10    3   31 1
    11    4    5 1
    12    4   32 1
    13    4   33 1
    14    5    6 1
    15    5   34 1
    16    5   35 1
    17    6    7 1
    18    6   36 1
    19    6   37 1
    20    7    8 1
    21    7    9 1
    22    9   10 1
    23    9   38 1
    24    9   39 1
    25   10   11 1
    26   10   40 1
    27   10   41 1
    28   11   20 1
    29   11   12 1
    30   12   17 ar
    31   12   13 ar
    32   13   14 ar
    33   13   42 1
    34   14   15 ar
    35   14   43 1
    36   15   16 ar
    37   15   44 1
    38   16   17 ar
    39   16   45 1
    40   17   18 1
    41   18   19 1
    42   19   24 ar
    43   19   20 ar
    44   20   21 ar
    45   21   22 ar
    46   21   46 1
    47   22   23 ar
    48   22   25 1
    49   23   24 ar
    50   23   47 1
    51   24   48 1
    52   25   26 1
    53   26   49 1
    54   26   50 1
    55   26   51 1
@<TRIPOS>MOLECULE
ZINC00113404
   39    40     0     0     0
SMALL
USER_CHARGES

@<TRIPOS>ATOM
      1 C1         -0.0539    1.4704    0.2993 C.3       1 <0>        -0.0478
      2 N1         -0.0295    0.0017    0.2882 N.4       1 <0>        -0.3865
      3 C2          0.5604   -0.4878    1.5413 C.3       1 <0>        -0.0539
      4 C3         -1.4006   -0.5099    0.1598 C.3       1 <0>        -0.0122
      5 C4         -1.3658   -2.0333    0.0229 C.3       1 <0>        -0.1440
      6 C5         -2.7938   -2.5661   -0.1108 C.3       1 <0>         0.0157
      7 H1         -3.3915   -2.2191    0.7321 H         1 <0>         0.1104
      8 C6         -3.3990   -2.0640   -1.3963 C.ar      1 <0>        -0.0932
      9 C7         -2.7600   -2.2998   -2.5992 C.ar      1 <0>        -0.1051
     10 C8         -3.3146   -1.8395   -3.7786 C.ar      1 <0>        -0.1071
     11 C9         -4.5095   -1.1427   -3.7551 C.ar      1 <0>        -0.0289
     12 C10        -5.1487   -0.9070   -2.5509 C.ar      1 <0>        -0.1048
     13 C11        -4.5960   -1.3727   -1.3727 C.ar      1 <0>        -0.0921
     14 Cl1        -5.2065   -0.5637   -5.2359 Cl        1 <0>        -0.0542
     15 C12        -2.7688   -4.0729   -0.1222 C.ar      1 <0>         0.1268
     16 C13        -1.7220   -4.7341   -0.7368 C.ar      1 <0>        -0.1747
     17 C14        -1.7085   -6.1203   -0.7417 C.ar      1 <0>        -0.0683
     18 C15        -2.7531   -6.7927   -0.1256 C.ar      1 <0>        -0.1649
     19 C16        -3.7656   -6.0639    0.4686 C.ar      1 <0>         0.1108
     20 N2         -3.7430   -4.7452    0.4587 N.ar      1 <0>        -0.4759
     21 H2          0.9634    1.8500    0.3946 H         1 <0>         0.1253
     22 H3         -0.4917    1.8336   -0.6305 H         1 <0>         0.1237
     23 H4         -0.6516    1.8175    1.1422 H         1 <0>         0.1229
     24 H5          1.5778   -0.1083    1.6365 H         1 <0>         0.1253
     25 H6         -0.0372   -0.1408    2.3842 H         1 <0>         0.1237
     26 H7          0.5785   -1.5776    1.5330 H         1 <0>         0.1240
     27 H8         -1.9744   -0.2377    1.0458 H         1 <0>         0.1344
     28 H9         -1.8690   -0.0763   -0.7237 H         1 <0>         0.1343
     29 H10        -0.7921   -2.3055   -0.8630 H         1 <0>         0.0938
     30 H11        -0.8974   -2.4670    0.9064 H         1 <0>         0.0978
     31 H12        -1.8270   -2.8434   -2.6175 H         1 <0>         0.1295
     32 H13        -2.8150   -2.0234   -4.7183 H         1 <0>         0.1376
     33 H14        -6.0814   -0.3628   -2.5319 H         1 <0>         0.1397
     34 H15        -5.0972   -1.1929   -0.4331 H         1 <0>         0.1368
     35 H16        -0.9248   -4.1778   -1.2074 H         1 <0>         0.1305
     36 H17        -0.9037   -6.6636   -1.2144 H         1 <0>         0.1392
     37 H18        -2.7752   -7.8723   -0.1106 H         1 <0>         0.1419
     38 H19        -4.5828   -6.5800    0.9505 H         1 <0>         0.1628
     39 H20         0.5237   -0.3196   -0.4921 H         1 <0>         0.4265
@<TRIPOS>BOND
     1    1    2 1
     2    1   21 1
     3    1   22 1
     4    1   23 1
     5    2    3 1
     6    2    4 1
     7    2   39 1
     8    3   24 1
     9    3   25 1
    10    3   26 1
    11    4    5 1
    12    4   27 1
    13    4   28 1
    14    5    6 1
    15    5   29 1
    16    5   30 1
    17    6    7 1
    18    6    8 1
    19    6   15 1
    20    8   13 ar
    21    8    9 ar
    22    9   10 ar
    23    9   31 1
    24   10   11 ar
    25   10   32 1
    26   11   12 ar
    27   11   14 1
    28   12   13 ar
    29   12   33 1
    30   13   34 1
    31   15   20 ar
    32   15   16 ar
    33   16   17 ar
    34   16   35 1
    35   17   18 ar
    36   17   36 1
    37   18   19 ar
    38   18   37 1
    39   19   20 ar
    40   19   38 1
@<TRIPOS>MOLECULE
ZINC00113410
   39    40     0     0     0
SMALL
USER_CHARGES

@<TRIPOS>ATOM
      1 C1          0.1393    1.3034   -0.7375 C.3       1 <0>        -0.0477
      2 N1          0.0864   -0.1636   -0.6820 N.4       1 <0>        -0.3864
      3 C2          1.0003   -0.6474    0.3614 C.3       1 <0>        -0.0540
      4 C3         -1.2835   -0.5928   -0.3705 C.3       1 <0>        -0.0137
      5 C4         -1.3670   -2.1192   -0.4352 C.3       1 <0>        -0.1449
      6 C5         -2.7938   -2.5661   -0.1108 C.3       1 <0>         0.0155
      7 H1         -3.0930   -2.1550    0.8534 H         1 <0>         0.1105
      8 C6         -2.8481   -4.0711   -0.0538 C.ar      1 <0>        -0.0868
      9 C7         -2.3965   -4.8198   -1.1246 C.ar      1 <0>        -0.1020
     10 C8         -2.4460   -6.2000   -1.0730 C.ar      1 <0>        -0.1077
     11 C9         -2.9476   -6.8324    0.0507 C.ar      1 <0>        -0.0275
     12 C10        -3.3994   -6.0826    1.1221 C.ar      1 <0>        -0.1051
     13 C11        -3.3441   -4.7025    1.0715 C.ar      1 <0>        -0.0885
     14 Cl1        -3.0106   -8.5660    0.1161 Cl        1 <0>        -0.0553
     15 C12        -3.7313   -2.0698   -1.1812 C.ar      1 <0>         0.1221
     16 C13        -3.3064   -2.0281   -2.4959 C.ar      1 <0>        -0.1833
     17 C14        -4.1766   -1.5699   -3.4728 C.ar      1 <0>        -0.0678
     18 C15        -5.4475   -1.1690   -3.0893 C.ar      1 <0>        -0.1657
     19 C16        -5.8018   -1.2390   -1.7555 C.ar      1 <0>         0.1123
     20 N2         -4.9493   -1.6855   -0.8536 N.ar      1 <0>        -0.4739
     21 H2          1.1558    1.6218   -0.9687 H         1 <0>         0.1259
     22 H3         -0.5388    1.6623   -1.5117 H         1 <0>         0.1225
     23 H4         -0.1599    1.7145    0.2266 H         1 <0>         0.1229
     24 H5          2.0168   -0.3290    0.1303 H         1 <0>         0.1255
     25 H6          0.7011   -0.2363    1.3256 H         1 <0>         0.1239
     26 H7          0.9611   -1.7359    0.4026 H         1 <0>         0.1253
     27 H8         -1.5507   -0.2565    0.6313 H         1 <0>         0.1349
     28 H9         -1.9734   -0.1601   -1.0950 H         1 <0>         0.1295
     29 H10        -1.0998   -2.4555   -1.4370 H         1 <0>         0.0942
     30 H11        -0.6771   -2.5518    0.2893 H         1 <0>         0.1027
     31 H12        -2.0053   -4.3260   -2.0019 H         1 <0>         0.1273
     32 H13        -2.0935   -6.7848   -1.9097 H         1 <0>         0.1373
     33 H14        -3.7913   -6.5757    1.9994 H         1 <0>         0.1398
     34 H15        -3.6924   -4.1171    1.9097 H         1 <0>         0.1363
     35 H16        -2.3089   -2.3481   -2.7585 H         1 <0>         0.1313
     36 H17        -3.8719   -1.5259   -4.5080 H         1 <0>         0.1392
     37 H18        -6.1513   -0.8062   -3.8237 H         1 <0>         0.1420
     38 H19        -6.7897   -0.9286   -1.4487 H         1 <0>         0.1633
     39 H20         0.3633   -0.5442   -1.5745 H         1 <0>         0.4262
@<TRIPOS>BOND
     1    1    2 1
     2    1   21 1
     3    1   22 1
     4    1   23 1
     5    2    3 1
     6    2    4 1
     7    2   39 1
     8    3   24 1
     9    3   25 1
    10    3   26 1
    11    4    5 1
    12    4   27 1
    13    4   28 1
    14    5    6 1
    15    5   29 1
    16    5   30 1
    17    6    7 1
    18    6    8 1
    19    6   15 1
    20    8   13 ar
    21    8    9 ar
    22    9   10 ar
    23    9   31 1
    24   10   11 ar
    25   10   32 1
    26   11   12 ar
    27   11   14 1
    28   12   13 ar
    29   12   33 1
    30   13   34 1
    31   15   20 ar
    32   15   16 ar
    33   16   17 ar
    34   16   35 1
    35   17   18 ar
    36   17   36 1
    37   18   19 ar
    38   18   37 1
    39   19   20 ar
    40   19   38 1
@<TRIPOS>MOLECULE
ZINC00537822
   50    52     0     0     0
SMALL
USER_CHARGES

@<TRIPOS>ATOM
      1 C1         -0.0169    1.3952    0.0097 C.ar      1 <0>        -0.0260
      2 C2          1.1683    2.0970    0.0022 C.ar      1 <0>        -0.1650
      3 C3          2.3789    1.4198   -0.0130 C.ar      1 <0>         0.1439
      4 C4          2.4047    0.0329   -0.0212 C.ar      1 <0>        -0.1670
      5 C5          1.2267   -0.6810   -0.0142 C.ar      1 <0>        -0.0432
      6 C6          0.0021   -0.0041    0.0020 C.ar      1 <0>        -0.1967
      7 C7         -1.2591   -0.7596    0.0105 C.2       1 <0>         0.4038
      8 O1         -2.3189   -0.1702    0.0242 O.2       1 <0>        -0.4483
      9 C8         -1.2348   -2.2664    0.0022 C.3       1 <0>        -0.1653
     10 C9         -2.6689   -2.7996    0.0135 C.3       1 <0>        -0.1429
     11 C10        -2.6443   -4.3293    0.0051 C.3       1 <0>        -0.0092
     12 N1         -4.0211   -4.8413    0.0160 N.4       1 <0>        -0.3830
     13 C11        -4.6726   -4.4620    1.2755 C.3       1 <0>        -0.0093
     14 C12        -6.1318   -4.9225    1.2582 C.3       1 <0>        -0.1330
     15 C13        -6.1791   -6.4445    1.0954 C.3       1 <0>         0.1746
     16 C14        -5.4322   -6.8346   -0.1834 C.3       1 <0>        -0.1706
     17 C15        -3.9990   -6.3033   -0.1127 C.3       1 <0>        -0.0017
     18 C16        -7.6135   -6.8966    0.9991 C.ar      1 <0>        -0.1262
     19 C17        -8.5661   -6.0599    0.4482 C.ar      1 <0>        -0.1006
     20 C18        -9.8818   -6.4740    0.3596 C.ar      1 <0>        -0.1039
     21 C19       -10.2453   -7.7262    0.8224 C.ar      1 <0>        -0.0247
     22 C20        -9.2914   -8.5631    1.3735 C.ar      1 <0>        -0.1016
     23 C21        -7.9750   -8.1501    1.4564 C.ar      1 <0>        -0.0934
     24 Cl1       -11.8977   -8.2468    0.7119 Cl        1 <0>        -0.0500
     25 O2         -5.5554   -7.0652    2.2213 O.3       1 <0>        -0.5474
     26 F1          3.5378    2.1141   -0.0204 F         1 <0>        -0.1258
     27 H1         -0.9587    1.9236    0.0260 H         1 <0>         0.1459
     28 H2          1.1551    3.1769    0.0077 H         1 <0>         0.1477
     29 H3          3.3506   -0.4883   -0.0334 H         1 <0>         0.1469
     30 H4          1.2482   -1.7608   -0.0213 H         1 <0>         0.1412
     31 H5         -0.7241   -2.6166   -0.8948 H         1 <0>         0.1127
     32 H6         -0.7064   -2.6261    0.8850 H         1 <0>         0.1127
     33 H7         -3.1796   -2.4493    0.9105 H         1 <0>         0.0952
     34 H8         -3.1973   -2.4398   -0.8693 H         1 <0>         0.0947
     35 H9         -2.1335   -4.6796   -0.8919 H         1 <0>         0.1333
     36 H10        -2.1158   -4.6891    0.8880 H         1 <0>         0.1327
     37 H11        -4.1530   -4.9339    2.1093 H         1 <0>         0.1388
     38 H12        -4.6353   -3.3788    1.3915 H         1 <0>         0.1356
     39 H13        -6.6132   -4.6415    2.1949 H         1 <0>         0.1238
     40 H14        -6.6524   -4.4509    0.4248 H         1 <0>         0.1045
     41 H15        -5.4137   -7.9204   -0.2771 H         1 <0>         0.1175
     42 H16        -5.9384   -6.4027   -1.0467 H         1 <0>         0.1009
     43 H17        -3.4644   -6.5795   -1.0215 H         1 <0>         0.1329
     44 H18        -3.4937   -6.7360    0.7507 H         1 <0>         0.1354
     45 H19        -8.2824   -5.0823    0.0874 H         1 <0>         0.1334
     46 H20       -10.6260   -5.8201   -0.0704 H         1 <0>         0.1408
     47 H21        -9.5746   -9.5405    1.7352 H         1 <0>         0.1414
     48 H22        -7.2294   -8.8051    1.8823 H         1 <0>         0.1323
     49 H23        -5.5495   -8.0314    2.1846 H         1 <0>         0.3907
     50 H24        -4.5327   -4.4442   -0.7578 H         1 <0>         0.4215
@<TRIPOS>BOND
     1    1    6 ar
     2    1    2 ar
     3    1   27 1
     4    2    3 ar
     5    2   28 1
     6    3    4 ar
     7    3   26 1
     8    4    5 ar
     9    4   29 1
    10    5    6 ar
    11    5   30 1
    12    6    7 1
    13    7    8 2
    14    7    9 1
    15    9   10 1
    16    9   31 1
    17    9   32 1
    18   10   11 1
    19   10   33 1
    20   10   34 1
    21   11   12 1
    22   11   35 1
    23   11   36 1
    24   12   17 1
    25   12   13 1
    26   12   50 1
    27   13   14 1
    28   13   37 1
    29   13   38 1
    30   14   15 1
    31   14   39 1
    32   14   40 1
    33   15   16 1
    34   15   18 1
    35   15   25 1
    36   16   17 1
    37   16   41 1
    38   16   42 1
    39   17   43 1
    40   17   44 1
    41   18   23 ar
    42   18   19 ar
    43   19   20 ar
    44   19   45 1
    45   20   21 ar
    46   20   46 1
    47   21   22 ar
    48   21   24 1
    49   22   23 ar
    50   22   47 1
    51   23   48 1
    52   25   49 1
@<TRIPOS>MOLECULE
ZINC00968257
   45    47     0     0     0
SMALL
USER_CHARGES

@<TRIPOS>ATOM
      1 C1         -0.0178    1.4648    0.0101 C.3       1 <0>        -0.0532
      2 N1          0.0021   -0.0041    0.0020 N.4       1 <0>        -0.3871
      3 C2         -1.3761   -0.5125    0.0124 C.3       1 <0>        -0.0473
      4 C3          0.6897   -0.4778   -1.2066 C.3       1 <0>        -0.0075
      5 C4          2.1588   -0.0534   -1.1571 C.3       1 <0>        -0.1202
      6 C5          2.8641   -0.5394   -2.3970 C.2       1 <0>        -0.1679
      7 C6          3.5250    0.3270   -3.1738 C.2       1 <0>         0.0063
      8 C7          3.5927    1.7771   -2.8453 C.ar      1 <0>        -0.0588
      9 C8          4.0673    2.1470   -1.5880 C.ar      1 <0>        -0.1130
     10 C9          4.1752    3.4781   -1.2462 C.ar      1 <0>        -0.1230
     11 C10         3.8096    4.4415   -2.1695 C.ar      1 <0>        -0.1074
     12 C11         3.3311    4.0773   -3.4068 C.ar      1 <0>        -0.1261
     13 C12         3.1954    2.7364   -3.7740 C.ar      1 <0>        -0.0534
     14 C13         2.5869    2.5170   -5.1377 C.3       1 <0>        -0.0764
     15 C14         2.3799    1.0595   -5.4939 C.3       1 <0>        -0.0807
     16 C15         3.6776    0.3005   -5.5991 C.ar      1 <0>        -0.0737
     17 C16         4.2334   -0.1117   -4.4047 C.ar      1 <0>        -0.0690
     18 C17         5.3905   -0.8775   -4.3777 C.ar      1 <0>        -0.0956
     19 C18         6.0025   -1.1900   -5.5806 C.ar      1 <0>        -0.1191
     20 C19         5.4694   -0.7426   -6.7762 C.ar      1 <0>        -0.1081
     21 C20         4.2868    0.0121   -6.7962 C.ar      1 <0>        -0.1083
     22 H1          1.0047    1.8421    0.0024 H         1 <0>         0.1238
     23 H2         -0.5450    1.8259   -0.8730 H         1 <0>         0.1221
     24 H3         -0.5280    1.8163    0.9069 H         1 <0>         0.1250
     25 H4         -1.9033   -0.1515   -0.8706 H         1 <0>         0.1216
     26 H5         -1.3613   -1.6024    0.0065 H         1 <0>         0.1236
     27 H6         -1.8863   -0.1610    0.9092 H         1 <0>         0.1246
     28 H7          0.6270   -1.5648   -1.2578 H         1 <0>         0.1321
     29 H8          0.2158   -0.0447   -2.0875 H         1 <0>         0.1294
     30 H9          2.2214    1.0336   -1.1059 H         1 <0>         0.0996
     31 H10         2.6326   -0.4865   -0.2761 H         1 <0>         0.0954
     32 H11         2.8363   -1.5868   -2.6585 H         1 <0>         0.1308
     33 H12         4.3519    1.3857   -0.8767 H         1 <0>         0.1233
     34 H13         4.5405    3.7651   -0.2712 H         1 <0>         0.1290
     35 H14         3.9003    5.4876   -1.9168 H         1 <0>         0.1264
     36 H15         3.0534    4.8470   -4.1116 H         1 <0>         0.1247
     37 H16         1.6223    3.0233   -5.1729 H         1 <0>         0.0854
     38 H17         3.2393    2.9678   -5.8855 H         1 <0>         0.0834
     39 H18         1.7604    0.5939   -4.7274 H         1 <0>         0.0703
     40 H19         1.8587    1.0007   -6.4494 H         1 <0>         0.0792
     41 H20         5.8038   -1.2219   -3.4413 H         1 <0>         0.1267
     42 H21         6.9025   -1.7870   -5.5850 H         1 <0>         0.1278
     43 H22         5.9677   -0.9772   -7.7052 H         1 <0>         0.1274
     44 H23         3.8663    0.3630   -7.7270 H         1 <0>         0.1314
     45 H24         0.4901   -0.3383    0.8195 H         1 <0>         0.4266
@<TRIPOS>BOND
     1    1    2 1
     2    1   22 1
     3    1   23 1
     4    1   24 1
     5    2    3 1
     6    2    4 1
     7    2   45 1
     8    3   25 1
     9    3   26 1
    10    3   27 1
    11    4    5 1
    12    4   28 1
    13    4   29 1
    14    5    6 1
    15    5   30 1
    16    5   31 1
    17    6    7 2
    18    6   32 1
    19    7   17 1
    20    7    8 1
    21    8   13 ar
    22    8    9 ar
    23    9   10 ar
    24    9   33 1
    25   10   11 ar
    26   10   34 1
    27   11   12 ar
    28   11   35 1
    29   12   13 ar
    30   12   36 1
    31   13   14 1
    32   14   15 1
    33   14   37 1
    34   14   38 1
    35   15   16 1
    36   15   39 1
    37   15   40 1
    38   16   21 ar
    39   16   17 ar
    40   17   18 ar
    41   18   19 ar
    42   18   41 1
    43   19   20 ar
    44   19   42 1
    45   20   21 ar
    46   20   43 1
    47   21   44 1
@<TRIPOS>MOLECULE
ZINC00000504
   41    44     0     0     0
SMALL
USER_CHARGES

@<TRIPOS>ATOM
      1 C1         -0.0178    1.4648    0.0101 C.3       1 <0>        -0.0457
      2 N1          0.0021   -0.0041    0.0020 N.4       1 <0>        -0.3851
      3 C2         -1.3782   -0.5248    0.0610 C.3       1 <0>        -0.0107
      4 C3         -1.3147   -2.0017   -0.3247 C.3       1 <0>         0.1097
      5 N2         -0.2536   -2.6823    0.4304 N.pl3     1 <0>        -0.6570
      6 C4         -0.1632   -4.0681    0.2474 C.ar      1 <0>         0.1515
      7 C5          0.1651   -4.5655   -1.0110 C.ar      1 <0>        -0.1283
      8 C6          0.3219   -5.9257   -1.1894 C.ar      1 <0>        -0.1053
      9 C7          0.1595   -6.7897   -0.1216 C.ar      1 <0>        -0.1122
     10 C8         -0.1903   -6.2968    1.1226 C.ar      1 <0>        -0.0978
     11 C9         -0.3794   -4.9379    1.2936 C.ar      1 <0>        -0.0863
     12 C10        -0.9055   -4.4020    2.5876 C.3       1 <0>        -0.0401
     13 C11         0.0255   -3.4607    3.2849 C.ar      1 <0>        -0.0434
     14 C12         0.2033   -3.7275    4.6483 C.ar      1 <0>        -0.1164
     15 C13         1.0009   -2.9352    5.4386 C.ar      1 <0>        -0.1037
     16 C14         1.6407   -1.8450    4.8776 C.ar      1 <0>        -0.1092
     17 C15         1.4792   -1.5873    3.5373 C.ar      1 <0>        -0.1345
     18 C16         0.6836   -2.4040    2.7249 C.ar      1 <0>        -0.1120
     19 C17         0.6957   -2.0166    1.2712 C.3       1 <0>         0.2145
     20 H1          1.6762   -2.3177    0.9022 H         1 <0>         0.0814
     21 C18         0.7079   -0.4980    1.1840 C.3       1 <0>        -0.0096
     22 H2          1.0047    1.8421    0.0024 H         1 <0>         0.1256
     23 H3         -0.5450    1.8259   -0.8730 H         1 <0>         0.1278
     24 H4         -0.5280    1.8163    0.9069 H         1 <0>         0.1233
     25 H5         -1.7720   -0.4210    1.0720 H         1 <0>         0.1359
     26 H6         -2.0104    0.0166   -0.6429 H         1 <0>         0.1459
     27 H7         -2.2727   -2.4732   -0.1054 H         1 <0>         0.1007
     28 H8         -1.1096   -2.0872   -1.3918 H         1 <0>         0.0828
     29 H9          0.2970   -3.8905   -1.8436 H         1 <0>         0.1222
     30 H10         0.5722   -6.3158   -2.1649 H         1 <0>         0.1292
     31 H11         0.3058   -7.8509   -0.2596 H         1 <0>         0.1304
     32 H12        -0.3156   -6.9709    1.9570 H         1 <0>         0.1304
     33 H13        -1.8427   -3.8810    2.3915 H         1 <0>         0.0851
     34 H14        -1.1118   -5.2412    3.2519 H         1 <0>         0.0847
     35 H15        -0.2988   -4.5760    5.0892 H         1 <0>         0.1275
     36 H16         1.1270   -3.1618    6.4870 H         1 <0>         0.1317
     37 H17         2.2602   -1.2030    5.4861 H         1 <0>         0.1308
     38 H18         1.9776   -0.7345    3.1006 H         1 <0>         0.1191
     39 H19         1.7417   -0.1544    1.1475 H         1 <0>         0.1407
     40 H20         0.2329   -0.0891    2.0758 H         1 <0>         0.1370
     41 H21         0.4593   -0.3360   -0.8339 H         1 <0>         0.4294
@<TRIPOS>BOND
     1    1    2 1
     2    1   22 1
     3    1   23 1
     4    1   24 1
     5    2   21 1
     6    2    3 1
     7    2   41 1
     8    3    4 1
     9    3   25 1
    10    3   26 1
    11    4    5 1
    12    4   27 1
    13    4   28 1
    14    5   19 1
    15    5    6 1
    16    6   11 ar
    17    6    7 ar
    18    7    8 ar
    19    7   29 1
    20    8    9 ar
    21    8   30 1
    22    9   10 ar
    23    9   31 1
    24   10   11 ar
    25   10   32 1
    26   11   12 1
    27   12   13 1
    28   12   33 1
    29   12   34 1
    30   13   18 ar
    31   13   14 ar
    32   14   15 ar
    33   14   35 1
    34   15   16 ar
    35   15   36 1
    36   16   17 ar
    37   16   37 1
    38   17   18 ar
    39   17   38 1
    40   18   19 1
    41   19   20 1
    42   19   21 1
    43   21   39 1
    44   21   40 1
@<TRIPOS>MOLECULE
ZINC00538550
   50    54     0     0     0
SMALL
USER_CHARGES

@<TRIPOS>ATOM
      1 C1          2.6263   -1.6012    3.5769 C.ar      1 <0>        -0.1190
      2 C2          3.6377   -0.6760    3.3483 C.ar      1 <0>        -0.0682
      3 C3          3.9136   -0.2683    2.0698 C.ar      1 <0>        -0.0729
      4 C4          3.1814   -0.7831    1.0209 C.ar      1 <0>        -0.1315
      5 C5          2.1473   -1.7252    1.2248 C.ar      1 <0>        -0.1451
      6 C6          1.8930   -2.1204    2.5550 C.ar      1 <0>        -0.0442
      7 C7          1.5160   -2.1252   -0.0237 C.2       1 <0>         0.3651
      8 N1          1.9319   -1.6135   -1.1449 N.2       1 <0>        -0.4432
      9 S1          3.1728   -0.5662   -0.7370 S.3       1 <0>         0.2466
     10 N2          0.4719   -3.0515   -0.0182 N.pl3     1 <0>        -0.6548
     11 C8         -0.9273   -2.6134    0.1017 C.3       1 <0>         0.1241
     12 C9         -1.7410   -3.2754   -1.0152 C.3       1 <0>        -0.0227
     13 N3         -1.5546   -4.7307   -0.9586 N.4       1 <0>        -0.3801
     14 C10        -0.1529   -5.0667   -1.2386 C.3       1 <0>        -0.0285
     15 C11         0.7391   -4.4931   -0.1384 C.3       1 <0>         0.1238
     16 C12        -2.4192   -5.3726   -1.9578 C.3       1 <0>        -0.0095
     17 C13        -2.3203   -6.8928   -1.8166 C.3       1 <0>        -0.0983
     18 C14        -3.2073   -7.5513   -2.8417 C.ar      1 <0>        -0.1206
     19 C15        -2.6615   -8.0596   -4.0078 C.ar      1 <0>        -0.0388
     20 C16        -3.4747   -8.6603   -4.9418 C.ar      1 <0>        -0.1333
     21 C17        -4.8442   -8.7652   -4.7313 C.ar      1 <0>         0.1797
     22 C18        -5.3873   -8.2514   -3.5560 C.ar      1 <0>        -0.1298
     23 C19        -4.5688   -7.6545   -2.6174 C.ar      1 <0>         0.0073
     24 Cl1        -5.2527   -7.0236   -1.1518 Cl        1 <0>        -0.0525
     25 N4         -5.4502   -9.4084   -5.8111 N.am      1 <0>        -0.6604
     26 C20        -4.5639   -9.7540   -6.7601 C.2       1 <0>         0.5283
     27 O1         -4.8099  -10.3226   -7.8028 O.2       1 <0>        -0.4792
     28 C21        -3.2006   -9.3003   -6.2833 C.3       1 <0>        -0.1183
     29 H1          2.4206   -1.9188    4.5884 H         1 <0>         0.1364
     30 H2          4.2049   -0.2788    4.1770 H         1 <0>         0.1435
     31 H3          4.6980    0.4507    1.8851 H         1 <0>         0.1419
     32 H4          1.1130   -2.8379    2.7631 H         1 <0>         0.1277
     33 H5         -1.3236   -2.9146    1.0714 H         1 <0>         0.0880
     34 H6         -0.9816   -1.5294    0.0013 H         1 <0>         0.1163
     35 H7         -2.7970   -3.0388   -0.8847 H         1 <0>         0.1402
     36 H8         -1.4017   -2.9028   -1.9818 H         1 <0>         0.1340
     37 H9         -0.0387   -6.1502   -1.2728 H         1 <0>         0.1418
     38 H10         0.1383   -4.6400   -2.1984 H         1 <0>         0.1345
     39 H11         1.7859   -4.6512   -0.3976 H         1 <0>         0.1162
     40 H12         0.5139   -4.9874    0.8066 H         1 <0>         0.0875
     41 H13        -3.4513   -5.0594   -1.8001 H         1 <0>         0.1319
     42 H14        -2.0991   -5.0789   -2.9575 H         1 <0>         0.1342
     43 H15        -1.2883   -7.2060   -1.9743 H         1 <0>         0.1020
     44 H16        -2.6404   -7.1865   -0.8169 H         1 <0>         0.1015
     45 H17        -1.5987   -7.9846   -4.1847 H         1 <0>         0.1440
     46 H18        -6.4498   -8.3241   -3.3763 H         1 <0>         0.1460
     47 H19        -6.4019   -9.5862   -5.8697 H         1 <0>         0.4209
     48 H20        -2.7771   -8.5717   -6.9747 H         1 <0>         0.1320
     49 H21        -2.5322  -10.1538   -6.1698 H         1 <0>         0.1330
     50 H22        -1.8020   -5.0647   -0.0391 H         1 <0>         0.4224
@<TRIPOS>BOND
     1    1    6 ar
     2    1    2 ar
     3    1   29 1
     4    2    3 ar
     5    2   30 1
     6    3    4 ar
     7    3   31 1
     8    4    9 1
     9    4    5 ar
    10    5    6 ar
    11    5    7 1
    12    6   32 1
    13    7    8 2
    14    7   10 1
    15    8    9 1
    16   10   15 1
    17   10   11 1
    18   11   12 1
    19   11   33 1
    20   11   34 1
    21   12   13 1
    22   12   35 1
    23   12   36 1
    24   13   14 1
    25   13   16 1
    26   13   50 1
    27   14   15 1
    28   14   37 1
    29   14   38 1
    30   15   39 1
    31   15   40 1
    32   16   17 1
    33   16   41 1
    34   16   42 1
    35   17   18 1
    36   17   43 1
    37   17   44 1
    38   18   23 ar
    39   18   19 ar
    40   19   20 ar
    41   19   45 1
    42   20   28 1
    43   20   21 ar
    44   21   22 ar
    45   21   25 1
    46   22   23 ar
    47   22   46 1
    48   23   24 1
    49   25   26 am
    50   25   47 1
    51   26   27 2
    52   26   28 1
    53   28   48 1
    54   28   49 1
@<TRIPOS>MOLECULE
ZINC00538550
   49    53     0     0     0
SMALL
USER_CHARGES

@<TRIPOS>ATOM
      1 C1          2.6265   -1.6014    3.5768 C.ar      1 <0>        -0.1277
      2 C2          3.6378   -0.6762    3.3482 C.ar      1 <0>        -0.0756
      3 C3          3.9137   -0.2684    2.0698 C.ar      1 <0>        -0.0789
      4 C4          3.1814   -0.7831    1.0209 C.ar      1 <0>        -0.1286
      5 C5          2.1474   -1.7253    1.2248 C.ar      1 <0>        -0.1409
      6 C6          1.8931   -2.1205    2.5549 C.ar      1 <0>        -0.0356
      7 C7          1.5160   -2.1252   -0.0237 C.2       1 <0>         0.3892
      8 N1          1.9318   -1.6135   -1.1448 N.2       1 <0>        -0.4422
      9 S1          3.1728   -0.5662   -0.7370 S.3       1 <0>         0.1982
     10 N2          0.4719   -3.0515   -0.0182 N.pl3     1 <0>        -0.6554
     11 C8         -0.9266   -2.6120    0.1018 C.3       1 <0>         0.1547
     12 C9         -1.7384   -3.2579   -1.0260 C.3       1 <0>         0.0408
     13 N3         -1.5399   -4.7132   -0.9964 N.3       1 <0>        -0.5317
     14 C10        -0.1365   -5.0648   -1.2509 C.3       1 <0>         0.0356
     15 C11         0.7405   -4.4925   -0.1385 C.3       1 <0>         0.1543
     16 C12        -2.4324   -5.3857   -1.9498 C.3       1 <0>         0.0614
     17 C13        -2.3803   -6.8972   -1.7181 C.3       1 <0>        -0.0762
     18 C14        -3.2960   -7.5871   -2.6961 C.ar      1 <0>        -0.0908
     19 C15        -2.7761   -8.1815   -3.8330 C.ar      1 <0>        -0.0501
     20 C16        -3.6154   -8.8107   -4.7241 C.ar      1 <0>        -0.1350
     21 C17        -4.9858   -8.8591   -4.4990 C.ar      1 <0>         0.1527
     22 C18        -5.5028   -8.2587   -3.3533 C.ar      1 <0>        -0.1290
     23 C19        -4.6582   -7.6332   -2.4574 C.ar      1 <0>         0.0011
     24 Cl1        -5.3098   -6.8941   -1.0281 Cl        1 <0>        -0.0490
     25 N4         -5.6206   -9.5461   -5.5344 N.am      1 <0>        -0.6589
     26 C20        -4.7535   -9.9760   -6.4664 C.2       1 <0>         0.5295
     27 O1         -5.0259  -10.5979   -7.4715 O.2       1 <0>        -0.4966
     28 C21        -3.3726   -9.5384   -6.0263 C.3       1 <0>        -0.1158
     29 H1          2.4208   -1.9190    4.5884 H         1 <0>         0.1325
     30 H2          4.2051   -0.2790    4.1770 H         1 <0>         0.1377
     31 H3          4.6981    0.4506    1.8851 H         1 <0>         0.1363
     32 H4          1.1132   -2.8380    2.7630 H         1 <0>         0.1314
     33 H5         -1.3270   -2.9242    1.0664 H         1 <0>         0.0687
     34 H6         -0.9781   -1.5267    0.0148 H         1 <0>         0.0714
     35 H7         -2.7958   -3.0322   -0.8883 H         1 <0>         0.0841
     36 H8         -1.4041   -2.8647   -1.9860 H         1 <0>         0.0388
     37 H9         -0.0322   -6.1495   -1.2765 H         1 <0>         0.0869
     38 H10         0.1755   -4.6464   -2.2079 H         1 <0>         0.0384
     39 H11         1.7907   -4.6499   -0.3844 H         1 <0>         0.0710
     40 H12         0.5035   -4.9890    0.8025 H         1 <0>         0.0681
     41 H13        -3.4528   -5.0309   -1.8047 H         1 <0>         0.0802
     42 H14        -2.1115   -5.1628   -2.9673 H         1 <0>         0.0353
     43 H15        -1.3600   -7.2520   -1.8632 H         1 <0>         0.0779
     44 H16        -2.7013   -7.1201   -0.7005 H         1 <0>         0.0914
     45 H17        -1.7129   -8.1512   -4.0207 H         1 <0>         0.1394
     46 H18        -6.5655   -8.2866   -3.1629 H         1 <0>         0.1391
     47 H19        -6.5779   -9.6966   -5.5762 H         1 <0>         0.4161
     48 H20        -2.9322   -8.8664   -6.7629 H         1 <0>         0.1276
     49 H21        -2.7306  -10.4045   -5.8659 H         1 <0>         0.1281
@<TRIPOS>BOND
     1    1    6 ar
     2    1    2 ar
     3    1   29 1
     4    2    3 ar
     5    2   30 1
     6    3    4 ar
     7    3   31 1
     8    4    9 1
     9    4    5 ar
    10    5    6 ar
    11    5    7 1
    12    6   32 1
    13    7    8 2
    14    7   10 1
    15    8    9 1
    16   10   15 1
    17   10   11 1
    18   11   12 1
    19   11   33 1
    20   11   34 1
    21   12   13 1
    22   12   35 1
    23   12   36 1
    24   13   14 1
    25   13   16 1
    26   14   15 1
    27   14   37 1
    28   14   38 1
    29   15   39 1
    30   15   40 1
    31   16   17 1
    32   16   41 1
    33   16   42 1
    34   17   18 1
    35   17   43 1
    36   17   44 1
    37   18   23 ar
    38   18   19 ar
    39   19   20 ar
    40   19   45 1
    41   20   28 1
    42   20   21 ar
    43   21   22 ar
    44   21   25 1
    45   22   23 ar
    46   22   46 1
    47   23   24 1
    48   25   26 am
    49   25   47 1
    50   26   27 2
    51   26   28 1
    52   28   48 1
    53   28   49 1
@<TRIPOS>MOLECULE
ZINC52957434
   42    45     0     0     0
SMALL
USER_CHARGES

@<TRIPOS>ATOM
      1 C1         -0.0944    1.5263   -0.1201 C.3       1 <0>        -0.0688
      2 C2         -0.0505    0.0202   -0.0907 C.2       1 <0>        -0.1748
      3 C3         -1.0807   -0.8454   -0.0644 C.2       1 <0>        -0.1163
      4 C4         -0.7418   -2.2563   -0.0406 C.2       1 <0>        -0.2133
      5 C5          0.6238   -2.5293   -0.0718 C.2       1 <0>         0.0879
      6 S1          1.3770   -1.0447   -0.0901 S.3       1 <0>         0.1606
      7 N1          1.1872   -3.7946   -0.1169 N.pl3     1 <0>        -0.6680
      8 C6          0.7759   -4.6303   -1.1815 C.ar      1 <0>         0.0944
      9 C7          1.7302   -5.1445   -2.0382 C.ar      1 <0>        -0.1117
     10 C8          1.3513   -5.9441   -3.1053 C.ar      1 <0>        -0.1309
     11 C9          0.0149   -6.2253   -3.3132 C.ar      1 <0>        -0.1055
     12 C10        -0.9459   -5.7252   -2.4574 C.ar      1 <0>        -0.1158
     13 C11        -0.5794   -4.9262   -1.3671 C.ar      1 <0>         0.1690
     14 N2         -1.5605   -4.5108   -0.5207 N.2       1 <0>        -0.6205
     15 C12        -1.7264   -3.3603    0.0396 C.2       1 <0>         0.5341
     16 N3         -2.8842   -3.1467    0.7528 N.pl3     1 <0>        -0.5932
     17 C13        -3.9636   -4.1457    0.7567 C.3       1 <0>         0.1269
     18 C14        -4.3489   -4.4403    2.2103 C.3       1 <0>         0.0398
     19 N4         -4.6668   -3.1798    2.8945 N.3       1 <0>        -0.5426
     20 C15        -3.4950   -2.2959    2.9543 C.3       1 <0>         0.0389
     21 C16        -3.0721   -1.9161    1.5361 C.3       1 <0>         0.1148
     22 C17        -5.2057   -3.4313    4.2377 C.3       1 <0>         0.0244
     23 H1          0.9222    1.9190   -0.1423 H         1 <0>         0.0737
     24 H2         -0.6310    1.8568   -1.0094 H         1 <0>         0.0816
     25 H3         -0.6060    1.8924    0.7700 H         1 <0>         0.0802
     26 H4         -2.1065   -0.5075   -0.0608 H         1 <0>         0.1456
     27 H5          1.8293   -4.0917    0.5466 H         1 <0>         0.4180
     28 H6          2.7746   -4.9225   -1.8762 H         1 <0>         0.1231
     29 H7          2.0991   -6.3460   -3.7728 H         1 <0>         0.1261
     30 H8         -0.2801   -6.8405   -4.1504 H         1 <0>         0.1258
     31 H9         -1.9878   -5.9514   -2.6300 H         1 <0>         0.1270
     32 H10        -4.8280   -3.7529    0.2212 H         1 <0>         0.0711
     33 H11        -3.6171   -5.0610    0.2770 H         1 <0>         0.1044
     34 H12        -5.2205   -5.0947    2.2301 H         1 <0>         0.0873
     35 H13        -3.5156   -4.9284    2.7157 H         1 <0>         0.0374
     36 H14        -3.7472   -1.3950    3.5137 H         1 <0>         0.0889
     37 H15        -2.6736   -2.8139    3.4494 H         1 <0>         0.0369
     38 H16        -2.1365   -1.3580    1.5715 H         1 <0>         0.0997
     39 H17        -3.8491   -1.3049    1.0770 H         1 <0>         0.0767
     40 H18        -4.4683   -3.9738    4.8294 H         1 <0>         0.0253
     41 H19        -5.4324   -2.4814    4.7219 H         1 <0>         0.0703
     42 H20        -6.1163   -4.0252    4.1585 H         1 <0>         0.0713
@<TRIPOS>BOND
     1    1    2 1
     2    1   23 1
     3    1   24 1
     4    1   25 1
     5    2    6 1
     6    2    3 2
     7    3    4 1
     8    3   26 1
     9    4   15 1
    10    4    5 2
    11    5    6 1
    12    5    7 1
    13    7    8 1
    14    7   27 1
    15    8   13 ar
    16    8    9 ar
    17    9   10 ar
    18    9   28 1
    19   10   11 ar
    20   10   29 1
    21   11   12 ar
    22   11   30 1
    23   12   13 ar
    24   12   31 1
    25   13   14 1
    26   14   15 2
    27   15   16 1
    28   16   21 1
    29   16   17 1
    30   17   18 1
    31   17   32 1
    32   17   33 1
    33   18   19 1
    34   18   34 1
    35   18   35 1
    36   19   20 1
    37   19   22 1
    38   20   21 1
    39   20   36 1
    40   20   37 1
    41   21   38 1
    42   21   39 1
    43   22   40 1
    44   22   41 1
    45   22   42 1
@<TRIPOS>MOLECULE
ZINC19632628
   52    55     0     0     0
SMALL
USER_CHARGES

@<TRIPOS>ATOM
      1 C1         -0.4222    1.1482    0.6028 C.ar      1 <0>        -0.1079
      2 C2          0.6601    2.0108    0.6026 C.ar      1 <0>        -0.0952
      3 C3          1.9368    1.5210    0.3963 C.ar      1 <0>        -0.0793
      4 C4          2.1340    0.1654    0.1908 C.ar      1 <0>        -0.0873
      5 C5          1.0452   -0.7167    0.1927 C.ar      1 <0>        -0.0908
      6 C6         -0.2395   -0.2037    0.4004 C.ar      1 <0>        -0.0870
      7 C7          1.2251   -2.1556   -0.0120 C.2       1 <0>         0.5212
      8 N1          2.0971   -2.9363    0.4789 N.2       1 <0>        -0.6117
      9 C8          3.1087   -2.7110    1.3539 C.ar      1 <0>         0.2104
     10 C9          3.2947   -3.6064    2.4136 C.ar      1 <0>        -0.1316
     11 C10         4.3181   -3.4115    3.3191 C.ar      1 <0>        -0.0780
     12 C11         5.1704   -2.3312    3.1890 C.ar      1 <0>        -0.1476
     13 C12         4.9978   -1.4353    2.1471 C.ar      1 <0>        -0.0510
     14 C13         3.9732   -1.6184    1.2348 C.ar      1 <0>        -0.1819
     15 S1          3.7601   -0.4608   -0.0781 S.3       1 <0>        -0.0275
     16 N2          0.3163   -2.7473   -0.8595 N.pl3     1 <0>        -0.5971
     17 C14        -0.6501   -1.9363   -1.6155 C.3       1 <0>         0.1142
     18 C15        -0.5734   -2.3385   -3.0921 C.3       1 <0>         0.0413
     19 N3         -0.7548   -3.7915   -3.2106 N.3       1 <0>        -0.5271
     20 C16         0.3255   -4.5204   -2.5327 C.3       1 <0>         0.0377
     21 C17         0.2897   -4.2071   -1.0378 C.3       1 <0>         0.1287
     22 C18        -0.8596   -4.1958   -4.6190 C.3       1 <0>         0.0576
     23 C19        -1.2935   -5.6609   -4.6980 C.3       1 <0>         0.0650
     24 O1         -2.6131   -5.7962   -4.1666 O.3       1 <0>        -0.3622
     25 C20        -3.1162   -7.1334   -4.1936 C.3       1 <0>         0.0601
     26 C21        -4.5277   -7.1593   -3.6039 C.3       1 <0>         0.0791
     27 O2         -5.4078   -6.4072   -4.4416 O.3       1 <0>        -0.5670
     28 H1         -1.4167    1.5359    0.7671 H         1 <0>         0.1359
     29 H2          0.5074    3.0678    0.7633 H         1 <0>         0.1366
     30 H3          2.7802    2.1956    0.3949 H         1 <0>         0.1400
     31 H4         -1.0908   -0.8682    0.4022 H         1 <0>         0.1365
     32 H5          2.6340   -4.4536    2.5234 H         1 <0>         0.1290
     33 H6          4.4539   -4.1074    4.1338 H         1 <0>         0.1290
     34 H7          5.9705   -2.1856    3.8997 H         1 <0>         0.1292
     35 H8          5.6644   -0.5916    2.0462 H         1 <0>         0.1310
     36 H9         -1.6561   -2.1191   -1.2380 H         1 <0>         0.0794
     37 H10        -0.4029   -0.8799   -1.5104 H         1 <0>         0.0944
     38 H11        -1.3582   -1.8273   -3.6496 H         1 <0>         0.0896
     39 H12         0.4003   -2.0595   -3.4950 H         1 <0>         0.0388
     40 H13         0.1926   -5.5915   -2.6845 H         1 <0>         0.0867
     41 H14         1.2866   -4.2109   -2.9434 H         1 <0>         0.0380
     42 H15         1.1579   -4.6513   -0.5510 H         1 <0>         0.1050
     43 H16        -0.6243   -4.6124   -0.6037 H         1 <0>         0.0706
     44 H17        -1.5972   -3.5708   -5.1225 H         1 <0>         0.0867
     45 H18         0.1092   -4.0770   -5.1042 H         1 <0>         0.0497
     46 H19        -1.2855   -5.9865   -5.7382 H         1 <0>         0.0526
     47 H20        -0.6040   -6.2757   -4.1195 H         1 <0>         0.0489
     48 H21        -3.1461   -7.4897   -5.2233 H         1 <0>         0.0532
     49 H22        -2.4645   -7.7788   -3.6046 H         1 <0>         0.0607
     50 H23        -4.8770   -8.1899   -3.5424 H         1 <0>         0.0590
     51 H24        -4.5127   -6.7206   -2.6061 H         1 <0>         0.0550
     52 H25        -6.3221   -6.3804   -4.1280 H         1 <0>         0.3794
@<TRIPOS>BOND
     1    1    6 ar
     2    1    2 ar
     3    1   28 1
     4    2    3 ar
     5    2   29 1
     6    3    4 ar
     7    3   30 1
     8    4   15 1
     9    4    5 ar
    10    5    6 ar
    11    5    7 1
    12    6   31 1
    13    7    8 2
    14    7   16 1
    15    8    9 1
    16    9   14 ar
    17    9   10 ar
    18   10   11 ar
    19   10   32 1
    20   11   12 ar
    21   11   33 1
    22   12   13 ar
    23   12   34 1
    24   13   14 ar
    25   13   35 1
    26   14   15 1
    27   16   21 1
    28   16   17 1
    29   17   18 1
    30   17   36 1
    31   17   37 1
    32   18   19 1
    33   18   38 1
    34   18   39 1
    35   19   20 1
    36   19   22 1
    37   20   21 1
    38   20   40 1
    39   20   41 1
    40   21   42 1
    41   21   43 1
    42   22   23 1
    43   22   44 1
    44   22   45 1
    45   23   24 1
    46   23   46 1
    47   23   47 1
    48   24   25 1
    49   25   26 1
    50   25   48 1
    51   25   49 1
    52   26   27 1
    53   26   50 1
    54   26   51 1
    55   27   52 1
@<TRIPOS>MOLECULE
ZINC01530611
   43    45     0     0     0
SMALL
USER_CHARGES

@<TRIPOS>ATOM
      1 C1         -5.6811    1.3607   -0.3895 C.3       1 <0>        -0.0475
      2 N1         -5.6577   -0.0983   -0.2206 N.4       1 <0>        -0.5096
      3 C2         -4.2653   -0.5656   -0.1914 C.3       1 <0>        -0.0084
      4 C3         -4.2409   -2.0853   -0.0155 C.3       1 <0>        -0.1794
      5 C4         -2.7907   -2.5720    0.0149 C.3       1 <0>         0.1487
      6 N2         -2.7680   -4.0325    0.1272 N.pl3     1 <0>        -0.6107
      7 C5         -2.6913   -4.8424   -1.0108 C.ar      1 <0>         0.1751
      8 C6         -1.6220   -4.6466   -1.8788 C.ar      1 <0>        -0.1410
      9 C7         -1.4736   -5.4397   -2.9971 C.ar      1 <0>        -0.1023
     10 C8         -2.4002   -6.4363   -3.2444 C.ar      1 <0>        -0.1264
     11 C9         -3.4660   -6.6200   -2.3938 C.ar      1 <0>        -0.1102
     12 C10        -3.6460   -5.8156   -1.2664 C.ar      1 <0>        -0.0994
     13 C11        -4.9119   -6.0915   -0.4880 C.3       1 <0>        -0.0689
     14 C12        -5.1138   -5.1475    0.6844 C.3       1 <0>        -0.0774
     15 C13        -4.0023   -5.2798    1.6948 C.ar      1 <0>        -0.0996
     16 C14        -2.8165   -4.6605    1.3756 C.ar      1 <0>         0.1518
     17 C15        -1.7436   -4.6795    2.2507 C.ar      1 <0>        -0.1184
     18 C16        -1.8773   -5.3599    3.4502 C.ar      1 <0>        -0.1095
     19 C17        -3.0600   -6.0057    3.7614 C.ar      1 <0>        -0.1164
     20 C18        -4.1454   -5.9689    2.8764 C.ar      1 <0>        -0.1028
     21 H1         -6.7143    1.7075   -0.4111 H         1 <0>         0.1266
     22 H2         -5.1573    1.8313    0.4426 H         1 <0>         0.1238
     23 H3         -5.1891    1.6261   -1.3252 H         1 <0>         0.1238
     24 H4         -6.1131   -0.3440    0.6456 H         1 <0>         0.4303
     25 H5         -3.7733   -0.3002   -1.1272 H         1 <0>         0.1329
     26 H6         -3.7415   -0.0951    0.6406 H         1 <0>         0.1330
     27 H7         -4.7329   -2.3506    0.9203 H         1 <0>         0.0915
     28 H8         -4.7647   -2.5558   -0.8475 H         1 <0>         0.0913
     29 H9         -2.2869   -2.2703   -0.9034 H         1 <0>         0.0828
     30 H10        -2.2782   -2.1337    0.8713 H         1 <0>         0.0803
     31 H11        -0.9026   -3.8672   -1.6754 H         1 <0>         0.1215
     32 H12        -0.6444   -5.2844   -3.6715 H         1 <0>         0.1277
     33 H13        -2.2869   -7.0730   -4.1093 H         1 <0>         0.1251
     34 H14        -4.1790   -7.4039   -2.6024 H         1 <0>         0.1223
     35 H15        -5.7638   -5.9997   -1.1617 H         1 <0>         0.0796
     36 H16        -4.8754   -7.1138   -0.1117 H         1 <0>         0.0764
     37 H17        -5.1407   -4.1220    0.3160 H         1 <0>         0.0728
     38 H18        -6.0638   -5.3767    1.1673 H         1 <0>         0.0709
     39 H19        -0.8216   -4.1746    2.0032 H         1 <0>         0.1257
     40 H20        -1.0526   -5.3858    4.1470 H         1 <0>         0.1276
     41 H21        -3.1485   -6.5434    4.6939 H         1 <0>         0.1270
     42 H22        -5.0720   -6.4709    3.1123 H         1 <0>         0.1291
     43 H23        -6.1426   -0.5339   -0.9908 H         1 <0>         0.4303
@<TRIPOS>BOND
     1    1    2 1
     2    1   21 1
     3    1   22 1
     4    1   23 1
     5    2    3 1
     6    2   24 1
     7    2   43 1
     8    3    4 1
     9    3   25 1
    10    3   26 1
    11    4    5 1
    12    4   27 1
    13    4   28 1
    14    5    6 1
    15    5   29 1
    16    5   30 1
    17    6   16 1
    18    6    7 1
    19    7   12 ar
    20    7    8 ar
    21    8    9 ar
    22    8   31 1
    23    9   10 ar
    24    9   32 1
    25   10   11 ar
    26   10   33 1
    27   11   12 ar
    28   11   34 1
    29   12   13 1
    30   13   14 1
    31   13   35 1
    32   13   36 1
    33   14   15 1
    34   14   37 1
    35   14   38 1
    36   15   20 ar
    37   15   16 ar
    38   16   17 ar
    39   17   18 ar
    40   17   39 1
    41   18   19 ar
    42   18   40 1
    43   19   20 ar
    44   19   41 1
    45   20   42 1
@<TRIPOS>MOLECULE
ZINC19796158
   41    44     0     0     0
SMALL
USER_CHARGES

@<TRIPOS>ATOM
      1 C1         -0.0667    1.4397   -0.3841 C.3       1 <0>         0.0243
      2 N1         -0.0227   -0.0168   -0.1983 N.3       1 <0>        -0.5427
      3 C2          0.3818   -0.6937   -1.4376 C.3       1 <0>         0.0389
      4 C3          0.2409   -2.2089   -1.2575 C.3       1 <0>         0.1267
      5 N2          0.9912   -2.6085   -0.0572 N.pl3     1 <0>        -0.5921
      6 C4          0.7385   -1.8808    1.1957 C.3       1 <0>         0.1107
      7 C5          0.8598   -0.3785    0.9190 C.3       1 <0>         0.0392
      8 C6          1.9059   -3.6360   -0.1053 C.2       1 <0>         0.4981
      9 N3          2.1755   -4.1354   -1.2623 N.2       1 <0>        -0.5918
     10 C7          3.0301   -5.1602   -1.5359 C.ar      1 <0>         0.1373
     11 C8          2.6657   -6.1062   -2.4992 C.ar      1 <0>        -0.1073
     12 C9          3.5267   -7.1354   -2.8220 C.ar      1 <0>        -0.1012
     13 C10         4.7554   -7.2359   -2.1967 C.ar      1 <0>        -0.1249
     14 C11         5.1216   -6.3134   -1.2321 C.ar      1 <0>        -0.1033
     15 C12         4.2608   -5.2852   -0.8865 C.ar      1 <0>         0.0311
     16 O1          4.6124   -4.4416    0.1179 O.3       1 <0>        -0.2611
     17 C13         3.8464   -4.4364    1.2357 C.ar      1 <0>         0.1434
     18 C14         2.5017   -4.0718    1.1683 C.ar      1 <0>        -0.1396
     19 C15         1.7196   -4.1192    2.3233 C.ar      1 <0>        -0.0636
     20 C16         2.2870   -4.4952    3.5253 C.ar      1 <0>        -0.0510
     21 C17         3.6305   -4.8229    3.5886 C.ar      1 <0>        -0.0663
     22 C18         4.4017   -4.8004    2.4517 C.ar      1 <0>        -0.1189
     23 Cl1         1.3127   -4.5565    4.9608 Cl        1 <0>        -0.0513
     24 H1          0.9364    1.8093   -0.5973 H         1 <0>         0.0264
     25 H2         -0.7271    1.6799   -1.2174 H         1 <0>         0.0716
     26 H3         -0.4420    1.9108    0.5243 H         1 <0>         0.0713
     27 H4         -0.2566   -0.3639   -2.2573 H         1 <0>         0.0894
     28 H5          1.4198   -0.4492   -1.6635 H         1 <0>         0.0395
     29 H6         -0.8110   -2.4668   -1.1346 H         1 <0>         0.0744
     30 H7          0.6467   -2.7207   -2.1302 H         1 <0>         0.1067
     31 H8         -0.2656   -2.1072    1.5545 H         1 <0>         0.0826
     32 H9          1.4732   -2.1756    1.9449 H         1 <0>         0.0944
     33 H10         1.8911   -0.1384    0.6603 H         1 <0>         0.0401
     34 H11         0.5680    0.1799    1.8085 H         1 <0>         0.0911
     35 H12         1.7075   -6.0314   -2.9917 H         1 <0>         0.1327
     36 H13         3.2394   -7.8646   -3.5652 H         1 <0>         0.1315
     37 H14         5.4308   -8.0362   -2.4610 H         1 <0>         0.1321
     38 H15         6.0829   -6.3957   -0.7469 H         1 <0>         0.1320
     39 H16         0.6717   -3.8618    2.2774 H         1 <0>         0.1496
     40 H17         4.0715   -5.1034    4.5337 H         1 <0>         0.1495
     41 H18         5.4488   -5.0585    2.5103 H         1 <0>         0.1505
@<TRIPOS>BOND
     1    1    2 1
     2    1   24 1
     3    1   25 1
     4    1   26 1
     5    2    7 1
     6    2    3 1
     7    3    4 1
     8    3   27 1
     9    3   28 1
    10    4    5 1
    11    4   29 1
    12    4   30 1
    13    5    6 1
    14    5    8 1
    15    6    7 1
    16    6   31 1
    17    6   32 1
    18    7   33 1
    19    7   34 1
    20    8   18 1
    21    8    9 2
    22    9   10 1
    23   10   15 ar
    24   10   11 ar
    25   11   12 ar
    26   11   35 1
    27   12   13 ar
    28   12   36 1
    29   13   14 ar
    30   13   37 1
    31   14   15 ar
    32   14   38 1
    33   15   16 1
    34   16   17 1
    35   17   22 ar
    36   17   18 ar
    37   18   19 ar
    38   19   20 ar
    39   19   39 1
    40   20   21 ar
    41   20   23 1
    42   21   22 ar
    43   21   40 1
    44   22   41 1
@<TRIPOS>MOLECULE
ZINC00538312
   58    62     0     0     0
SMALL
USER_CHARGES

@<TRIPOS>ATOM
      1 C1         -0.0184    1.5028    0.0103 C.3       1 <0>        -0.1195
      2 C2          0.0021   -0.0041    0.0020 C.2       1 <0>         0.2267
      3 C3         -1.1658   -0.7051    0.0037 C.2       1 <0>        -0.3134
      4 C4         -1.0976   -2.1102    0.0026 C.2       1 <0>         0.5229
      5 O1         -2.1195   -2.7763   -0.0037 O.2       1 <0>        -0.5388
      6 N1          0.1170   -2.7181    0.0083 N.am      1 <0>        -0.5055
      7 C5          1.2324   -1.9722   -0.0125 C.2       1 <0>         0.4317
      8 N2          1.1610   -0.6576   -0.0126 N.2       1 <0>        -0.5532
      9 C6          2.6152   -2.5746   -0.0542 C.3       1 <0>        -0.0794
     10 C7          2.5757   -4.0399    0.3747 C.3       1 <0>        -0.1325
     11 C8          1.4654   -4.7382   -0.4208 C.3       1 <0>        -0.1400
     12 C9          0.1227   -4.1811    0.0440 C.3       1 <0>         0.0852
     13 C10        -2.4949    0.0052    0.0071 C.3       1 <0>        -0.0659
     14 C11        -3.0069    0.1361   -1.4287 C.3       1 <0>        -0.0060
     15 N3         -4.3025    0.8286   -1.4254 N.4       1 <0>        -0.3843
     16 C12        -5.2942    0.0044   -0.7242 C.3       1 <0>        -0.0080
     17 C13        -6.6248    0.7562   -0.6469 C.3       1 <0>        -0.1417
     18 C14        -7.1187    1.0558   -2.0652 C.3       1 <0>        -0.0246
     19 C15        -6.0446    1.8523   -2.8116 C.3       1 <0>        -0.1421
     20 C16        -4.7355    1.0599   -2.8086 C.3       1 <0>        -0.0031
     21 C17        -8.3887    1.8641   -1.9963 C.2       1 <0>         0.1325
     22 C18        -9.6953    1.4738   -2.5327 C.ar      1 <0>        -0.2134
     23 C19       -10.1611    0.3470   -3.2152 C.ar      1 <0>        -0.0098
     24 C20       -11.4711    0.2760   -3.5942 C.ar      1 <0>        -0.1750
     25 C21       -12.3461    1.3174   -3.3066 C.ar      1 <0>         0.1749
     26 C22       -11.9048    2.4388   -2.6332 C.ar      1 <0>        -0.1638
     27 C23       -10.5757    2.5285   -2.2393 C.ar      1 <0>         0.1187
     28 O2         -9.8642    3.4688   -1.5855 O.3       1 <0>        -0.0749
     29 N4         -8.5274    3.0311   -1.4462 N.2       1 <0>        -0.2751
     30 F1        -13.6388    1.2314   -3.6896 F         1 <0>        -0.1154
     31 H1          1.0042    1.8801    0.0026 H         1 <0>         0.0924
     32 H2         -0.5455    1.8639   -0.8728 H         1 <0>         0.0828
     33 H3         -0.5286    1.8543    0.9071 H         1 <0>         0.0913
     34 H4          3.0059   -2.5077   -1.0696 H         1 <0>         0.1148
     35 H5          3.2691   -2.0204    0.6191 H         1 <0>         0.1189
     36 H6          3.5346   -4.5121    0.1611 H         1 <0>         0.0978
     37 H7          2.3615   -4.1056    1.4415 H         1 <0>         0.0782
     38 H8          1.5965   -4.5420   -1.4849 H         1 <0>         0.0801
     39 H9          1.5014   -5.8120   -0.2372 H         1 <0>         0.1025
     40 H10        -0.0688   -4.5145    1.0639 H         1 <0>         0.0935
     41 H11        -0.6654   -4.5576   -0.6081 H         1 <0>         0.1043
     42 H12        -3.2109   -0.5666    0.5975 H         1 <0>         0.0984
     43 H13        -2.3754    0.9974    0.4422 H         1 <0>         0.0964
     44 H14        -2.2909    0.7079   -2.0190 H         1 <0>         0.1297
     45 H15        -3.1264   -0.8561   -1.8638 H         1 <0>         0.1316
     46 H16        -5.4368   -0.9309   -1.2655 H         1 <0>         0.1347
     47 H17        -4.9399   -0.2107    0.2839 H         1 <0>         0.1394
     48 H18        -7.3603    0.1418   -0.1276 H         1 <0>         0.1195
     49 H19        -6.4834    1.6916   -0.1055 H         1 <0>         0.0988
     50 H20        -7.3090    0.1197   -2.5902 H         1 <0>         0.1177
     51 H21        -6.3653    2.0214   -3.8395 H         1 <0>         0.1196
     52 H22        -5.8912    2.8104   -2.3151 H         1 <0>         0.0992
     53 H23        -3.9686    1.6240   -3.3394 H         1 <0>         0.1371
     54 H24        -4.8899    0.1021   -3.3055 H         1 <0>         0.1330
     55 H25        -9.4868   -0.4654   -3.4426 H         1 <0>         0.1453
     56 H26       -11.8300   -0.5955   -4.1217 H         1 <0>         0.1542
     57 H27       -12.5906    3.2435   -2.4131 H         1 <0>         0.1583
     58 H28        -4.2082    1.7141   -0.9510 H         1 <0>         0.4233
@<TRIPOS>BOND
     1    1    2 1
     2    1   31 1
     3    1   32 1
     4    1   33 1
     5    2    8 1
     6    2    3 2
     7    3    4 1
     8    3   13 1
     9    4    5 2
    10    4    6 am
    11    6   12 1
    12    6    7 1
    13    7    8 2
    14    7    9 1
    15    9   10 1
    16    9   34 1
    17    9   35 1
    18   10   11 1
    19   10   36 1
    20   10   37 1
    21   11   12 1
    22   11   38 1
    23   11   39 1
    24   12   40 1
    25   12   41 1
    26   13   14 1
    27   13   42 1
    28   13   43 1
    29   14   15 1
    30   14   44 1
    31   14   45 1
    32   15   20 1
    33   15   16 1
    34   15   58 1
    35   16   17 1
    36   16   46 1
    37   16   47 1
    38   17   18 1
    39   17   48 1
    40   17   49 1
    41   18   19 1
    42   18   21 1
    43   18   50 1
    44   19   20 1
    45   19   51 1
    46   19   52 1
    47   20   53 1
    48   20   54 1
    49   21   29 2
    50   21   22 1
    51   22   27 ar
    52   22   23 ar
    53   23   24 ar
    54   23   55 1
    55   24   25 ar
    56   24   56 1
    57   25   26 ar
    58   25   30 1
    59   26   27 ar
    60   26   57 1
    61   27   28 1
    62   28   29 1
@<TRIPOS>MOLECULE
ZINC00968337
   45    48     0     0     0
SMALL
USER_CHARGES

@<TRIPOS>ATOM
      1 C1         -2.7406   -0.8686    0.3865 C.3       1 <0>        -0.0477
      2 N1         -1.3089   -1.1276    0.1833 N.4       1 <0>        -0.3840
      3 C2         -0.7488   -1.7396    1.3940 C.3       1 <0>        -0.0026
      4 C3          0.7734   -1.8524    1.2523 C.3       1 <0>        -0.1085
      5 C4          1.0748   -2.6020   -0.0289 C.2       1 <0>        -0.1374
      6 C5          1.9442   -3.6196   -0.0481 C.2       1 <0>         0.0221
      7 C6          2.5167   -4.1090    1.2265 C.ar      1 <0>        -0.0624
      8 C7          3.2971   -3.2859    2.0335 C.ar      1 <0>        -0.1014
      9 C8          3.8003   -3.7916    3.2180 C.ar      1 <0>        -0.1171
     10 C9          3.5245   -5.0968    3.5847 C.ar      1 <0>        -0.1054
     11 C10         2.7500   -5.9083    2.7749 C.ar      1 <0>        -0.1108
     12 C11         2.2469   -5.4071    1.5850 C.ar      1 <0>        -0.0674
     13 C12         1.4239   -6.2813    0.6904 C.3       1 <0>        -0.0793
     14 C13         2.1490   -6.7026   -0.5594 C.3       1 <0>        -0.0756
     15 C14         2.4234   -5.5940   -1.5412 C.ar      1 <0>        -0.0964
     16 C15         2.3093   -4.2367   -1.3419 C.ar      1 <0>         0.1424
     17 N2          2.5453   -3.3848   -2.3476 N.ar      1 <0>        -0.4788
     18 C16         2.9126   -3.7815   -3.5430 C.ar      1 <0>         0.1062
     19 C17         3.0726   -5.1296   -3.8065 C.ar      1 <0>        -0.1567
     20 C18         2.8324   -6.0362   -2.8063 C.ar      1 <0>        -0.0839
     21 C19         0.3573   -2.1598   -1.2874 C.3       1 <0>        -0.0933
     22 C20        -1.1353   -2.0252   -0.9650 C.3       1 <0>        -0.0060
     23 H1         -3.2564   -1.8095    0.5782 H         1 <0>         0.1206
     24 H2         -2.8718   -0.2021    1.2389 H         1 <0>         0.1238
     25 H3         -3.1558   -0.4021   -0.5068 H         1 <0>         0.1236
     26 H4         -0.9883   -1.1202    2.2583 H         1 <0>         0.1328
     27 H5         -1.1756   -2.7333    1.5296 H         1 <0>         0.1275
     28 H6          1.2135   -0.8561    1.2077 H         1 <0>         0.1018
     29 H7          1.1825   -2.3980    2.1027 H         1 <0>         0.1220
     30 H8          3.5066   -2.2683    1.7388 H         1 <0>         0.1276
     31 H9          4.4086   -3.1681    3.8564 H         1 <0>         0.1299
     32 H10         3.9179   -5.4862    4.5121 H         1 <0>         0.1285
     33 H11         2.5392   -6.9261    3.0681 H         1 <0>         0.1304
     34 H12         1.1335   -7.1741    1.2443 H         1 <0>         0.0846
     35 H13         0.5215   -5.7402    0.4059 H         1 <0>         0.0697
     36 H14         3.1005   -7.1490   -0.2706 H         1 <0>         0.0854
     37 H15         1.5543   -7.4661   -1.0608 H         1 <0>         0.0893
     38 H16         3.0899   -3.0547   -4.3220 H         1 <0>         0.1648
     39 H17         3.3878   -5.4627   -4.7843 H         1 <0>         0.1421
     40 H18         2.9501   -7.0925   -2.9982 H         1 <0>         0.1387
     41 H19         0.7507   -1.1980   -1.6164 H         1 <0>         0.1015
     42 H20         0.4985   -2.9034   -2.0718 H         1 <0>         0.1181
     43 H21        -1.5450   -3.0062   -0.7244 H         1 <0>         0.1253
     44 H22        -1.6581   -1.6150   -1.8290 H         1 <0>         0.1316
     45 H23        -0.8341   -0.2561    0.0012 H         1 <0>         0.4246
@<TRIPOS>BOND
     1    1    2 1
     2    1   23 1
     3    1   24 1
     4    1   25 1
     5    2   22 1
     6    2    3 1
     7    2   45 1
     8    3    4 1
     9    3   26 1
    10    3   27 1
    11    4    5 1
    12    4   28 1
    13    4   29 1
    14    5    6 2
    15    5   21 1
    16    6   16 1
    17    6    7 1
    18    7   12 ar
    19    7    8 ar
    20    8    9 ar
    21    8   30 1
    22    9   10 ar
    23    9   31 1
    24   10   11 ar
    25   10   32 1
    26   11   12 ar
    27   11   33 1
    28   12   13 1
    29   13   14 1
    30   13   34 1
    31   13   35 1
    32   14   15 1
    33   14   36 1
    34   14   37 1
    35   15   20 ar
    36   15   16 ar
    37   16   17 ar
    38   17   18 ar
    39   18   19 ar
    40   18   38 1
    41   19   20 ar
    42   19   39 1
    43   20   40 1
    44   21   22 1
    45   21   41 1
    46   21   42 1
    47   22   43 1
    48   22   44 1
@<TRIPOS>MOLECULE
ZINC00537931
   50    53     0     0     0
SMALL
USER_CHARGES

@<TRIPOS>ATOM
      1 C1         -0.0187    1.5258    0.0104 C.3       1 <0>        -0.1525
      2 C2          0.0021   -0.0041    0.0020 C.3       1 <0>         0.0793
      3 O1          0.6709   -0.4649   -1.1737 O.3       1 <0>        -0.3641
      4 C3          0.7758   -1.7975   -1.3346 C.2       1 <0>         0.6504
      5 O2          0.3120   -2.5487   -0.4996 O.2       1 <0>        -0.5708
      6 N1          1.3951   -2.2983   -2.4219 N.am      1 <0>        -0.5928
      7 C4          1.9639   -1.3981   -3.4332 C.3       1 <0>         0.1121
      8 C5          3.4597   -1.7044   -3.5815 C.3       1 <0>        -0.1015
      9 C6          3.6269   -3.1978   -3.7566 C.2       1 <0>        -0.0531
     10 C7          4.3195   -3.6936   -4.7892 C.2       1 <0>        -0.0621
     11 C8          4.4577   -5.1607   -4.9325 C.ar      1 <0>        -0.0294
     12 C9          5.1018   -5.9254   -3.9639 C.ar      1 <0>        -0.0865
     13 C10         5.1961   -7.2930   -4.1432 C.ar      1 <0>        -0.1115
     14 C11         4.6532   -7.8812   -5.2731 C.ar      1 <0>        -0.0308
     15 C12         4.0171   -7.1115   -6.2324 C.ar      1 <0>        -0.1051
     16 C13         3.9239   -5.7402   -6.0576 C.ar      1 <0>        -0.0586
     17 C14         3.2553   -4.8948   -7.0970 C.3       1 <0>        -0.0793
     18 C15         4.2211   -4.0632   -7.8975 C.3       1 <0>        -0.0682
     19 C16         4.8989   -2.9586   -7.1304 C.ar      1 <0>        -0.1100
     20 C17         4.9262   -2.7650   -5.7678 C.ar      1 <0>         0.1736
     21 N2          5.5380   -1.6921   -5.2507 N.ar      1 <0>        -0.4747
     22 C18         6.1515   -0.7990   -5.9905 C.ar      1 <0>         0.1045
     23 C19         6.1859   -0.9443   -7.3654 C.ar      1 <0>        -0.1705
     24 C20         5.5643   -2.0251   -7.9361 C.ar      1 <0>        -0.0839
     25 Cl1         4.7716   -9.5996   -5.4893 Cl        1 <0>        -0.0686
     26 C21         2.9929   -4.1172   -2.7359 C.3       1 <0>        -0.1093
     27 C22         1.5142   -3.7505   -2.6058 C.3       1 <0>         0.1319
     28 H1          1.0039    1.9031    0.0027 H         1 <0>         0.0667
     29 H2         -0.5459    1.8868   -0.8726 H         1 <0>         0.0664
     30 H3         -0.5289    1.8773    0.9072 H         1 <0>         0.0824
     31 H4          0.5293   -0.3651    0.8851 H         1 <0>         0.0680
     32 H5         -1.0205   -0.3814    0.0098 H         1 <0>         0.0678
     33 H6          1.4620   -1.5572   -4.3876 H         1 <0>         0.0707
     34 H7          1.8323   -0.3634   -3.1168 H         1 <0>         0.0968
     35 H8          3.8556   -1.1859   -4.4547 H         1 <0>         0.1037
     36 H9          3.9914   -1.3778   -2.6878 H         1 <0>         0.0857
     37 H10         5.5212   -5.4575   -3.0855 H         1 <0>         0.1368
     38 H11         5.6932   -7.9021   -3.4027 H         1 <0>         0.1368
     39 H12         3.5962   -7.5770   -7.1114 H         1 <0>         0.1366
     40 H13         2.7063   -5.5457   -7.7775 H         1 <0>         0.0823
     41 H14         2.5460   -4.2299   -6.6041 H         1 <0>         0.0784
     42 H15         4.9894   -4.7225   -8.3014 H         1 <0>         0.0798
     43 H16         3.6810   -3.6193   -8.7338 H         1 <0>         0.0856
     44 H17         6.6296    0.0505   -5.5256 H         1 <0>         0.1601
     45 H18         6.7006   -0.2203   -7.9796 H         1 <0>         0.1358
     46 H19         5.5801   -2.1500   -9.0087 H         1 <0>         0.1331
     47 H20         3.0884   -5.1520   -3.0648 H         1 <0>         0.0935
     48 H21         3.4859   -3.9910   -1.7720 H         1 <0>         0.0867
     49 H22         1.0866   -4.2642   -1.7448 H         1 <0>         0.1025
     50 H23         0.9857   -4.0486   -3.5113 H         1 <0>         0.0753
@<TRIPOS>BOND
     1    1    2 1
     2    1   28 1
     3    1   29 1
     4    1   30 1
     5    2    3 1
     6    2   31 1
     7    2   32 1
     8    3    4 1
     9    4    5 2
    10    4    6 am
    11    6   27 1
    12    6    7 1
    13    7    8 1
    14    7   33 1
    15    7   34 1
    16    8    9 1
    17    8   35 1
    18    8   36 1
    19    9   10 2
    20    9   26 1
    21   10   20 1
    22   10   11 1
    23   11   16 ar
    24   11   12 ar
    25   12   13 ar
    26   12   37 1
    27   13   14 ar
    28   13   38 1
    29   14   15 ar
    30   14   25 1
    31   15   16 ar
    32   15   39 1
    33   16   17 1
    34   17   18 1
    35   17   40 1
    36   17   41 1
    37   18   19 1
    38   18   42 1
    39   18   43 1
    40   19   24 ar
    41   19   20 ar
    42   20   21 ar
    43   21   22 ar
    44   22   23 ar
    45   22   44 1
    46   23   24 ar
    47   23   45 1
    48   24   46 1
    49   26   27 1
    50   26   47 1
    51   26   48 1
    52   27   49 1
    53   27   50 1
