@<TRIPOS>MOLECULE
ZINC49088955
   34    35     0     0     0
SMALL
USER_CHARGES

@<TRIPOS>ATOM
      1 C1         -0.0165    1.3646    0.0095 C.2       1 <0>        -0.0278
      2 C2          1.2671    1.7717   -0.0005 C.2       1 <0>        -0.0268
      3 N1          2.0482    0.6814   -0.0138 N.2       1 <0>        -0.4933
      4 C3          1.2973   -0.3859   -0.0124 C.2       1 <0>         0.2048
      5 N2          0.0021   -0.0041    0.0020 N.pl3     1 <0>        -0.5632
      6 H1         -0.7708   -0.5902    0.0065 H         1 <0>         0.4300
      7 C4          1.7427    3.2017    0.0026 C.3       1 <0>        -0.0494
      8 C5          2.7000    3.4183    1.1763 C.3       1 <0>        -0.0057
      9 N3          3.1635    4.8122    1.1794 N.4       1 <0>        -0.5082
     10 C6          4.0826    5.0201    2.3063 C.3       1 <0>         0.0268
     11 C7          5.3415    4.1754    2.1002 C.3       1 <0>        -0.1417
     12 C8          6.2988    4.3919    3.2739 C.3       1 <0>        -0.1179
     13 C9          6.6840    5.8706    3.3518 C.3       1 <0>        -0.1319
     14 C10         5.4251    6.7154    3.5579 C.3       1 <0>        -0.1177
     15 C11         4.4678    6.4988    2.3842 C.3       1 <0>        -0.1407
     16 H2         -0.8922    1.9965    0.0253 H         1 <0>         0.1807
     17 H3          1.6529   -1.4057   -0.0218 H         1 <0>         0.2152
     18 H4          2.2605    3.4145   -0.9326 H         1 <0>         0.0958
     19 H5          0.8868    3.8690    0.1039 H         1 <0>         0.0961
     20 H6          2.1821    3.2055    2.1116 H         1 <0>         0.1293
     21 H7          3.5559    2.7510    1.0750 H         1 <0>         0.1398
     22 H8          3.6429    5.0092    0.3137 H         1 <0>         0.4260
     23 H9          3.5934    4.7228    3.2338 H         1 <0>         0.1375
     24 H10         5.0671    3.1220    2.0447 H         1 <0>         0.0888
     25 H11         5.8308    4.4728    1.1727 H         1 <0>         0.0870
     26 H12         5.8096    4.0946    4.2015 H         1 <0>         0.0738
     27 H13         7.1957    3.7901    3.1271 H         1 <0>         0.0845
     28 H14         7.3659    6.0249    4.1880 H         1 <0>         0.0789
     29 H15         7.1732    6.1680    2.4243 H         1 <0>         0.0703
     30 H16         4.9358    6.4180    4.4854 H         1 <0>         0.0741
     31 H17         5.6994    7.7688    3.6134 H         1 <0>         0.0846
     32 H18         4.9570    6.7962    1.4567 H         1 <0>         0.0870
     33 H19         3.5709    7.1006    2.5310 H         1 <0>         0.0869
     34 H20         2.3712    5.4299    1.2732 H         1 <0>         0.4262
@<TRIPOS>BOND
     1    1    5 1
     2    1    2 2
     3    1   16 1
     4    2    3 1
     5    2    7 1
     6    3    4 2
     7    4    5 1
     8    4   17 1
     9    5    6 1
    10    7    8 1
    11    7   18 1
    12    7   19 1
    13    8    9 1
    14    8   20 1
    15    8   21 1
    16    9   10 1
    17    9   22 1
    18    9   34 1
    19   10   15 1
    20   10   11 1
    21   10   23 1
    22   11   12 1
    23   11   24 1
    24   11   25 1
    25   12   13 1
    26   12   26 1
    27   12   27 1
    28   13   14 1
    29   13   28 1
    30   13   29 1
    31   14   15 1
    32   14   30 1
    33   14   31 1
    34   15   32 1
    35   15   33 1
@<TRIPOS>MOLECULE
ZINC01532339
   56    55     0     0     0
SMALL
USER_CHARGES

@<TRIPOS>ATOM
      1 C1         -0.0178    1.4648    0.0101 C.3       1 <0>        -0.0508
      2 N1          0.0021   -0.0041    0.0020 N.4       1 <0>        -0.2715
      3 C2          0.7126   -0.4907    1.1921 C.3       1 <0>        -0.0508
      4 C3         -1.3761   -0.5125    0.0124 C.3       1 <0>        -0.0458
      5 C4          0.6897   -0.4778   -1.2066 C.3       1 <0>        -0.0093
      6 C5          2.1250    0.0518   -1.2175 C.3       1 <0>        -0.1512
      7 C6          2.8412   -0.4417   -2.4763 C.3       1 <0>        -0.1183
      8 C7          4.2766    0.0879   -2.4871 C.3       1 <0>        -0.1213
      9 C8          4.9927   -0.4055   -3.7459 C.3       1 <0>        -0.1222
     10 C9          6.4281    0.1241   -3.7568 C.3       1 <0>        -0.1222
     11 C10         7.1442   -0.3693   -5.0156 C.3       1 <0>        -0.1214
     12 C11         8.5796    0.1603   -5.0265 C.3       1 <0>        -0.1183
     13 C12         9.2957   -0.3332   -6.2853 C.3       1 <0>        -0.1511
     14 C13        10.7311    0.1964   -6.2961 C.3       1 <0>        -0.0092
     15 N2         11.4187   -0.2773   -7.5048 N.4       1 <0>        -0.2715
     16 C14        10.7082    0.2093   -8.6949 C.3       1 <0>        -0.0508
     17 C15        12.7969    0.2311   -7.5152 C.3       1 <0>        -0.0458
     18 C16        11.4386   -1.7462   -7.5128 C.3       1 <0>        -0.0508
     19 H1          1.0047    1.8421    0.0024 H         1 <0>         0.1221
     20 H2         -0.5450    1.8259   -0.8730 H         1 <0>         0.1218
     21 H3         -0.5280    1.8163    0.9069 H         1 <0>         0.1235
     22 H4          0.2024   -0.1392    2.0889 H         1 <0>         0.1235
     23 H5          0.7273   -1.5806    1.1861 H         1 <0>         0.1218
     24 H6          1.7352   -0.1134    1.1844 H         1 <0>         0.1221
     25 H7         -1.9033   -0.1515   -0.8706 H         1 <0>         0.1217
     26 H8         -1.3613   -1.6024    0.0065 H         1 <0>         0.1217
     27 H9         -1.8863   -0.1610    0.9092 H         1 <0>         0.1238
     28 H10         0.7044   -1.5677   -1.2126 H         1 <0>         0.1279
     29 H11         0.1625   -0.1167   -2.0897 H         1 <0>         0.1279
     30 H12         2.1103    1.1417   -1.2115 H         1 <0>         0.0874
     31 H13         2.6522   -0.3093   -0.3344 H         1 <0>         0.0874
     32 H14         2.8560   -1.5315   -2.4823 H         1 <0>         0.0735
     33 H15         2.3140   -0.0806   -3.3593 H         1 <0>         0.0735
     34 H16         4.2618    1.1778   -2.4811 H         1 <0>         0.0662
     35 H17         4.8037   -0.2731   -1.6041 H         1 <0>         0.0662
     36 H18         5.0075   -1.4954   -3.7519 H         1 <0>         0.0647
     37 H19         4.4655   -0.0444   -4.6290 H         1 <0>         0.0647
     38 H20         6.4133    1.2140   -3.7508 H         1 <0>         0.0647
     39 H21         6.9553   -0.2370   -2.8737 H         1 <0>         0.0647
     40 H22         7.1590   -1.4592   -5.0216 H         1 <0>         0.0662
     41 H23         6.6170   -0.0082   -5.8987 H         1 <0>         0.0662
     42 H24         8.5648    1.2501   -5.0205 H         1 <0>         0.0735
     43 H25         9.1068   -0.2008   -4.1434 H         1 <0>         0.0735
     44 H26         9.3105   -1.4230   -6.2913 H         1 <0>         0.0874
     45 H27         8.7685    0.0279   -7.1683 H         1 <0>         0.0874
     46 H28        10.7163    1.2863   -6.2901 H         1 <0>         0.1279
     47 H29        11.2583   -0.1647   -5.4131 H         1 <0>         0.1279
     48 H30        10.6934    1.2992   -8.6889 H         1 <0>         0.1218
     49 H31        11.2184   -0.1422   -9.5917 H         1 <0>         0.1235
     50 H32         9.6856   -0.1680   -8.6871 H         1 <0>         0.1221
     51 H33        13.3240   -0.1299   -6.6321 H         1 <0>         0.1217
     52 H34        13.3070   -0.1204   -8.4120 H         1 <0>         0.1238
     53 H35        12.7821    1.3210   -7.5092 H         1 <0>         0.1217
     54 H36        10.4160   -2.1235   -7.5051 H         1 <0>         0.1221
     55 H37        11.9488   -2.0977   -8.4096 H         1 <0>         0.1234
     56 H38        11.9658   -2.1073   -6.6298 H         1 <0>         0.1218
@<TRIPOS>BOND
     1    1    2 1
     2    1   19 1
     3    1   20 1
     4    1   21 1
     5    2    3 1
     6    2    4 1
     7    2    5 1
     8    3   22 1
     9    3   23 1
    10    3   24 1
    11    4   25 1
    12    4   26 1
    13    4   27 1
    14    5    6 1
    15    5   28 1
    16    5   29 1
    17    6    7 1
    18    6   30 1
    19    6   31 1
    20    7    8 1
    21    7   32 1
    22    7   33 1
    23    8    9 1
    24    8   34 1
    25    8   35 1
    26    9   10 1
    27    9   36 1
    28    9   37 1
    29   10   11 1
    30   10   38 1
    31   10   39 1
    32   11   12 1
    33   11   40 1
    34   11   41 1
    35   12   13 1
    36   12   42 1
    37   12   43 1
    38   13   14 1
    39   13   44 1
    40   13   45 1
    41   14   15 1
    42   14   46 1
    43   14   47 1
    44   15   16 1
    45   15   17 1
    46   15   18 1
    47   16   48 1
    48   16   49 1
    49   16   50 1
    50   17   51 1
    51   17   52 1
    52   17   53 1
    53   18   54 1
    54   18   55 1
    55   18   56 1
@<TRIPOS>MOLECULE
ZINC22013479
   21    21     0     0     0
SMALL
USER_CHARGES

@<TRIPOS>ATOM
      1 C1         -0.0187    1.5258    0.0104 C.3       1 <0>        -0.1856
      2 C2          0.0021   -0.0041    0.0020 C.3       1 <0>         0.0382
      3 H1          0.5123   -0.3556   -0.8948 H         1 <0>         0.1368
      4 C3          0.7421   -0.5109    1.2415 C.3       1 <0>        -0.0506
      5 C4          0.8700   -2.0108    1.1719 C.2       1 <0>        -0.0485
      6 C5          2.0163   -2.7122    1.2589 C.2       1 <0>        -0.0143
      7 N1          1.6808   -4.0347    1.1490 N.pl3     1 <0>        -0.5589
      8 H2          2.2919   -4.7876    1.1744 H         1 <0>         0.4342
      9 C6          0.3401   -4.0955    0.9986 C.2       1 <0>         0.2206
     10 N2         -0.1386   -2.8816    1.0183 N.2       1 <0>        -0.5338
     11 N3         -1.3761   -0.5125    0.0124 N.4       1 <0>        -0.6354
     12 H3          1.0039    1.9031    0.0027 H         1 <0>         0.1058
     13 H4         -0.5459    1.8868   -0.8726 H         1 <0>         0.0833
     14 H5         -0.5289    1.8773    0.9072 H         1 <0>         0.0829
     15 H6          1.7350   -0.0630    1.2804 H         1 <0>         0.1218
     16 H7          0.1838   -0.2350    2.1361 H         1 <0>         0.0992
     17 H8          3.0096   -2.3087    1.3898 H         1 <0>         0.1851
     18 H9         -0.2402   -4.9992    0.8850 H         1 <0>         0.2188
     19 H10        -1.8641   -0.1783   -0.8050 H         1 <0>         0.4291
     20 H11        -1.3624   -1.5214    0.0069 H         1 <0>         0.4418
     21 H12        -1.8484   -0.1871    0.8426 H         1 <0>         0.4294
@<TRIPOS>BOND
     1    1    2 1
     2    1   12 1
     3    1   13 1
     4    1   14 1
     5    2    3 1
     6    2    4 1
     7    2   11 1
     8    4    5 1
     9    4   15 1
    10    4   16 1
    11    5   10 1
    12    5    6 2
    13    6    7 1
    14    6   17 1
    15    7    8 1
    16    7    9 1
    17    9   10 2
    18    9   18 1
    19   11   19 1
    20   11   20 1
    21   11   21 1
@<TRIPOS>MOLECULE
ZINC13831220
   23    22     0     0     0
SMALL
USER_CHARGES

@<TRIPOS>ATOM
      1 C1         -0.0187    1.5258    0.0104 C.3       1 <0>         0.1132
      2 C2          0.0021   -0.0041    0.0020 C.3       1 <0>        -0.1701
      3 S1         -1.6997   -0.6320    0.0149 S.3       1 <0>         0.1000
      4 C3         -1.5080   -2.3834    0.0037 C.cat     1 <0>         0.4878
      5 N1         -2.4237   -3.1579    0.5855 N.pl3     1 <0>        -0.7240
      6 N2         -0.4472   -2.9340   -0.5867 N.pl3     1 <0>        -0.7614
      7 N3          1.3557    2.0329    0.0000 N.pl3     1 <0>        -0.7019
      8 C4          1.5874    3.3810    0.0051 C.cat     1 <0>         0.7516
      9 N4          2.8370    3.8420   -0.0044 N.pl3     1 <0>        -0.7839
     10 N5          0.5634    4.2326    0.0194 N.pl3     1 <0>        -0.7880
     11 H1         -0.5459    1.8868   -0.8726 H         1 <0>         0.1123
     12 H2         -0.5289    1.8773    0.9072 H         1 <0>         0.1130
     13 H3          0.5123   -0.3556   -0.8948 H         1 <0>         0.1252
     14 H4          0.5293   -0.3651    0.8851 H         1 <0>         0.1342
     15 H5         -3.1956   -2.7573    1.0150 H         1 <0>         0.4547
     16 H6          0.2192   -2.3704   -1.0100 H         1 <0>         0.4414
     17 H7         -0.3416   -3.8982   -0.5929 H         1 <0>         0.4384
     18 H8          2.1015    1.4126   -0.0104 H         1 <0>         0.4389
     19 H9          3.5827    3.2217   -0.0148 H         1 <0>         0.4439
     20 H10        -0.3466    3.8969    0.0263 H         1 <0>         0.4395
     21 H11         0.7277    5.1886    0.0230 H         1 <0>         0.4472
     22 H12         3.0013    4.7980   -0.0008 H         1 <0>         0.4475
     23 H13        -2.3181   -4.1222    0.5793 H         1 <0>         0.4405
@<TRIPOS>BOND
     1    1    2 1
     2    1    7 1
     3    1   11 1
     4    1   12 1
     5    2    3 1
     6    2   13 1
     7    2   14 1
     8    3    4 1
     9    4    5 2
    10    4    6 1
    11    5   15 1
    12    5   23 1
    13    6   16 1
    14    6   17 1
    15    7    8 1
    16    7   18 1
    17    8    9 2
    18    8   10 1
    19    9   19 1
    20    9   22 1
    21   10   20 1
    22   10   21 1
@<TRIPOS>MOLECULE
ZINC13831238
   31    31     0     0     0
SMALL
USER_CHARGES

@<TRIPOS>ATOM
      1 C1         -0.0178    1.4608    0.0101 C.3       1 <0>         0.0880
      2 N1          0.0021   -0.0041    0.0020 N.pl3     1 <0>        -0.6850
      3 C2          0.5851   -0.6645   -1.0180 C.2       1 <0>         0.5561
      4 N2          0.6034   -2.0121   -1.0254 N.pl3     1 <0>        -0.6925
      5 C3          1.2371   -2.7300   -2.1341 C.3       1 <0>         0.1248
      6 C4          1.1200   -4.2373   -1.8990 C.3       1 <0>        -0.1364
      7 C5          1.7819   -4.9870   -3.0569 C.3       1 <0>        -0.1147
      8 C6          1.6648   -6.4943   -2.8217 C.3       1 <0>        -0.0636
      9 C7          2.3167   -7.2328   -3.9622 C.2       1 <0>         0.0641
     10 C8          3.6239   -7.5342   -4.0806 C.2       1 <0>         0.0021
     11 N3          3.7945   -8.1943   -5.2357 N.pl3     1 <0>        -0.4725
     12 H1          0.7462   -7.6746   -5.2769 H         1 <0>         0.4652
     13 C9          2.6427   -8.3133   -5.8376 C.cat     1 <0>         0.3051
     14 N4          1.6930   -7.7313   -5.0741 N.pl3     1 <0>        -0.5112
     15 S1          1.3024    0.2084   -2.3042 S.2       1 <0>        -0.6329
     16 H2          1.0048    1.8381    0.0023 H         1 <0>         0.0823
     17 H3         -0.5450    1.8219   -0.8730 H         1 <0>         0.0821
     18 H4         -0.5280    1.8123    0.9069 H         1 <0>         0.0847
     19 H5          0.1969   -2.5067   -0.2966 H         1 <0>         0.3972
     20 H6          0.7396   -2.4683   -3.0680 H         1 <0>         0.0872
     21 H7          2.2894   -2.4521   -2.1927 H         1 <0>         0.0886
     22 H8          1.6175   -4.4990   -0.9651 H         1 <0>         0.0780
     23 H9          0.0677   -4.5152   -1.8404 H         1 <0>         0.0755
     24 H10         1.2844   -4.7253   -3.9908 H         1 <0>         0.0752
     25 H11         2.8342   -4.7091   -3.1154 H         1 <0>         0.0821
     26 H12         2.1622   -6.7561   -1.8878 H         1 <0>         0.1147
     27 H13         0.6125   -6.7723   -2.7631 H         1 <0>         0.0982
     28 H14         4.3989   -7.2877   -3.3701 H         1 <0>         0.2243
     29 H15         2.4761   -8.7998   -6.7873 H         1 <0>         0.2663
     30 H16        -0.4044   -0.4986    0.7308 H         1 <0>         0.3994
     31 H17         4.6405   -8.5301   -5.5708 H         1 <0>         0.4677
@<TRIPOS>BOND
     1    1    2 1
     2    1   16 1
     3    1   17 1
     4    1   18 1
     5    2    3 1
     6    2   30 1
     7    3    4 1
     8    3   15 2
     9    4    5 1
    10    4   19 1
    11    5    6 1
    12    5   20 1
    13    5   21 1
    14    6    7 1
    15    6   22 1
    16    6   23 1
    17    7    8 1
    18    7   24 1
    19    7   25 1
    20    8   26 1
    21    8   27 1
    22    8    9 1
    23    9   10 2
    24    9   14 1
    25   10   11 1
    26   10   28 1
    27   11   13 2
    28   11   31 1
    29   12   14 1
    30   13   29 1
    31   13   14 1
@<TRIPOS>MOLECULE
ZINC13831238
   30    30     0     0     0
SMALL
USER_CHARGES

@<TRIPOS>ATOM
      1 C1         -0.0178    1.4608    0.0101 C.3       1 <0>         0.0914
      2 N1          0.0021   -0.0041    0.0020 N.pl3     1 <0>        -0.6911
      3 C2         -1.1558   -0.6938    0.0094 C.2       1 <0>         0.5569
      4 S1         -2.6499    0.1420    0.0281 S.2       1 <0>        -0.6390
      5 N2         -1.1375   -2.0414    0.0020 N.pl3     1 <0>        -0.6855
      6 C3         -2.3962   -2.7911    0.0099 C.3       1 <0>         0.1231
      7 C4         -2.0962   -4.2913   -0.0010 C.3       1 <0>        -0.1335
      8 C5         -3.4107   -5.0743    0.0074 C.3       1 <0>        -0.1058
      9 C6         -3.1108   -6.5746   -0.0035 C.3       1 <0>        -0.0320
     10 C7         -4.4055   -7.3458    0.0047 C.2       1 <0>         0.0019
     11 C8         -4.7718   -8.2867   -0.8864 C.2       1 <0>        -0.0565
     12 N3         -6.0115   -8.7278   -0.5095 N.pl3     1 <0>        -0.5712
     13 C9         -6.3599   -8.0406    0.5996 C.2       1 <0>         0.1860
     14 N4         -5.3924   -7.2194    0.9041 N.2       1 <0>        -0.4883
     15 H1          1.0048    1.8381    0.0023 H         1 <0>         0.0808
     16 H2         -0.5450    1.8219   -0.8730 H         1 <0>         0.0796
     17 H3         -0.5280    1.8123    0.9069 H         1 <0>         0.0798
     18 H4          0.8486   -0.4776   -0.0086 H         1 <0>         0.3978
     19 H5         -0.2910   -2.5149   -0.0087 H         1 <0>         0.3964
     20 H6         -2.9627   -2.5403    0.9067 H         1 <0>         0.0888
     21 H7         -2.9797   -2.5308   -0.8731 H         1 <0>         0.0874
     22 H8         -1.5297   -4.5421   -0.8978 H         1 <0>         0.0685
     23 H9         -1.5127   -4.5516    0.8821 H         1 <0>         0.0701
     24 H10        -3.9773   -4.8236    0.9042 H         1 <0>         0.0771
     25 H11        -3.9943   -4.8140   -0.8757 H         1 <0>         0.0661
     26 H12        -2.5442   -6.8253   -0.9003 H         1 <0>         0.0732
     27 H13        -2.5272   -6.8349    0.8795 H         1 <0>         0.0740
     28 H14        -4.1978   -8.6275   -1.7354 H         1 <0>         0.1749
     29 H15        -7.2843   -8.1546    1.1463 H         1 <0>         0.2081
     30 H16        -6.5410   -9.4072   -0.9557 H         1 <0>         0.4209
@<TRIPOS>BOND
     1    1    2 1
     2    1   15 1
     3    1   16 1
     4    1   17 1
     5    2    3 1
     6    2   18 1
     7    3    4 2
     8    3    5 1
     9    5    6 1
    10    5   19 1
    11    6    7 1
    12    6   20 1
    13    6   21 1
    14    7    8 1
    15    7   22 1
    16    7   23 1
    17    8    9 1
    18    8   24 1
    19    8   25 1
    20    9   10 1
    21    9   26 1
    22    9   27 1
    23   10   14 1
    24   10   11 2
    25   11   12 1
    26   11   28 1
    27   12   13 1
    28   12   30 1
    29   13   14 2
    30   13   29 1
@<TRIPOS>MOLECULE
ZINC13831238
   30    30     0     0     0
SMALL
USER_CHARGES

@<TRIPOS>ATOM
      1 C1         -0.0178    1.4608    0.0101 C.3       1 <0>         0.0908
      2 N1          0.0021   -0.0041    0.0020 N.pl3     1 <0>        -0.6900
      3 C2          0.6044   -0.6754    1.0035 C.2       1 <0>         0.5566
      4 S1          1.3462    0.1837    2.2852 S.2       1 <0>        -0.6371
      5 N2          0.6227   -2.0230    0.9961 N.pl3     1 <0>        -0.6868
      6 C3          1.2774   -2.7527    2.0848 C.3       1 <0>         0.1231
      7 C4          1.1557   -4.2573    1.8357 C.3       1 <0>        -0.1337
      8 C5          1.8394   -5.0194    2.9727 C.3       1 <0>        -0.1106
      9 C6          1.7177   -6.5241    2.7236 C.3       1 <0>        -0.0419
     10 C7          2.3912   -7.2747    3.8435 C.2       1 <0>        -0.0262
     11 C8          3.7013   -7.5722    3.9365 C.2       1 <0>        -0.0217
     12 N3          3.8937   -8.2459    5.0802 N.2       1 <0>        -0.4935
     13 C9          2.7525   -8.3772    5.6995 C.2       1 <0>         0.1842
     14 N4          1.7898   -7.7800    4.9645 N.pl3     1 <0>        -0.5680
     15 H1          1.0048    1.8381    0.0023 H         1 <0>         0.0803
     16 H2         -0.5450    1.8219   -0.8730 H         1 <0>         0.0815
     17 H3         -0.5280    1.8123    0.9069 H         1 <0>         0.0801
     18 H4         -0.4183   -0.4908   -0.7241 H         1 <0>         0.3981
     19 H5          0.2023   -2.5097    0.2700 H         1 <0>         0.3966
     20 H6          2.3307   -2.4753    2.1262 H         1 <0>         0.0893
     21 H7          0.7979   -2.5010    3.0308 H         1 <0>         0.0874
     22 H8          0.1024   -4.5348    1.7943 H         1 <0>         0.0696
     23 H9          1.6352   -4.5090    0.8898 H         1 <0>         0.0730
     24 H10         2.8927   -4.7420    3.0141 H         1 <0>         0.0766
     25 H11         1.3599   -4.7678    3.9186 H         1 <0>         0.0676
     26 H12         0.6645   -6.8015    2.6822 H         1 <0>         0.0702
     27 H13         2.1972   -6.7757    1.7776 H         1 <0>         0.0889
     28 H14         4.4635   -7.3136    3.2163 H         1 <0>         0.1686
     29 H15         2.6034   -8.8772    6.6451 H         1 <0>         0.2083
     30 H16         0.8478   -7.7218    5.1881 H         1 <0>         0.4188
@<TRIPOS>BOND
     1    1    2 1
     2    1   15 1
     3    1   16 1
     4    1   17 1
     5    2    3 1
     6    2   18 1
     7    3    4 2
     8    3    5 1
     9    5    6 1
    10    5   19 1
    11    6    7 1
    12    6   20 1
    13    6   21 1
    14    7    8 1
    15    7   22 1
    16    7   23 1
    17    8    9 1
    18    8   24 1
    19    8   25 1
    20    9   10 1
    21    9   26 1
    22    9   27 1
    23   10   14 1
    24   10   11 2
    25   11   12 1
    26   11   28 1
    27   12   13 2
    28   13   14 1
    29   13   29 1
    30   14   30 1
@<TRIPOS>MOLECULE
ZINC14979644
   42    43     0     0     0
SMALL
USER_CHARGES

@<TRIPOS>ATOM
      1 C1         -0.0167    1.3782    0.0096 C.ar      1 <0>        -0.1063
      2 C2          1.1708    2.0857    0.0021 C.ar      1 <0>        -0.0803
      3 C3          2.3776    1.4106   -0.0131 C.ar      1 <0>        -0.0912
      4 C4          2.3961    0.0278   -0.0207 C.ar      1 <0>        -0.0802
      5 C5          1.2083   -0.6792   -0.0132 C.ar      1 <0>        -0.1062
      6 C6          0.0021   -0.0041    0.0020 C.ar      1 <0>        -0.0899
      7 C7         -1.2927   -0.7751    0.0108 C.3       1 <0>        -0.0887
      8 C8         -1.7452   -1.0283   -1.4287 C.3       1 <0>         0.0794
      9 N1         -3.0039   -1.7779   -1.4202 N.pl3     1 <0>        -0.6378
     10 C9         -3.6068   -2.1234   -2.6075 C.cat     1 <0>         0.4714
     11 N2         -3.0577   -1.7837   -3.7407 N.pl3     1 <0>        -0.7509
     12 S1         -5.1206   -3.0249   -2.5973 S.3       1 <0>         0.0775
     13 C10        -5.5152   -3.2400   -4.3547 C.3       1 <0>        -0.1537
     14 C11        -6.8252   -4.0185   -4.4917 C.3       1 <0>        -0.1082
     15 C12        -7.1580   -4.1999   -5.9740 C.3       1 <0>        -0.0541
     16 C13        -8.4483   -4.9666   -6.1090 C.2       1 <0>         0.0185
     17 C14        -8.5781   -6.3069   -6.0900 C.2       1 <0>         0.0443
     18 N3         -9.9112   -6.5779   -6.2420 N.pl3     1 <0>        -0.5083
     19 H1        -10.3205   -7.4569   -6.2682 H         1 <0>         0.4717
     20 C15       -10.5501   -5.3929   -6.3488 C.cat     1 <0>         0.3188
     21 N4         -9.6694   -4.4336   -6.2633 N.pl3     1 <0>        -0.4762
     22 I1          4.1776    2.4824   -0.0252 I         1 <0>        -0.0203
     23 H2         -0.9592    1.9053    0.0260 H         1 <0>         0.1322
     24 H3          1.1560    3.1655    0.0077 H         1 <0>         0.1360
     25 H4          3.3384   -0.4997   -0.0329 H         1 <0>         0.1361
     26 H5          1.2227   -1.7591   -0.0191 H         1 <0>         0.1323
     27 H6         -1.1445   -1.7284    0.5180 H         1 <0>         0.0962
     28 H7         -2.0551   -0.1991    0.5353 H         1 <0>         0.0961
     29 H8         -1.8935   -0.0750   -1.9360 H         1 <0>         0.1019
     30 H9         -0.9829   -1.6043   -1.9532 H         1 <0>         0.1021
     31 H10        -3.4123   -2.0305   -0.5774 H         1 <0>         0.4451
     32 H11        -3.4828   -2.0273   -4.5779 H         1 <0>         0.4395
     33 H12        -5.6224   -2.2627   -4.8253 H         1 <0>         0.1189
     34 H13        -4.7118   -3.7920   -4.8425 H         1 <0>         0.1213
     35 H14        -6.7180   -4.9958   -4.0212 H         1 <0>         0.0983
     36 H15        -7.6286   -3.4665   -4.0039 H         1 <0>         0.0914
     37 H16        -7.2652   -3.2225   -6.4446 H         1 <0>         0.1044
     38 H17        -6.3546   -4.7519   -6.4619 H         1 <0>         0.1202
     39 H18        -7.7832   -7.0292   -5.9769 H         1 <0>         0.2278
     40 H19       -11.6140   -5.2609   -6.4791 H         1 <0>         0.2698
     41 H20        -2.2243   -1.2874   -3.7464 H         1 <0>         0.4352
     42 H21        -9.8666   -3.4849   -6.3065 H         1 <0>         0.4658
@<TRIPOS>BOND
     1    1    6 ar
     2    1    2 ar
     3    1   23 1
     4    2    3 ar
     5    2   24 1
     6    3    4 ar
     7    3   22 1
     8    4    5 ar
     9    4   25 1
    10    5    6 ar
    11    5   26 1
    12    6    7 1
    13    7    8 1
    14    7   27 1
    15    7   28 1
    16    8    9 1
    17    8   29 1
    18    8   30 1
    19    9   10 1
    20    9   31 1
    21   10   11 2
    22   10   12 1
    23   11   32 1
    24   11   41 1
    25   12   13 1
    26   13   14 1
    27   13   33 1
    28   13   34 1
    29   14   15 1
    30   14   35 1
    31   14   36 1
    32   15   16 1
    33   15   37 1
    34   15   38 1
    35   16   21 1
    36   16   17 2
    37   17   18 1
    38   17   39 1
    39   18   19 1
    40   18   20 1
    41   20   21 2
    42   20   40 1
    43   21   42 1
@<TRIPOS>MOLECULE
ZINC14979644
   42    43     0     0     0
SMALL
USER_CHARGES

@<TRIPOS>ATOM
      1 C1         -0.0167    1.3782    0.0096 C.ar      1 <0>        -0.1051
      2 C2          1.1708    2.0857    0.0021 C.ar      1 <0>        -0.0803
      3 C3          2.3776    1.4106   -0.0131 C.ar      1 <0>        -0.0910
      4 C4          2.3961    0.0278   -0.0207 C.ar      1 <0>        -0.0805
      5 C5          1.2083   -0.6792   -0.0132 C.ar      1 <0>        -0.1052
      6 C6          0.0021   -0.0041    0.0020 C.ar      1 <0>        -0.0890
      7 C7         -1.2927   -0.7751    0.0108 C.3       1 <0>        -0.0920
      8 C8         -1.7452   -1.0283   -1.4287 C.3       1 <0>         0.0774
      9 N1         -3.0039   -1.7779   -1.4202 N.pl3     1 <0>        -0.5950
     10 C9         -3.5755   -2.1055   -2.5459 C.cat     1 <0>         0.4633
     11 N2         -4.7574   -2.8093   -2.5379 N.pl3     1 <0>        -0.8003
     12 S1         -2.8337   -1.6465   -4.0768 S.3       1 <0>         0.0871
     13 C10        -3.9674   -2.3074   -5.3293 C.3       1 <0>        -0.1559
     14 C11        -3.4355   -1.9749   -6.7248 C.3       1 <0>        -0.1085
     15 C12        -4.3917   -2.5323   -7.7812 C.3       1 <0>        -0.0543
     16 C13        -3.8678   -2.2049   -9.1557 C.2       1 <0>         0.0189
     17 C14        -4.0685   -1.0540   -9.8257 C.2       1 <0>         0.0439
     18 N3         -3.4221   -1.1766  -11.0260 N.pl3     1 <0>        -0.5083
     19 C15        -2.8484   -2.3990  -11.0477 C.cat     1 <0>         0.3183
     20 N4         -3.1150   -3.0063   -9.9239 N.pl3     1 <0>        -0.4762
     21 H1         -3.3832   -0.5100  -11.7295 H         1 <0>         0.4716
     22 I1          4.1776    2.4824   -0.0252 I         1 <0>        -0.0211
     23 H2         -0.9592    1.9053    0.0260 H         1 <0>         0.1330
     24 H3          1.1560    3.1655    0.0077 H         1 <0>         0.1362
     25 H4          3.3384   -0.4997   -0.0329 H         1 <0>         0.1361
     26 H5          1.2227   -1.7591   -0.0191 H         1 <0>         0.1327
     27 H6         -1.1445   -1.7284    0.5180 H         1 <0>         0.0965
     28 H7         -2.0551   -0.1991    0.5353 H         1 <0>         0.0967
     29 H8         -1.8935   -0.0750   -1.9360 H         1 <0>         0.1167
     30 H9         -0.9829   -1.6043   -1.9532 H         1 <0>         0.1163
     31 H10        -5.1658   -3.0620   -1.6951 H         1 <0>         0.4324
     32 H11        -5.1825   -3.0529   -3.3751 H         1 <0>         0.4356
     33 H12        -4.0422   -3.3890   -5.2171 H         1 <0>         0.1185
     34 H13        -4.9528   -1.8597   -5.1998 H         1 <0>         0.1209
     35 H14        -3.3607   -0.8933   -6.8370 H         1 <0>         0.0973
     36 H15        -2.4502   -2.4226   -6.8542 H         1 <0>         0.0904
     37 H16        -4.4665   -3.6140   -7.6690 H         1 <0>         0.1042
     38 H17        -5.3771   -2.0847   -7.6517 H         1 <0>         0.1201
     39 H18        -4.6316   -0.1989   -9.4821 H         1 <0>         0.2277
     40 H19        -2.2626   -2.8050  -11.8591 H         1 <0>         0.2697
     41 H20        -3.4123   -2.0305   -0.5774 H         1 <0>         0.4352
     42 H21        -2.8174   -3.8975   -9.6828 H         1 <0>         0.4658
@<TRIPOS>BOND
     1    1    6 ar
     2    1    2 ar
     3    1   23 1
     4    2    3 ar
     5    2   24 1
     6    3    4 ar
     7    3   22 1
     8    4    5 ar
     9    4   25 1
    10    5    6 ar
    11    5   26 1
    12    6    7 1
    13    7    8 1
    14    7   27 1
    15    7   28 1
    16    8    9 1
    17    8   29 1
    18    8   30 1
    19    9   10 2
    20    9   41 1
    21   10   11 1
    22   10   12 1
    23   11   31 1
    24   11   32 1
    25   12   13 1
    26   13   14 1
    27   13   33 1
    28   13   34 1
    29   14   15 1
    30   14   35 1
    31   14   36 1
    32   15   37 1
    33   15   38 1
    34   15   16 1
    35   16   20 1
    36   16   17 2
    37   17   39 1
    38   17   18 1
    39   18   19 1
    40   18   21 1
    41   19   40 1
    42   19   20 2
    43   20   42 1
@<TRIPOS>MOLECULE
ZINC14979644
   41    42     0     0     0
SMALL
USER_CHARGES

@<TRIPOS>ATOM
      1 C1         -0.0167    1.3782    0.0096 C.ar      1 <0>        -0.1064
      2 C2          1.1708    2.0857    0.0021 C.ar      1 <0>        -0.0808
      3 C3          2.3776    1.4106   -0.0131 C.ar      1 <0>        -0.0925
      4 C4          2.3961    0.0278   -0.0207 C.ar      1 <0>        -0.0807
      5 C5          1.2083   -0.6792   -0.0132 C.ar      1 <0>        -0.1062
      6 C6          0.0021   -0.0041    0.0020 C.ar      1 <0>        -0.0858
      7 C7         -1.2927   -0.7751    0.0108 C.3       1 <0>        -0.0896
      8 C8         -1.7452   -1.0283   -1.4287 C.3       1 <0>         0.0818
      9 N1         -3.0039   -1.7779   -1.4202 N.pl3     1 <0>        -0.6452
     10 C9         -3.6068   -2.1234   -2.6075 C.cat     1 <0>         0.4698
     11 N2         -3.0577   -1.7837   -3.7407 N.pl3     1 <0>        -0.7520
     12 S1         -5.1206   -3.0249   -2.5973 S.3       1 <0>         0.0767
     13 C10        -5.5152   -3.2400   -4.3547 C.3       1 <0>        -0.1458
     14 C11        -6.8252   -4.0185   -4.4917 C.3       1 <0>        -0.1041
     15 C12        -7.1580   -4.1999   -5.9740 C.3       1 <0>        -0.0309
     16 C13        -8.4483   -4.9666   -6.1090 C.2       1 <0>        -0.0454
     17 C14        -8.5921   -6.3055   -6.0917 C.2       1 <0>        -0.0088
     18 N3         -9.8954   -6.5848   -6.2408 N.2       1 <0>        -0.4916
     19 C15       -10.5648   -5.4699   -6.3499 C.2       1 <0>         0.1987
     20 N4         -9.7001   -4.4359   -6.2669 N.pl3     1 <0>        -0.5675
     21 I1          4.1776    2.4824   -0.0252 I         1 <0>        -0.0248
     22 H1         -0.9592    1.9053    0.0260 H         1 <0>         0.1326
     23 H2          1.1560    3.1655    0.0077 H         1 <0>         0.1351
     24 H3          3.3384   -0.4997   -0.0329 H         1 <0>         0.1353
     25 H4          1.2227   -1.7591   -0.0191 H         1 <0>         0.1329
     26 H5         -1.1445   -1.7284    0.5180 H         1 <0>         0.0960
     27 H6         -2.0551   -0.1991    0.5353 H         1 <0>         0.0958
     28 H7         -1.8935   -0.0750   -1.9360 H         1 <0>         0.0989
     29 H8         -0.9829   -1.6043   -1.9532 H         1 <0>         0.0992
     30 H9         -3.4123   -2.0305   -0.5774 H         1 <0>         0.4440
     31 H10        -3.4828   -2.0273   -4.5779 H         1 <0>         0.4412
     32 H11        -5.6224   -2.2627   -4.8253 H         1 <0>         0.1148
     33 H12        -4.7118   -3.7920   -4.8425 H         1 <0>         0.1179
     34 H13        -6.7180   -4.9958   -4.0212 H         1 <0>         0.0939
     35 H14        -7.6286   -3.4665   -4.0039 H         1 <0>         0.0851
     36 H15        -7.2652   -3.2225   -6.4446 H         1 <0>         0.0782
     37 H16        -6.3546   -4.7519   -6.4619 H         1 <0>         0.0962
     38 H17        -7.7972   -7.0277   -5.9777 H         1 <0>         0.1700
     39 H18       -11.6337   -5.3877   -6.4809 H         1 <0>         0.2123
     40 H19        -2.2243   -1.2874   -3.7464 H         1 <0>         0.4315
     41 H20        -9.9241   -3.4932   -6.3127 H         1 <0>         0.4201
@<TRIPOS>BOND
     1    1    6 ar
     2    1    2 ar
     3    1   22 1
     4    2    3 ar
     5    2   23 1
     6    3    4 ar
     7    3   21 1
     8    4    5 ar
     9    4   24 1
    10    5    6 ar
    11    5   25 1
    12    6    7 1
    13    7    8 1
    14    7   26 1
    15    7   27 1
    16    8    9 1
    17    8   28 1
    18    8   29 1
    19    9   10 1
    20    9   30 1
    21   10   11 2
    22   10   12 1
    23   11   31 1
    24   11   40 1
    25   12   13 1
    26   13   14 1
    27   13   32 1
    28   13   33 1
    29   14   15 1
    30   14   34 1
    31   14   35 1
    32   15   16 1
    33   15   36 1
    34   15   37 1
    35   16   20 1
    36   16   17 2
    37   17   18 1
    38   17   38 1
    39   18   19 2
    40   19   20 1
    41   19   39 1
    42   20   41 1
@<TRIPOS>MOLECULE
ZINC14979644
   41    42     0     0     0
SMALL
USER_CHARGES

@<TRIPOS>ATOM
      1 C1         -0.0167    1.3782    0.0096 C.ar      1 <0>        -0.1048
      2 C2          1.1708    2.0857    0.0021 C.ar      1 <0>        -0.0806
      3 C3          2.3776    1.4106   -0.0131 C.ar      1 <0>        -0.0918
      4 C4          2.3961    0.0278   -0.0207 C.ar      1 <0>        -0.0808
      5 C5          1.2083   -0.6792   -0.0132 C.ar      1 <0>        -0.1050
      6 C6          0.0021   -0.0041    0.0020 C.ar      1 <0>        -0.0855
      7 C7         -1.2927   -0.7751    0.0108 C.3       1 <0>        -0.0912
      8 C8         -1.7452   -1.0283   -1.4287 C.3       1 <0>         0.0794
      9 N1         -3.0039   -1.7779   -1.4202 N.pl3     1 <0>        -0.6032
     10 C9         -3.5755   -2.1055   -2.5459 C.cat     1 <0>         0.4601
     11 N2         -4.7574   -2.8093   -2.5379 N.pl3     1 <0>        -0.8017
     12 S1         -2.8337   -1.6465   -4.0768 S.3       1 <0>         0.0848
     13 C10        -3.9674   -2.3074   -5.3293 C.3       1 <0>        -0.1457
     14 C11        -3.4355   -1.9749   -6.7248 C.3       1 <0>        -0.0993
     15 C12        -4.3917   -2.5323   -7.7812 C.3       1 <0>        -0.0209
     16 C13        -3.8678   -2.2049   -9.1557 C.2       1 <0>        -0.0131
     17 C14        -3.6323   -3.0887  -10.1441 C.2       1 <0>        -0.0445
     18 N3         -3.1673   -2.3721  -11.2137 N.pl3     1 <0>        -0.5673
     19 C15        -3.1348   -1.0745  -10.8413 C.2       1 <0>         0.1943
     20 N4         -3.5599   -0.9814   -9.6110 N.2       1 <0>        -0.4918
     21 H1         -2.9092   -2.7297  -12.0777 H         1 <0>         0.4255
     22 I1          4.1776    2.4824   -0.0252 I         1 <0>        -0.0260
     23 H2         -0.9592    1.9053    0.0260 H         1 <0>         0.1333
     24 H3          1.1560    3.1655    0.0077 H         1 <0>         0.1353
     25 H4          3.3384   -0.4997   -0.0329 H         1 <0>         0.1351
     26 H5          1.2227   -1.7591   -0.0191 H         1 <0>         0.1330
     27 H6         -1.1445   -1.7284    0.5180 H         1 <0>         0.0947
     28 H7         -2.0551   -0.1991    0.5353 H         1 <0>         0.0949
     29 H8         -1.8935   -0.0750   -1.9360 H         1 <0>         0.1155
     30 H9         -0.9829   -1.6043   -1.9532 H         1 <0>         0.1151
     31 H10        -5.1658   -3.0620   -1.6951 H         1 <0>         0.4279
     32 H11        -5.1825   -3.0529   -3.3751 H         1 <0>         0.4375
     33 H12        -4.0422   -3.3890   -5.2171 H         1 <0>         0.1138
     34 H13        -4.9528   -1.8597   -5.1998 H         1 <0>         0.1150
     35 H14        -3.3607   -0.8933   -6.8370 H         1 <0>         0.0936
     36 H15        -2.4502   -2.4226   -6.8542 H         1 <0>         0.0831
     37 H16        -4.4665   -3.6140   -7.6690 H         1 <0>         0.0811
     38 H17        -5.3771   -2.0847   -7.6517 H         1 <0>         0.0813
     39 H18        -3.7813   -4.1575  -10.1010 H         1 <0>         0.1771
     40 H19        -2.8141   -0.2498  -11.4606 H         1 <0>         0.2110
     41 H20        -3.4123   -2.0305   -0.5774 H         1 <0>         0.4307
@<TRIPOS>BOND
     1    1    6 ar
     2    1    2 ar
     3    1   23 1
     4    2    3 ar
     5    2   24 1
     6    3    4 ar
     7    3   22 1
     8    4    5 ar
     9    4   25 1
    10    5    6 ar
    11    5   26 1
    12    6    7 1
    13    7    8 1
    14    7   27 1
    15    7   28 1
    16    8    9 1
    17    8   29 1
    18    8   30 1
    19    9   10 2
    20    9   41 1
    21   10   11 1
    22   10   12 1
    23   11   31 1
    24   11   32 1
    25   12   13 1
    26   13   14 1
    27   13   33 1
    28   13   34 1
    29   14   15 1
    30   14   35 1
    31   14   36 1
    32   15   37 1
    33   15   38 1
    34   15   16 1
    35   16   20 1
    36   16   17 2
    37   17   39 1
    38   17   18 1
    39   18   19 1
    40   18   21 1
    41   19   40 1
    42   19   20 2
@<TRIPOS>MOLECULE
ZINC14979644
   41    42     0     0     0
SMALL
USER_CHARGES

@<TRIPOS>ATOM
      1 C1         -0.0167    1.3782    0.0096 C.ar      1 <0>        -0.1048
      2 C2          1.1708    2.0857    0.0021 C.ar      1 <0>        -0.0804
      3 C3          2.3776    1.4106   -0.0131 C.ar      1 <0>        -0.0916
      4 C4          2.3961    0.0278   -0.0207 C.ar      1 <0>        -0.0807
      5 C5          1.2083   -0.6792   -0.0132 C.ar      1 <0>        -0.1051
      6 C6          0.0021   -0.0041    0.0020 C.ar      1 <0>        -0.0863
      7 C7         -1.2927   -0.7751    0.0108 C.3       1 <0>        -0.0911
      8 C8         -1.7452   -1.0283   -1.4287 C.3       1 <0>         0.0788
      9 N1         -3.0039   -1.7779   -1.4202 N.pl3     1 <0>        -0.6015
     10 C9         -3.5755   -2.1055   -2.5459 C.cat     1 <0>         0.4610
     11 N2         -4.7574   -2.8093   -2.5379 N.pl3     1 <0>        -0.8013
     12 S1         -2.8337   -1.6465   -4.0768 S.3       1 <0>         0.0854
     13 C10        -3.9674   -2.3074   -5.3293 C.3       1 <0>        -0.1476
     14 C11        -3.4355   -1.9749   -6.7248 C.3       1 <0>        -0.1044
     15 C12        -4.3917   -2.5323   -7.7812 C.3       1 <0>        -0.0312
     16 C13        -3.8678   -2.2049   -9.1557 C.2       1 <0>        -0.0447
     17 C14        -4.0609   -1.0591   -9.8364 C.2       1 <0>        -0.0093
     18 N3         -3.4324   -1.1666  -11.0165 N.2       1 <0>        -0.4916
     19 C15        -2.8572   -2.3355  -11.0928 C.2       1 <0>         0.1983
     20 N4         -3.0993   -3.0126   -9.9498 N.pl3     1 <0>        -0.5675
     21 I1          4.1776    2.4824   -0.0252 I         1 <0>        -0.0250
     22 H1         -0.9592    1.9053    0.0260 H         1 <0>         0.1333
     23 H2          1.1560    3.1655    0.0077 H         1 <0>         0.1356
     24 H3          3.3384   -0.4997   -0.0329 H         1 <0>         0.1353
     25 H4          1.2227   -1.7591   -0.0191 H         1 <0>         0.1329
     26 H5         -1.1445   -1.7284    0.5180 H         1 <0>         0.0949
     27 H6         -2.0551   -0.1991    0.5353 H         1 <0>         0.0953
     28 H7         -1.8935   -0.0750   -1.9360 H         1 <0>         0.1159
     29 H8         -0.9829   -1.6043   -1.9532 H         1 <0>         0.1153
     30 H9         -5.1658   -3.0620   -1.6951 H         1 <0>         0.4288
     31 H10        -5.1825   -3.0529   -3.3751 H         1 <0>         0.4372
     32 H11        -4.0422   -3.3890   -5.2171 H         1 <0>         0.1144
     33 H12        -4.9528   -1.8597   -5.1998 H         1 <0>         0.1175
     34 H13        -3.3607   -0.8933   -6.8370 H         1 <0>         0.0928
     35 H14        -2.4502   -2.4226   -6.8542 H         1 <0>         0.0841
     36 H15        -4.4665   -3.6140   -7.6690 H         1 <0>         0.0780
     37 H16        -5.3771   -2.0847   -7.6517 H         1 <0>         0.0961
     38 H17        -4.6232   -0.2036   -9.4925 H         1 <0>         0.1698
     39 H18        -2.2797   -2.6994  -11.9298 H         1 <0>         0.2122
     40 H19        -3.4123   -2.0305   -0.5774 H         1 <0>         0.4316
     41 H20        -2.7885   -3.9055   -9.7329 H         1 <0>         0.4200
@<TRIPOS>BOND
     1    1    6 ar
     2    1    2 ar
     3    1   22 1
     4    2    3 ar
     5    2   23 1
     6    3    4 ar
     7    3   21 1
     8    4    5 ar
     9    4   24 1
    10    5    6 ar
    11    5   25 1
    12    6    7 1
    13    7    8 1
    14    7   26 1
    15    7   27 1
    16    8    9 1
    17    8   28 1
    18    8   29 1
    19    9   10 2
    20    9   40 1
    21   10   11 1
    22   10   12 1
    23   11   30 1
    24   11   31 1
    25   12   13 1
    26   13   14 1
    27   13   32 1
    28   13   33 1
    29   14   15 1
    30   14   34 1
    31   14   35 1
    32   15   36 1
    33   15   37 1
    34   15   16 1
    35   16   20 1
    36   16   17 2
    37   17   38 1
    38   17   18 1
    39   18   19 2
    40   19   39 1
    41   19   20 1
    42   20   41 1
@<TRIPOS>MOLECULE
ZINC14979644
   41    42     0     0     0
SMALL
USER_CHARGES

@<TRIPOS>ATOM
      1 C1         -0.0167    1.3782    0.0096 C.ar      1 <0>        -0.1064
      2 C2          1.1708    2.0857    0.0021 C.ar      1 <0>        -0.0809
      3 C3          2.3776    1.4106   -0.0131 C.ar      1 <0>        -0.0928
      4 C4          2.3961    0.0278   -0.0207 C.ar      1 <0>        -0.0808
      5 C5          1.2083   -0.6792   -0.0132 C.ar      1 <0>        -0.1062
      6 C6          0.0021   -0.0041    0.0020 C.ar      1 <0>        -0.0851
      7 C7         -1.2927   -0.7751    0.0108 C.3       1 <0>        -0.0897
      8 C8         -1.7452   -1.0283   -1.4287 C.3       1 <0>         0.0824
      9 N1         -3.0039   -1.7779   -1.4202 N.pl3     1 <0>        -0.6469
     10 C9         -3.6068   -2.1234   -2.6075 C.cat     1 <0>         0.4692
     11 N2         -3.0577   -1.7837   -3.7407 N.pl3     1 <0>        -0.7525
     12 S1         -5.1206   -3.0249   -2.5973 S.3       1 <0>         0.0762
     13 C10        -5.5152   -3.2400   -4.3547 C.3       1 <0>        -0.1440
     14 C11        -6.8252   -4.0185   -4.4917 C.3       1 <0>        -0.0991
     15 C12        -7.1580   -4.1999   -5.9740 C.3       1 <0>        -0.0206
     16 C13        -8.4483   -4.9666   -6.1090 C.2       1 <0>        -0.0136
     17 C14        -9.5356   -4.5710   -6.7981 C.2       1 <0>        -0.0441
     18 N3        -10.4733   -5.5585   -6.6596 N.pl3     1 <0>        -0.5672
     19 H1        -11.3644   -5.5639   -7.0426 H         1 <0>         0.4256
     20 C15        -9.9260   -6.5239   -5.8901 C.2       1 <0>         0.1946
     21 N4         -8.7131   -6.1654   -5.5687 N.2       1 <0>        -0.4919
     22 I1          4.1776    2.4824   -0.0252 I         1 <0>        -0.0255
     23 H2         -0.9592    1.9053    0.0260 H         1 <0>         0.1327
     24 H3          1.1560    3.1655    0.0077 H         1 <0>         0.1350
     25 H4          3.3384   -0.4997   -0.0329 H         1 <0>         0.1351
     26 H5          1.2227   -1.7591   -0.0191 H         1 <0>         0.1329
     27 H6         -1.1445   -1.7284    0.5180 H         1 <0>         0.0958
     28 H7         -2.0551   -0.1991    0.5353 H         1 <0>         0.0957
     29 H8         -1.8935   -0.0750   -1.9360 H         1 <0>         0.0983
     30 H9         -0.9829   -1.6043   -1.9532 H         1 <0>         0.0985
     31 H10        -3.4123   -2.0305   -0.5774 H         1 <0>         0.4437
     32 H11        -3.4828   -2.0273   -4.5779 H         1 <0>         0.4415
     33 H12        -5.6224   -2.2627   -4.8253 H         1 <0>         0.1142
     34 H13        -4.7118   -3.7920   -4.8425 H         1 <0>         0.1154
     35 H14        -6.7180   -4.9958   -4.0212 H         1 <0>         0.0946
     36 H15        -7.6286   -3.4665   -4.0039 H         1 <0>         0.0842
     37 H16        -7.2652   -3.2225   -6.4446 H         1 <0>         0.0813
     38 H17        -6.3546   -4.7519   -6.4619 H         1 <0>         0.0815
     39 H18        -9.6465   -3.6512   -7.3531 H         1 <0>         0.1771
     40 H19       -10.4104   -7.4424   -5.5932 H         1 <0>         0.2112
     41 H20        -2.2243   -1.2874   -3.7464 H         1 <0>         0.4306
@<TRIPOS>BOND
     1    1    6 ar
     2    1    2 ar
     3    1   23 1
     4    2    3 ar
     5    2   24 1
     6    3    4 ar
     7    3   22 1
     8    4    5 ar
     9    4   25 1
    10    5    6 ar
    11    5   26 1
    12    6    7 1
    13    7    8 1
    14    7   27 1
    15    7   28 1
    16    8    9 1
    17    8   29 1
    18    8   30 1
    19    9   10 1
    20    9   31 1
    21   10   11 2
    22   10   12 1
    23   11   32 1
    24   11   41 1
    25   12   13 1
    26   13   14 1
    27   13   33 1
    28   13   34 1
    29   14   15 1
    30   14   35 1
    31   14   36 1
    32   15   16 1
    33   15   37 1
    34   15   38 1
    35   16   21 1
    36   16   17 2
    37   17   18 1
    38   17   39 1
    39   18   19 1
    40   18   20 1
    41   20   21 2
    42   20   40 1
@<TRIPOS>MOLECULE
ZINC14979644
   41    42     0     0     0
SMALL
USER_CHARGES

@<TRIPOS>ATOM
      1 C1         -0.0167    1.3782    0.0096 C.ar      1 <0>        -0.1060
      2 C2          1.1708    2.0857    0.0021 C.ar      1 <0>        -0.0806
      3 C3          2.3776    1.4106   -0.0131 C.ar      1 <0>        -0.0919
      4 C4          2.3961    0.0278   -0.0207 C.ar      1 <0>        -0.0805
      5 C5          1.2083   -0.6792   -0.0132 C.ar      1 <0>        -0.1057
      6 C6          0.0021   -0.0041    0.0020 C.ar      1 <0>        -0.0872
      7 C7         -1.2927   -0.7751    0.0108 C.3       1 <0>        -0.0913
      8 C8         -1.7452   -1.0283   -1.4287 C.3       1 <0>         0.0705
      9 N1         -3.0039   -1.7779   -1.4202 N.pl3     1 <0>        -0.6007
     10 C9         -3.5755   -2.1055   -2.5459 C.cat     1 <0>         0.4684
     11 N2         -2.9964   -1.7472   -3.7411 N.pl3     1 <0>        -0.7972
     12 S1         -5.0894   -3.0070   -2.5356 S.3       1 <0>         0.0697
     13 C10        -5.4839   -3.2221   -4.2931 C.3       1 <0>        -0.1399
     14 C11        -6.7939   -4.0005   -4.4301 C.3       1 <0>        -0.1051
     15 C12        -7.1267   -4.1819   -5.9124 C.3       1 <0>        -0.0310
     16 C13        -8.4170   -4.9487   -6.0474 C.2       1 <0>        -0.0449
     17 C14        -8.5608   -6.2876   -6.0301 C.2       1 <0>        -0.0092
     18 N3         -9.8642   -6.5669   -6.1792 N.2       1 <0>        -0.4917
     19 C15       -10.5335   -5.4520   -6.2883 C.2       1 <0>         0.1985
     20 N4         -9.6689   -4.4180   -6.2053 N.pl3     1 <0>        -0.5675
     21 I1          4.1776    2.4824   -0.0252 I         1 <0>        -0.0239
     22 H1         -0.9592    1.9053    0.0260 H         1 <0>         0.1329
     23 H2          1.1560    3.1655    0.0077 H         1 <0>         0.1355
     24 H3          3.3384   -0.4997   -0.0329 H         1 <0>         0.1357
     25 H4          1.2227   -1.7591   -0.0191 H         1 <0>         0.1331
     26 H5         -1.1445   -1.7284    0.5180 H         1 <0>         0.0973
     27 H6         -2.0551   -0.1991    0.5353 H         1 <0>         0.0970
     28 H7         -1.8935   -0.0750   -1.9360 H         1 <0>         0.1077
     29 H8         -0.9829   -1.6043   -1.9532 H         1 <0>         0.1081
     30 H9         -2.1630   -1.2509   -3.7468 H         1 <0>         0.4285
     31 H10        -3.4214   -1.9908   -4.5783 H         1 <0>         0.4371
     32 H11        -5.5911   -2.2447   -4.7637 H         1 <0>         0.1149
     33 H12        -4.6805   -3.7740   -4.7809 H         1 <0>         0.1180
     34 H13        -6.6867   -4.9779   -3.9596 H         1 <0>         0.0932
     35 H14        -7.5973   -3.4485   -3.9423 H         1 <0>         0.0844
     36 H15        -7.2339   -3.2046   -6.3830 H         1 <0>         0.0781
     37 H16        -6.3233   -4.7339   -6.4003 H         1 <0>         0.0962
     38 H17        -7.7659   -7.0098   -5.9160 H         1 <0>         0.1699
     39 H18       -11.6024   -5.3698   -6.4192 H         1 <0>         0.2122
     40 H19        -3.4123   -2.0305   -0.5774 H         1 <0>         0.4475
     41 H20        -9.8928   -3.4753   -6.2511 H         1 <0>         0.4200
@<TRIPOS>BOND
     1    1    6 ar
     2    1    2 ar
     3    1   22 1
     4    2    3 ar
     5    2   23 1
     6    3    4 ar
     7    3   21 1
     8    4    5 ar
     9    4   24 1
    10    5    6 ar
    11    5   25 1
    12    6    7 1
    13    7    8 1
    14    7   26 1
    15    7   27 1
    16    8    9 1
    17    8   28 1
    18    8   29 1
    19    9   10 2
    20    9   40 1
    21   10   11 1
    22   10   12 1
    23   11   30 1
    24   11   31 1
    25   12   13 1
    26   13   14 1
    27   13   32 1
    28   13   33 1
    29   14   15 1
    30   14   34 1
    31   14   35 1
    32   15   36 1
    33   15   37 1
    34   15   16 1
    35   16   20 1
    36   16   17 2
    37   17   38 1
    38   17   18 1
    39   18   19 2
    40   19   39 1
    41   19   20 1
    42   20   41 1
@<TRIPOS>MOLECULE
ZINC14979644
   41    42     0     0     0
SMALL
USER_CHARGES

@<TRIPOS>ATOM
      1 C1         -0.0167    1.3782    0.0096 C.ar      1 <0>        -0.1059
      2 C2          1.1708    2.0857    0.0021 C.ar      1 <0>        -0.0807
      3 C3          2.3776    1.4106   -0.0131 C.ar      1 <0>        -0.0921
      4 C4          2.3961    0.0278   -0.0207 C.ar      1 <0>        -0.0806
      5 C5          1.2083   -0.6792   -0.0132 C.ar      1 <0>        -0.1058
      6 C6          0.0021   -0.0041    0.0020 C.ar      1 <0>        -0.0865
      7 C7         -1.2927   -0.7751    0.0108 C.3       1 <0>        -0.0914
      8 C8         -1.7452   -1.0283   -1.4287 C.3       1 <0>         0.0710
      9 N1         -3.0039   -1.7779   -1.4202 N.pl3     1 <0>        -0.6024
     10 C9         -3.5755   -2.1055   -2.5459 C.cat     1 <0>         0.4678
     11 N2         -2.9964   -1.7472   -3.7411 N.pl3     1 <0>        -0.7976
     12 S1         -5.0894   -3.0070   -2.5356 S.3       1 <0>         0.0692
     13 C10        -5.4839   -3.2221   -4.2931 C.3       1 <0>        -0.1380
     14 C11        -6.7939   -4.0005   -4.4301 C.3       1 <0>        -0.1001
     15 C12        -7.1267   -4.1819   -5.9124 C.3       1 <0>        -0.0207
     16 C13        -8.4170   -4.9487   -6.0474 C.2       1 <0>        -0.0133
     17 C14        -9.5043   -4.5531   -6.7365 C.2       1 <0>        -0.0443
     18 N3        -10.4420   -5.5406   -6.5980 N.pl3     1 <0>        -0.5673
     19 C15        -9.8947   -6.5060   -5.8284 C.2       1 <0>         0.1944
     20 N4         -8.6818   -6.1474   -5.5071 N.2       1 <0>        -0.4919
     21 H1        -11.3332   -5.5460   -6.9810 H         1 <0>         0.4255
     22 I1          4.1776    2.4824   -0.0252 I         1 <0>        -0.0246
     23 H2         -0.9592    1.9053    0.0260 H         1 <0>         0.1330
     24 H3          1.1560    3.1655    0.0077 H         1 <0>         0.1353
     25 H4          3.3384   -0.4997   -0.0329 H         1 <0>         0.1354
     26 H5          1.2227   -1.7591   -0.0191 H         1 <0>         0.1331
     27 H6         -1.1445   -1.7284    0.5180 H         1 <0>         0.0971
     28 H7         -2.0551   -0.1991    0.5353 H         1 <0>         0.0969
     29 H8         -1.8935   -0.0750   -1.9360 H         1 <0>         0.1071
     30 H9         -0.9829   -1.6043   -1.9532 H         1 <0>         0.1073
     31 H10        -2.1630   -1.2509   -3.7468 H         1 <0>         0.4275
     32 H11        -3.4214   -1.9908   -4.5783 H         1 <0>         0.4374
     33 H12        -5.5911   -2.2447   -4.7637 H         1 <0>         0.1143
     34 H13        -4.6805   -3.7740   -4.7809 H         1 <0>         0.1155
     35 H14        -6.6867   -4.9779   -3.9596 H         1 <0>         0.0939
     36 H15        -7.5973   -3.4485   -3.9423 H         1 <0>         0.0835
     37 H16        -7.2339   -3.2046   -6.3830 H         1 <0>         0.0813
     38 H17        -6.3233   -4.7339   -6.4003 H         1 <0>         0.0815
     39 H18        -9.6152   -3.6332   -7.2915 H         1 <0>         0.1772
     40 H19       -10.3791   -7.4245   -5.5316 H         1 <0>         0.2111
     41 H20        -3.4123   -2.0305   -0.5774 H         1 <0>         0.4472
@<TRIPOS>BOND
     1    1    6 ar
     2    1    2 ar
     3    1   23 1
     4    2    3 ar
     5    2   24 1
     6    3    4 ar
     7    3   22 1
     8    4    5 ar
     9    4   25 1
    10    5    6 ar
    11    5   26 1
    12    6    7 1
    13    7    8 1
    14    7   27 1
    15    7   28 1
    16    8    9 1
    17    8   29 1
    18    8   30 1
    19    9   10 2
    20    9   41 1
    21   10   11 1
    22   10   12 1
    23   11   31 1
    24   11   32 1
    25   12   13 1
    26   13   14 1
    27   13   33 1
    28   13   34 1
    29   14   15 1
    30   14   35 1
    31   14   36 1
    32   15   37 1
    33   15   38 1
    34   15   16 1
    35   16   20 1
    36   16   17 2
    37   17   39 1
    38   17   18 1
    39   18   19 1
    40   18   21 1
    41   19   40 1
    42   19   20 2
@<TRIPOS>MOLECULE
ZINC02022527
   54    55     0     0     0
SMALL
USER_CHARGES

@<TRIPOS>ATOM
      1 C1         -3.0730    2.2881   -4.2693 C.3       1 <0>        -0.1569
      2 C2         -2.3049    1.5870   -3.1471 C.3       1 <0>        -0.1270
      3 C3         -2.8110    2.0874   -1.7927 C.3       1 <0>        -0.1231
      4 C4         -2.0429    1.3862   -0.6705 C.3       1 <0>        -0.1174
      5 C5         -2.5490    1.8867    0.6839 C.3       1 <0>        -0.1006
      6 C6         -2.2117    3.3722    0.8391 C.3       1 <0>        -0.1451
      7 C7         -2.6658    3.8518    2.2196 C.3       1 <0>        -0.0114
      8 C8         -2.3347    1.6429    3.1595 C.3       1 <0>        -0.0001
      9 C9         -1.8707    1.0973    1.8070 C.3       1 <0>        -0.1442
     10 C10        -2.2939    3.5901    4.5974 C.3       1 <0>        -0.0052
     11 C11        -2.1583    5.1140    4.5919 C.3       1 <0>        -0.1459
     12 C12        -2.4764    5.6593    5.9856 C.3       1 <0>        -0.1543
     13 C13        -2.3428    7.1604    5.9803 C.2       1 <0>         0.3987
     14 O1         -2.0245    7.7371    4.9623 O.2       1 <0>        -0.4456
     15 C14        -2.5986    7.9263    7.2106 C.ar      1 <0>        -0.1885
     16 C15        -3.0878    7.2813    8.3513 C.ar      1 <0>        -0.0705
     17 C16        -3.3195    8.0047    9.5018 C.ar      1 <0>        -0.1389
     18 C17        -3.0801    9.3679    9.5265 C.ar      1 <0>        -0.0729
     19 C18        -2.6016   10.0143    8.4004 C.ar      1 <0>        -0.1345
     20 C19        -2.3594    9.3036    7.2436 C.ar      1 <0>        -0.0178
     21 C20        -1.8387   10.0095    6.0182 C.3       1 <0>        -0.1264
     22 H1         -4.1363    2.0676   -4.1746 H         1 <0>         0.0549
     23 H2         -2.9175    3.3647   -4.1985 H         1 <0>         0.0540
     24 H3         -2.7125    1.9316   -5.2342 H         1 <0>         0.0581
     25 H4         -1.2417    1.8075   -3.2417 H         1 <0>         0.0621
     26 H5         -2.4605    0.5104   -3.2179 H         1 <0>         0.0631
     27 H6         -3.8743    1.8669   -1.6981 H         1 <0>         0.0644
     28 H7         -2.6555    3.1639   -1.7219 H         1 <0>         0.0632
     29 H8         -2.1984    0.3097   -0.7413 H         1 <0>         0.0733
     30 H9         -0.9796    1.6067   -0.7651 H         1 <0>         0.0688
     31 H10        -3.6287    1.7492    0.7427 H         1 <0>         0.0884
     32 H11        -1.1354    3.5132    0.7407 H         1 <0>         0.0881
     33 H12        -2.7264    3.9447    0.0675 H         1 <0>         0.1133
     34 H13        -3.7442    3.7233    2.3122 H         1 <0>         0.1295
     35 H14        -2.4142    4.9057    2.3388 H         1 <0>         0.1342
     36 H15        -3.4146    1.5248    3.2476 H         1 <0>         0.1293
     37 H16        -1.8426    1.0924    3.9613 H         1 <0>         0.1282
     38 H17        -2.1418    0.0446    1.7270 H         1 <0>         0.1118
     39 H18        -0.7890    1.2025    1.7239 H         1 <0>         0.0880
     40 H19        -3.3133    3.3170    4.8704 H         1 <0>         0.1315
     41 H20        -1.5979    3.1659    5.3211 H         1 <0>         0.1302
     42 H21        -1.1389    5.3871    4.3190 H         1 <0>         0.0944
     43 H22        -2.8542    5.5382    3.8682 H         1 <0>         0.0968
     44 H23        -3.4115    5.4088    6.2361 H         1 <0>         0.0981
     45 H24        -1.7805    5.2352    6.7093 H         1 <0>         0.1100
     46 H25        -3.2793    6.2186    8.3321 H         1 <0>         0.1290
     47 H26        -3.6933    7.5074   10.3846 H         1 <0>         0.1322
     48 H27        -3.2682    9.9300   10.4293 H         1 <0>         0.1326
     49 H28        -2.4176   11.0782    8.4274 H         1 <0>         0.1332
     50 H29        -2.6709   10.2515    5.3572 H         1 <0>         0.0784
     51 H30        -1.3321   10.9277    6.3156 H         1 <0>         0.0652
     52 H31        -1.1365    9.3600    5.4956 H         1 <0>         0.0893
     53 N1         -1.9588    3.0696    3.2558 N.4       1 <0>        -0.3931
     54 H32        -0.9467    3.1581    3.1071 H         1 <0>         0.4272
@<TRIPOS>BOND
     1    1    2 1
     2    1   22 1
     3    1   23 1
     4    1   24 1
     5    2    3 1
     6    2   25 1
     7    2   26 1
     8    3    4 1
     9    3   27 1
    10    3   28 1
    11    4    5 1
    12    4   29 1
    13    4   30 1
    14    5    9 1
    15    5    6 1
    16    5   31 1
    17    6    7 1
    18    6   32 1
    19    6   33 1
    20    7   34 1
    21    7   35 1
    22    7   53 1
    23    8    9 1
    24    8   36 1
    25    8   37 1
    26    8   53 1
    27    9   38 1
    28    9   39 1
    29   10   11 1
    30   10   40 1
    31   10   41 1
    32   10   53 1
    33   11   12 1
    34   11   42 1
    35   11   43 1
    36   12   13 1
    37   12   44 1
    38   12   45 1
    39   13   14 2
    40   13   15 1
    41   15   20 ar
    42   15   16 ar
    43   16   17 ar
    44   16   46 1
    45   17   18 ar
    46   17   47 1
    47   18   19 ar
    48   18   48 1
    49   19   20 ar
    50   19   49 1
    51   20   21 1
    52   21   50 1
    53   21   51 1
    54   21   52 1
    55   53   54 1
@<TRIPOS>MOLECULE
ZINC19868747
   35    37     0     0     0
SMALL
USER_CHARGES

@<TRIPOS>ATOM
      1 C1          1.7302    1.7441   -0.9395 C.3       1 <0>         0.0240
      2 N1          1.2923    0.3866   -0.5886 N.3       1 <0>        -0.5432
      3 C2          1.3850   -0.5124   -1.7468 C.3       1 <0>         0.0387
      4 C3          0.7532   -1.8628   -1.3929 C.3       1 <0>         0.1167
      5 N2          1.3840   -2.3658   -0.1631 N.am      1 <0>        -0.6105
      6 C4          1.4518   -1.4694    1.0010 C.3       1 <0>         0.0883
      7 C5          2.0561   -0.1344    0.5529 C.3       1 <0>         0.0410
      8 C6          1.8862   -3.6152   -0.1043 C.2       1 <0>         0.5853
      9 O1          1.8175   -4.3446   -1.0754 O.2       1 <0>        -0.5148
     10 C7          2.5172   -4.0965    1.1337 C.2       1 <0>         0.0219
     11 C8          3.5030   -5.0289    1.2044 C.2       1 <0>        -0.1018
     12 C9          3.8299   -5.2082    2.5703 C.ar      1 <0>        -0.1076
     13 C10         4.7524   -6.0229    3.2398 C.ar      1 <0>        -0.0492
     14 C11         4.8387   -5.9739    4.6014 C.ar      1 <0>        -0.0596
     15 C12         4.0183   -5.1217    5.3321 C.ar      1 <0>        -0.0784
     16 C13         3.1040   -4.3122    4.6965 C.ar      1 <0>        -0.1163
     17 C14         2.9980   -4.3442    3.3087 C.ar      1 <0>         0.1111
     18 N3          2.2062   -3.6685    2.4098 N.pl3     1 <0>        -0.5787
     19 H1          1.5375   -3.0029    2.6350 H         1 <0>         0.4234
     20 Cl1         5.9824   -6.9851    5.4279 Cl        1 <0>        -0.0682
     21 H2          2.7874    1.7277   -1.2047 H         1 <0>         0.0280
     22 H3          1.1486    2.1058   -1.7875 H         1 <0>         0.0730
     23 H4          1.5797    2.4063   -0.0869 H         1 <0>         0.0722
     24 H5          0.8548   -0.0730   -2.5916 H         1 <0>         0.0931
     25 H6          2.4324   -0.6588   -2.0106 H         1 <0>         0.0418
     26 H7         -0.3169   -1.7349   -1.2296 H         1 <0>         0.0811
     27 H8          0.9205   -2.5696   -2.2056 H         1 <0>         0.1017
     28 H9          0.4489   -1.3036    1.3944 H         1 <0>         0.0850
     29 H10         2.0810   -1.9161    1.7709 H         1 <0>         0.0956
     30 H11         3.0942   -0.2862    0.2570 H         1 <0>         0.0428
     31 H12         2.0126    0.5790    1.3757 H         1 <0>         0.0919
     32 H13         3.9556   -5.5417    0.3686 H         1 <0>         0.1591
     33 H14         5.3933   -6.6881    2.6802 H         1 <0>         0.1382
     34 H15         4.0989   -5.0947    6.4088 H         1 <0>         0.1403
     35 H16         2.4707   -3.6541    5.2729 H         1 <0>         0.1342
@<TRIPOS>BOND
     1    1    2 1
     2    1   21 1
     3    1   22 1
     4    1   23 1
     5    2    7 1
     6    2    3 1
     7    3    4 1
     8    3   24 1
     9    3   25 1
    10    4    5 1
    11    4   26 1
    12    4   27 1
    13    5    6 1
    14    5    8 am
    15    6    7 1
    16    6   28 1
    17    6   29 1
    18    7   30 1
    19    7   31 1
    20    8    9 2
    21    8   10 1
    22   10   18 1
    23   10   11 2
    24   11   12 1
    25   11   32 1
    26   12   17 ar
    27   12   13 ar
    28   13   14 ar
    29   13   33 1
    30   14   15 ar
    31   14   20 1
    32   15   16 ar
    33   15   34 1
    34   16   17 ar
    35   16   35 1
    36   17   18 1
    37   18   19 1
@<TRIPOS>MOLECULE
ZINC02009079
   39    40     0     0     0
SMALL
USER_CHARGES

@<TRIPOS>ATOM
      1 C1          0.0021   -0.0041    0.0020 C.ar      1 <0>        -0.0275
      2 C2         -0.0166    1.3731    0.0096 C.ar      1 <0>        -0.1458
      3 C3          1.1761    2.0862    0.0020 C.ar      1 <0>         0.1503
      4 C4          2.3922    1.4139   -0.0131 C.ar      1 <0>        -0.2095
      5 C5          2.4200    0.0369   -0.0208 C.ar      1 <0>        -0.0283
      6 C6          1.2228   -0.6843   -0.0133 C.ar      1 <0>        -0.0538
      7 C7          1.2470   -2.1160   -0.0207 C.1       1 <0>         0.2441
      8 N1          1.2662   -3.2519   -0.0266 N.1       1 <0>        -0.4018
      9 O1          1.1532    3.4436    0.0095 O.3       1 <0>        -0.3084
     10 C8          2.4152    4.1138    0.0011 C.3       1 <0>         0.0598
     11 C9          2.1892    5.6269    0.0113 C.3       1 <0>        -0.1522
     12 C10         3.5405    6.3445    0.0023 C.3       1 <0>        -0.0017
     13 C11         2.6778    8.2414   -1.2298 C.3       1 <0>        -0.0076
     14 C12         2.3363    9.7295   -1.1248 C.3       1 <0>        -0.1474
     15 C13         3.6206   10.5271   -0.8819 C.3       1 <0>        -0.1399
     16 C14         4.2986   10.0124    0.3909 C.3       1 <0>        -0.1479
     17 C15         4.5832    8.5161    0.2420 C.3       1 <0>        -0.0013
     18 H1         -0.9253   -0.5575    0.0075 H         1 <0>         0.1456
     19 H2         -0.9596    1.8996    0.0169 H         1 <0>         0.1447
     20 H3          3.3168    1.9719   -0.0190 H         1 <0>         0.1364
     21 H4          3.3655   -0.4849   -0.0323 H         1 <0>         0.1397
     22 H5          2.9856    3.8256    0.8841 H         1 <0>         0.0765
     23 H6          2.9686    3.8351   -0.8957 H         1 <0>         0.0762
     24 H7          1.6189    5.9151   -0.8717 H         1 <0>         0.0997
     25 H8          1.6359    5.9056    0.9081 H         1 <0>         0.0998
     26 H9          4.1108    6.0563    0.8853 H         1 <0>         0.1336
     27 H10         4.0938    6.0659   -0.8945 H         1 <0>         0.1350
     28 H11         3.3557    8.0827   -2.0684 H         1 <0>         0.1309
     29 H12         1.7637    7.6693   -1.3885 H         1 <0>         0.1298
     30 H13         1.6475    9.8872   -0.2949 H         1 <0>         0.0878
     31 H14         1.8708   10.0629   -2.0524 H         1 <0>         0.1124
     32 H15         3.3768   11.5828   -0.7633 H         1 <0>         0.0944
     33 H16         4.2942   10.4017   -1.7296 H         1 <0>         0.0818
     34 H17         3.6407   10.1745    1.2447 H         1 <0>         0.0878
     35 H18         5.2355   10.5474    0.5460 H         1 <0>         0.1126
     36 H19         5.0531    8.1434    1.1523 H         1 <0>         0.1289
     37 H20         5.2521    8.3562   -0.6036 H         1 <0>         0.1305
     38 N2          3.3048    7.8027    0.0350 N.4       1 <0>        -0.3929
     39 H21         2.6719    8.0208    0.8136 H         1 <0>         0.4278
@<TRIPOS>BOND
     1    1    6 ar
     2    1    2 ar
     3    1   18 1
     4    2    3 ar
     5    2   19 1
     6    3    4 ar
     7    3    9 1
     8    4    5 ar
     9    4   20 1
    10    5    6 ar
    11    5   21 1
    12    6    7 1
    13    7    8 3
    14    9   10 1
    15   10   11 1
    16   10   22 1
    17   10   23 1
    18   11   12 1
    19   11   24 1
    20   11   25 1
    21   12   26 1
    22   12   27 1
    23   12   38 1
    24   13   14 1
    25   13   28 1
    26   13   29 1
    27   13   38 1
    28   14   15 1
    29   14   30 1
    30   14   31 1
    31   15   16 1
    32   15   32 1
    33   15   33 1
    34   16   17 1
    35   16   34 1
    36   16   35 1
    37   17   36 1
    38   17   37 1
    39   17   38 1
    40   38   39 1
@<TRIPOS>MOLECULE
ZINC01552001
   57    59     0     0     0
SMALL
USER_CHARGES

@<TRIPOS>ATOM
      1 C1         -0.0167    1.3784    0.0096 C.ar      1 <0>        -0.0525
      2 C2          1.1695    2.0865    0.0021 C.ar      1 <0>        -0.1434
      3 C3          2.3802    1.4093   -0.0131 C.ar      1 <0>         0.1609
      4 C4          2.3963    0.0221   -0.0206 C.ar      1 <0>        -0.2065
      5 C5          1.2074   -0.6814   -0.0130 C.ar      1 <0>        -0.0488
      6 C6          0.0021   -0.0041    0.0020 C.ar      1 <0>        -0.1921
      7 C7         -1.2934   -0.7740    0.0107 C.3       1 <0>         0.0458
      8 N1         -1.7280   -1.0167   -1.3714 N.4       1 <0>        -0.3814
      9 C8         -2.0325    0.2647   -2.0192 C.3       1 <0>        -0.0128
     10 C9         -2.4078    0.0241   -3.4830 C.3       1 <0>        -0.1444
     11 C10        -3.6375   -0.8864   -3.5460 C.3       1 <0>        -0.1403
     12 C11        -3.3334   -2.1905   -2.8029 C.3       1 <0>        -0.1462
     13 C12        -2.9239   -1.8678   -1.3643 C.3       1 <0>        -0.0078
     14 O1          3.5484    2.1036   -0.0209 O.3       1 <0>        -0.3055
     15 C13         4.7565    1.3405   -0.0365 C.3       1 <0>         0.0607
     16 C14         5.9580    2.2878   -0.0434 C.3       1 <0>        -0.1528
     17 C15         7.2515    1.4708   -0.0601 C.3       1 <0>        -0.0055
     18 N2          8.4050    2.3803   -0.0667 N.4       1 <0>        -0.3819
     19 C16         8.4087    3.1544   -1.3138 C.3       1 <0>        -0.0131
     20 C17         9.5614    4.1604   -1.2907 C.3       1 <0>        -0.1466
     21 C18        10.8871    3.4064   -1.1522 C.3       1 <0>        -0.1407
     22 C19        10.8433    2.5449    0.1131 C.3       1 <0>        -0.1472
     23 C20         9.6430    1.5987    0.0380 C.3       1 <0>        -0.0064
     24 H1         -0.9594    1.9052    0.0259 H         1 <0>         0.1422
     25 H2          1.1543    3.1664    0.0076 H         1 <0>         0.1458
     26 H3          3.3375   -0.5074   -0.0328 H         1 <0>         0.1380
     27 H4          1.2194   -1.7613   -0.0189 H         1 <0>         0.1370
     28 H5         -1.1460   -1.7274    0.5180 H         1 <0>         0.1373
     29 H6         -2.0553   -0.1973    0.5352 H         1 <0>         0.1367
     30 H7         -2.8662    0.7424   -1.5046 H         1 <0>         0.1290
     31 H8         -1.1574    0.9128   -1.9707 H         1 <0>         0.1277
     32 H9         -2.6352    0.9766   -3.9617 H         1 <0>         0.1115
     33 H10        -1.5745   -0.4533   -3.9986 H         1 <0>         0.0853
     34 H11        -4.4847   -0.3877   -3.0754 H         1 <0>         0.0831
     35 H12        -3.8749   -1.1067   -4.5868 H         1 <0>         0.0951
     36 H13        -4.2225   -2.8210   -2.7956 H         1 <0>         0.1140
     37 H14        -2.5194   -2.7139   -3.3044 H         1 <0>         0.0866
     38 H15        -2.7069   -2.7941   -0.8324 H         1 <0>         0.1308
     39 H16        -3.7386   -1.3447   -0.8637 H         1 <0>         0.1300
     40 H17         4.7979    0.7076    0.8500 H         1 <0>         0.0782
     41 H18         4.7806    0.7165   -0.9299 H         1 <0>         0.0770
     42 H19         5.9165    2.9207   -0.9299 H         1 <0>         0.1016
     43 H20         5.9338    2.9118    0.8500 H         1 <0>         0.1022
     44 H21         7.2929    0.8379    0.8264 H         1 <0>         0.1354
     45 H22         7.2756    0.8468   -0.9535 H         1 <0>         0.1333
     46 H23         8.5337    2.4787   -2.1600 H         1 <0>         0.1295
     47 H24         7.4633    3.6879   -1.4126 H         1 <0>         0.1304
     48 H25         9.5635    4.7330   -2.2183 H         1 <0>         0.1137
     49 H26         9.4373    4.8368   -0.4450 H         1 <0>         0.0887
     50 H27        11.0360    2.7679   -2.0230 H         1 <0>         0.0825
     51 H28        11.7069    4.1210   -1.0784 H         1 <0>         0.0968
     52 H29        11.7616    1.9626    0.1890 H         1 <0>         0.1149
     53 H30        10.7458    3.1878    0.9880 H         1 <0>         0.0889
     54 H31         9.6089    0.9837    0.9373 H         1 <0>         0.1313
     55 H32         9.7417    0.9562   -0.8370 H         1 <0>         0.1295
     56 H33        -0.9893   -1.4806   -1.8786 H         1 <0>         0.4200
     57 H34         8.3393    3.0110    0.7181 H         1 <0>         0.4246
@<TRIPOS>BOND
     1    1    6 ar
     2    1    2 ar
     3    1   24 1
     4    2    3 ar
     5    2   25 1
     6    3    4 ar
     7    3   14 1
     8    4    5 ar
     9    4   26 1
    10    5    6 ar
    11    5   27 1
    12    6    7 1
    13    7    8 1
    14    7   28 1
    15    7   29 1
    16    8   13 1
    17    8    9 1
    18    8   56 1
    19    9   10 1
    20    9   30 1
    21    9   31 1
    22   10   11 1
    23   10   32 1
    24   10   33 1
    25   11   12 1
    26   11   34 1
    27   11   35 1
    28   12   13 1
    29   12   36 1
    30   12   37 1
    31   13   38 1
    32   13   39 1
    33   14   15 1
    34   15   16 1
    35   15   40 1
    36   15   41 1
    37   16   17 1
    38   16   42 1
    39   16   43 1
    40   17   18 1
    41   17   44 1
    42   17   45 1
    43   18   23 1
    44   18   19 1
    45   18   57 1
    46   19   20 1
    47   19   46 1
    48   19   47 1
    49   20   21 1
    50   20   48 1
    51   20   49 1
    52   21   22 1
    53   21   50 1
    54   21   51 1
    55   22   23 1
    56   22   52 1
    57   22   53 1
    58   23   54 1
    59   23   55 1
@<TRIPOS>MOLECULE
ZINC00509902
   33    35     0     0     0
SMALL
USER_CHARGES
1H-indol-2-yl-piperazin-1-yl-methanone
@<TRIPOS>ATOM
      1 C1          3.0831   -3.1794   -7.0733 C.ar      1 <0>        -0.1415
      2 C2          4.1183   -2.3794   -6.6055 C.ar      1 <0>        -0.0708
      3 C3          3.9956   -1.6970   -5.4162 C.ar      1 <0>        -0.1402
      4 C4          2.8240   -1.8083   -4.6721 C.ar      1 <0>         0.1174
      5 C5          1.7761   -2.6199   -5.1485 C.ar      1 <0>        -0.1247
      6 C6          1.9254   -3.3039   -6.3621 C.ar      1 <0>        -0.0547
      7 C7          0.7310   -2.5462   -4.1961 C.2       1 <0>        -0.0769
      8 C8          1.1374   -1.7171   -3.1994 C.2       1 <0>        -0.0160
      9 N1          2.4127   -1.2651   -3.4780 N.pl3     1 <0>        -0.5901
     10 H1          2.9327   -0.6637   -2.9223 H         1 <0>         0.4156
     11 C9          0.3481   -1.3626   -2.0103 C.2       1 <0>         0.5988
     12 O1         -0.4819   -2.1394   -1.5774 O.2       1 <0>        -0.4886
     13 N2          0.5443   -0.1769   -1.4001 N.am      1 <0>        -0.6336
     14 C10        -0.2377    0.1995   -0.2127 C.3       1 <0>         0.0880
     15 C11        -0.8369    1.5906   -0.4454 C.3       1 <0>        -0.0166
     16 C12         0.8763    2.1434   -2.0705 C.3       1 <0>        -0.0147
     17 C13         1.5457    0.7750   -1.9044 C.3       1 <0>         0.0581
     18 H2          3.1957   -3.7073   -8.0087 H         1 <0>         0.1319
     19 H3          5.0280   -2.2915   -7.1810 H         1 <0>         0.1343
     20 H4          4.8060   -1.0778   -5.0609 H         1 <0>         0.1255
     21 H5          1.1264   -3.9284   -6.7335 H         1 <0>         0.1313
     22 H6         -0.2197   -3.0555   -4.2529 H         1 <0>         0.1590
     23 H7          0.4126    0.2226    0.6618 H         1 <0>         0.0987
     24 H8         -1.0388   -0.5224   -0.0543 H         1 <0>         0.1399
     25 H9         -1.5652    1.5421   -1.2549 H         1 <0>         0.1367
     26 H10        -1.3276    1.9323    0.4659 H         1 <0>         0.1489
     27 H11         1.6280    2.8860   -2.3378 H         1 <0>         0.1481
     28 H12         0.1241    2.0872   -2.8574 H         1 <0>         0.1379
     29 H13         2.3675    0.8533   -1.1926 H         1 <0>         0.1020
     30 H14         1.9236    0.4328   -2.8679 H         1 <0>         0.1365
     31 N3          0.2384    2.5381   -0.7991 N.4       1 <0>        -0.5159
     32 H15         0.9443    2.5419   -0.0536 H         1 <0>         0.4340
     33 H16        -0.1596    3.4793   -0.8985 H         1 <0>         0.4416
@<TRIPOS>BOND
     1    1    6 ar
     2    1    2 ar
     3    1   18 1
     4    2    3 ar
     5    2   19 1
     6    3    4 ar
     7    3   20 1
     8    4    9 1
     9    4    5 ar
    10    5    6 ar
    11    5    7 1
    12    6   21 1
    13    7    8 2
    14    7   22 1
    15    8    9 1
    16    8   11 1
    17    9   10 1
    18   11   12 2
    19   11   13 am
    20   13   17 1
    21   13   14 1
    22   14   15 1
    23   14   23 1
    24   14   24 1
    25   15   25 1
    26   15   26 1
    27   15   31 1
    28   16   17 1
    29   16   27 1
    30   16   28 1
    31   16   31 1
    32   17   29 1
    33   17   30 1
    34   31   32 1
    35   31   33 1
@<TRIPOS>MOLECULE
ZINC13518991
   19    20     0     0     0
SMALL
USER_CHARGES
(1R,2R)-2-(1H-imidazol-4-yl)cyclopropan-1-amine
@<TRIPOS>ATOM
      1 C1          1.9721    1.6218    2.3022 C.2       1 <0>        -0.0248
      2 C2          2.1321    0.7830    1.2609 C.2       1 <0>        -0.0109
      3 N1          3.1482   -0.0445    1.5470 N.2       1 <0>        -0.4867
      4 C3          3.6204    0.2461    2.7283 C.2       1 <0>         0.2063
      5 N2          2.9122    1.2779    3.2358 N.pl3     1 <0>        -0.5653
      6 H1          3.0490    1.7100    4.1272 H         1 <0>         0.4377
      7 C4          1.3165    0.7789   -0.0063 C.3       1 <0>        -0.0280
      8 H2          1.8888    0.7918   -0.9339 H         1 <0>         0.1399
      9 C5         -0.0187    1.5258    0.0104 C.3       1 <0>        -0.1436
     10 C6          0.0021   -0.0041    0.0020 C.3       1 <0>        -0.0684
     11 H3         -0.2732   -0.5162    0.9240 H         1 <0>         0.1771
     12 H4          1.2412    2.4126    2.3856 H         1 <0>         0.1805
     13 H5          4.4413   -0.2557    3.2190 H         1 <0>         0.2168
     14 H6         -0.3248    2.0300   -0.9061 H         1 <0>         0.1298
     15 H7         -0.3072    2.0201    0.9381 H         1 <0>         0.1335
     16 H8         -1.2698   -1.1652   -1.1259 H         1 <0>         0.4424
     17 H9         -0.4369   -0.0286   -2.0092 H         1 <0>         0.4350
     18 N3         -0.3728   -0.6970   -1.2432 N.4       1 <0>        -0.6150
     19 H10         0.3436   -1.3972   -1.4686 H         1 <0>         0.4437
@<TRIPOS>BOND
     1    1    5 1
     2    1    2 2
     3    1   12 1
     4    2    3 1
     5    2    7 1
     6    3    4 2
     7    4    5 1
     8    4   13 1
     9    5    6 1
    10    7    8 1
    11    7   10 1
    12    7    9 1
    13    9   10 1
    14    9   14 1
    15    9   15 1
    16   10   11 1
    17   10   18 1
    18   16   18 1
    19   17   18 1
    20   18   19 1
@<TRIPOS>MOLECULE
ZINC13518991
   20    21     0     0     0
SMALL
USER_CHARGES
(1R,2R)-2-(1H-imidazol-4-yl)cyclopropan-1-amine
@<TRIPOS>ATOM
      1 C1          1.9721    1.6218    2.3022 C.2       1 <0>         0.0629
      2 C2          2.1321    0.7830    1.2609 C.2       1 <0>         0.0231
      3 C3          3.6204    0.2461    2.7283 C.cat     1 <0>         0.3341
      4 N1          2.9122    1.2779    3.2358 N.pl3     1 <0>        -0.5124
      5 H1          3.0490    1.7100    4.1272 H         1 <0>         0.4846
      6 C4          1.3165    0.7789   -0.0063 C.3       1 <0>        -0.0864
      7 H2          1.8888    0.7918   -0.9339 H         1 <0>         0.1619
      8 C5         -0.0187    1.5258    0.0104 C.3       1 <0>        -0.1203
      9 C6          0.0021   -0.0041    0.0020 C.3       1 <0>        -0.0525
     10 H3         -0.2732   -0.5162    0.9240 H         1 <0>         0.1860
     11 H4          1.2412    2.4126    2.3856 H         1 <0>         0.2290
     12 H5          4.4413   -0.2557    3.2190 H         1 <0>         0.2734
     13 H6         -0.3248    2.0300   -0.9061 H         1 <0>         0.1473
     14 H7         -0.3072    2.0201    0.9381 H         1 <0>         0.1452
     15 H8         -1.2698   -1.1652   -1.1259 H         1 <0>         0.4541
     16 H9         -0.4369   -0.0286   -2.0092 H         1 <0>         0.4431
     17 N2         -0.3728   -0.6970   -1.2432 N.4       1 <0>        -0.6188
     18 H10         0.3436   -1.3972   -1.4686 H         1 <0>         0.4450
     19 N3          3.1477   -0.0435    1.5478 N.pl3     1 <0>        -0.4827
     20 H11         3.4987   -0.7882    0.9341 H         1 <0>         0.4835
@<TRIPOS>BOND
     1    1    4 1
     2    1    2 2
     3    1   11 1
     4    2    6 1
     5    2   19 1
     6    3    4 1
     7    3   12 1
     8    3   19 2
     9    4    5 1
    10    6    7 1
    11    6    9 1
    12    6    8 1
    13    8    9 1
    14    8   13 1
    15    8   14 1
    16    9   10 1
    17    9   17 1
    18   15   17 1
    19   16   17 1
    20   17   18 1
    21   19   20 1
@<TRIPOS>MOLECULE
ZINC13518995
   19    20     0     0     0
SMALL
USER_CHARGES
(1S,2S)-2-(1H-imidazol-4-yl)cyclopropan-1-amine
@<TRIPOS>ATOM
      1 C1         -0.7050    3.1521    0.0257 C.2       1 <0>        -0.0248
      2 C2          0.6414    3.1322    0.0128 C.2       1 <0>        -0.0108
      3 N1          1.0374    1.8508    0.0021 N.2       1 <0>        -0.4865
      4 C3         -0.0126    1.0758    0.0080 C.2       1 <0>         0.2063
      5 N2         -1.1205    1.8479    0.0168 N.pl3     1 <0>        -0.5652
      6 H1         -2.0676    1.5268    0.0168 H         1 <0>         0.4377
      7 C4          1.5450    4.3383    0.0111 C.3       1 <0>        -0.0261
      8 H2          2.3184    4.3453   -0.7570 H         1 <0>         0.1399
      9 C5          0.9302    5.6821    0.4074 C.3       1 <0>        -0.1486
     10 C6          1.8868    4.9669    1.3635 C.3       1 <0>        -0.0671
     11 H3          1.4584    4.5078    2.2545 H         1 <0>         0.1790
     12 H4         -1.3359    4.0287    0.0368 H         1 <0>         0.1805
     13 H5          0.0021   -0.0041    0.0020 H         1 <0>         0.2169
     14 H6          1.2989    6.5735   -0.1001 H         1 <0>         0.1303
     15 H7         -0.1278    5.6939    0.6693 H         1 <0>         0.1332
     16 H8          3.3513    5.9206    2.4516 H         1 <0>         0.4426
     17 H9          3.9416    4.8446    1.3292 H         1 <0>         0.4412
     18 N3          3.2312    5.5521    1.5096 N.4       1 <0>        -0.6153
     19 H10         3.3414    6.3173    0.8339 H         1 <0>         0.4368
@<TRIPOS>BOND
     1    1    5 1
     2    1    2 2
     3    1   12 1
     4    2    3 1
     5    2    7 1
     6    3    4 2
     7    4    5 1
     8    4   13 1
     9    5    6 1
    10    7    8 1
    11    7   10 1
    12    7    9 1
    13    9   10 1
    14    9   14 1
    15    9   15 1
    16   10   11 1
    17   10   18 1
    18   16   18 1
    19   17   18 1
    20   18   19 1
@<TRIPOS>MOLECULE
ZINC13518995
   20    21     0     0     0
SMALL
USER_CHARGES
(1S,2S)-2-(1H-imidazol-4-yl)cyclopropan-1-amine
@<TRIPOS>ATOM
      1 C1         -0.7050    3.1521    0.0257 C.2       1 <0>         0.0629
      2 C2          0.6414    3.1322    0.0128 C.2       1 <0>         0.0232
      3 C3         -0.0126    1.0758    0.0080 C.cat     1 <0>         0.3343
      4 N1         -1.1205    1.8479    0.0168 N.pl3     1 <0>        -0.5124
      5 H1         -2.0676    1.5268    0.0168 H         1 <0>         0.4846
      6 C4          1.5450    4.3383    0.0111 C.3       1 <0>        -0.0845
      7 H2          2.3184    4.3453   -0.7570 H         1 <0>         0.1618
      8 C5          0.9302    5.6821    0.4074 C.3       1 <0>        -0.1253
      9 C6          1.8868    4.9669    1.3635 C.3       1 <0>        -0.0515
     10 H3          1.4584    4.5078    2.2545 H         1 <0>         0.1878
     11 H4         -1.3359    4.0287    0.0368 H         1 <0>         0.2290
     12 H5          0.0021   -0.0041    0.0020 H         1 <0>         0.2734
     13 H6          1.2989    6.5735   -0.1001 H         1 <0>         0.1478
     14 H7         -0.1278    5.6939    0.6693 H         1 <0>         0.1449
     15 H8          3.3513    5.9206    2.4516 H         1 <0>         0.4541
     16 H9          3.9416    4.8446    1.3292 H         1 <0>         0.4429
     17 N2          3.2312    5.5521    1.5096 N.4       1 <0>        -0.6192
     18 H10         3.3414    6.3173    0.8339 H         1 <0>         0.4452
     19 N3          1.0361    1.8512    0.0021 N.pl3     1 <0>        -0.4826
     20 H11         2.0115    1.5306   -0.0090 H         1 <0>         0.4836
@<TRIPOS>BOND
     1    1    4 1
     2    1    2 2
     3    1   11 1
     4    2    6 1
     5    2   19 1
     6    3    4 1
     7    3   12 1
     8    3   19 2
     9    4    5 1
    10    6    7 1
    11    6    9 1
    12    6    8 1
    13    8    9 1
    14    8   13 1
    15    8   14 1
    16    9   10 1
    17    9   17 1
    18   15   17 1
    19   16   17 1
    20   17   18 1
    21   19   20 1
@<TRIPOS>MOLECULE
ZINC01892860
   38    40     0     0     0
SMALL
USER_CHARGES

@<TRIPOS>ATOM
      1 C1         -0.0169    1.3962    0.0097 C.ar      1 <0>        -0.0188
      2 C2          1.1625    2.0954    0.0022 C.ar      1 <0>        -0.1651
      3 C3          2.3762    1.4165   -0.0135 C.ar      1 <0>         0.1662
      4 C4          2.4006    0.0259   -0.0212 C.ar      1 <0>        -0.2246
      5 C5          1.2269   -0.6828   -0.0138 C.ar      1 <0>        -0.0273
      6 C6          0.0021   -0.0041    0.0020 C.ar      1 <0>        -0.2066
      7 C7         -1.2581   -0.7581    0.0100 C.2       1 <0>         0.4281
      8 O1         -2.3178   -0.1681    0.0233 O.2       1 <0>        -0.4587
      9 C8         -1.2347   -2.2649    0.0017 C.3       1 <0>        -0.2225
     10 C9         -2.2150   -2.9815   -0.9291 C.3       1 <0>        -0.1476
     11 C10        -2.4480   -2.9935    0.5829 C.3       1 <0>        -0.1501
     12 O2          3.5404    2.1130   -0.0218 O.3       1 <0>        -0.3084
     13 C11         4.7507    1.3535   -0.0378 C.3       1 <0>         0.0562
     14 C12         5.9494    2.3043   -0.0452 C.3       1 <0>        -0.1155
     15 C13         7.2453    1.4912   -0.0624 C.3       1 <0>        -0.0389
     16 C14         8.4259    2.4277   -0.0696 C.2       1 <0>        -0.0275
     17 C15         8.9817    3.0104   -1.1490 C.2       1 <0>        -0.0181
     18 N1         10.0067    3.7674   -0.7302 N.2       1 <0>        -0.4935
     19 C16        10.1072    3.6759    0.5677 C.2       1 <0>         0.1869
     20 N2          9.1358    2.8542    1.0203 N.pl3     1 <0>        -0.5676
     21 H1          8.9728    2.6101    1.9448 H         1 <0>         0.4194
     22 H2         -0.9588    1.9243    0.0260 H         1 <0>         0.1415
     23 H3          1.1490    3.1753    0.0081 H         1 <0>         0.1389
     24 H4          3.3458   -0.4966   -0.0334 H         1 <0>         0.1353
     25 H5          1.2469   -1.7626   -0.0205 H         1 <0>         0.1358
     26 H6         -0.2556   -2.7207    0.1493 H         1 <0>         0.1249
     27 H7         -2.8768   -2.3632   -1.5355 H         1 <0>         0.1023
     28 H8         -1.8808   -3.9090   -1.3942 H         1 <0>         0.1060
     29 H9         -2.2673   -3.9288    1.1127 H         1 <0>         0.1052
     30 H10        -3.2632   -2.3830    0.9714 H         1 <0>         0.1050
     31 H11         4.7943    0.7207    0.8486 H         1 <0>         0.0663
     32 H12         4.7763    0.7297   -0.9313 H         1 <0>         0.0696
     33 H13         5.9057    2.9372   -0.9316 H         1 <0>         0.0830
     34 H14         5.9237    2.9282    0.8483 H         1 <0>         0.0740
     35 H15         7.2889    0.8584    0.8240 H         1 <0>         0.0743
     36 H16         7.2709    0.8673   -0.9558 H         1 <0>         0.0930
     37 H17         8.6588    2.8894   -2.1725 H         1 <0>         0.1696
     38 H18        10.8428    4.1775    1.1790 H         1 <0>         0.2092
@<TRIPOS>BOND
     1    1    6 ar
     2    1    2 ar
     3    1   22 1
     4    2    3 ar
     5    2   23 1
     6    3    4 ar
     7    3   12 1
     8    4    5 ar
     9    4   24 1
    10    5    6 ar
    11    5   25 1
    12    6    7 1
    13    7    8 2
    14    7    9 1
    15    9   11 1
    16    9   10 1
    17    9   26 1
    18   10   11 1
    19   10   27 1
    20   10   28 1
    21   11   29 1
    22   11   30 1
    23   12   13 1
    24   13   14 1
    25   13   31 1
    26   13   32 1
    27   14   15 1
    28   14   33 1
    29   14   34 1
    30   15   16 1
    31   15   35 1
    32   15   36 1
    33   16   20 1
    34   16   17 2
    35   17   18 1
    36   17   37 1
    37   18   19 2
    38   19   20 1
    39   19   38 1
    40   20   21 1
@<TRIPOS>MOLECULE
ZINC01892860
   39    41     0     0     0
SMALL
USER_CHARGES

@<TRIPOS>ATOM
      1 C1         -0.0169    1.3962    0.0097 C.ar      1 <0>        -0.0189
      2 C2          1.1625    2.0954    0.0022 C.ar      1 <0>        -0.1606
      3 C3          2.3762    1.4165   -0.0135 C.ar      1 <0>         0.1572
      4 C4          2.4006    0.0259   -0.0212 C.ar      1 <0>        -0.2224
      5 C5          1.2269   -0.6828   -0.0138 C.ar      1 <0>        -0.0284
      6 C6          0.0021   -0.0041    0.0020 C.ar      1 <0>        -0.1965
      7 C7         -1.2581   -0.7581    0.0100 C.2       1 <0>         0.4253
      8 O1         -2.3178   -0.1681    0.0233 O.2       1 <0>        -0.4527
      9 C8         -1.2347   -2.2649    0.0017 C.3       1 <0>        -0.2245
     10 C9         -2.2150   -2.9815   -0.9291 C.3       1 <0>        -0.1467
     11 C10        -2.4480   -2.9935    0.5829 C.3       1 <0>        -0.1489
     12 O2          3.5404    2.1130   -0.0218 O.3       1 <0>        -0.3105
     13 C11         4.7507    1.3535   -0.0378 C.3       1 <0>         0.0546
     14 C12         5.9494    2.3043   -0.0452 C.3       1 <0>        -0.1206
     15 C13         7.2453    1.4912   -0.0624 C.3       1 <0>        -0.0608
     16 C14         8.4259    2.4277   -0.0696 C.2       1 <0>         0.0335
     17 C15         8.9723    3.0039   -1.1573 C.2       1 <0>         0.0370
     18 N1         10.0150    3.7732   -0.7163 N.pl3     1 <0>        -0.5090
     19 H1         10.6046    4.3131   -1.2656 H         1 <0>         0.4686
     20 C16        10.0696    3.6402    0.6265 C.cat     1 <0>         0.3079
     21 N2          9.1131    2.8380    1.0067 N.pl3     1 <0>        -0.4748
     22 H2         -0.9588    1.9243    0.0260 H         1 <0>         0.1443
     23 H3          1.1490    3.1753    0.0081 H         1 <0>         0.1393
     24 H4          3.3458   -0.4966   -0.0334 H         1 <0>         0.1336
     25 H5          1.2469   -1.7626   -0.0205 H         1 <0>         0.1381
     26 H6         -0.2556   -2.7207    0.1493 H         1 <0>         0.1243
     27 H7         -2.8768   -2.3632   -1.5355 H         1 <0>         0.1031
     28 H8         -1.8808   -3.9090   -1.3942 H         1 <0>         0.1071
     29 H9         -2.2673   -3.9288    1.1127 H         1 <0>         0.1065
     30 H10        -3.2632   -2.3830    0.9714 H         1 <0>         0.1060
     31 H11         4.7943    0.7207    0.8486 H         1 <0>         0.0700
     32 H12         4.7763    0.7297   -0.9313 H         1 <0>         0.0726
     33 H13         5.9057    2.9372   -0.9316 H         1 <0>         0.0877
     34 H14         5.9237    2.9282    0.8483 H         1 <0>         0.0805
     35 H15         7.2889    0.8584    0.8240 H         1 <0>         0.1009
     36 H16         7.2709    0.8673   -0.9558 H         1 <0>         0.1173
     37 H17         8.6499    2.8822   -2.1808 H         1 <0>         0.2275
     38 H18        10.7840    4.1213    1.2782 H         1 <0>         0.2672
     39 H19         8.9293    2.5779    1.9229 H         1 <0>         0.4653
@<TRIPOS>BOND
     1    1    6 ar
     2    1    2 ar
     3    1   22 1
     4    2    3 ar
     5    2   23 1
     6    3    4 ar
     7    3   12 1
     8    4    5 ar
     9    4   24 1
    10    5    6 ar
    11    5   25 1
    12    6    7 1
    13    7    8 2
    14    7    9 1
    15    9   11 1
    16    9   10 1
    17    9   26 1
    18   10   11 1
    19   10   27 1
    20   10   28 1
    21   11   29 1
    22   11   30 1
    23   12   13 1
    24   13   14 1
    25   13   31 1
    26   13   32 1
    27   14   15 1
    28   14   33 1
    29   14   34 1
    30   15   16 1
    31   15   35 1
    32   15   36 1
    33   16   21 1
    34   16   17 2
    35   17   18 1
    36   17   37 1
    37   18   19 1
    38   18   20 1
    39   20   21 2
    40   20   38 1
    41   21   39 1
@<TRIPOS>MOLECULE
ZINC01892860
   39    41     0     0     0
SMALL
USER_CHARGES

@<TRIPOS>ATOM
      1 C1         -0.0169    1.3962    0.0097 C.ar      1 <0>        -0.0189
      2 C2          1.1625    2.0954    0.0022 C.ar      1 <0>        -0.1606
      3 C3          2.3762    1.4165   -0.0135 C.ar      1 <0>         0.1572
      4 C4          2.4006    0.0259   -0.0212 C.ar      1 <0>        -0.2224
      5 C5          1.2269   -0.6828   -0.0138 C.ar      1 <0>        -0.0284
      6 C6          0.0021   -0.0041    0.0020 C.ar      1 <0>        -0.1965
      7 C7         -1.2581   -0.7581    0.0100 C.2       1 <0>         0.4253
      8 O1         -2.3178   -0.1681    0.0233 O.2       1 <0>        -0.4527
      9 C8         -1.2347   -2.2649    0.0017 C.3       1 <0>        -0.2245
     10 C9         -2.2150   -2.9815   -0.9291 C.3       1 <0>        -0.1467
     11 C10        -2.4480   -2.9935    0.5829 C.3       1 <0>        -0.1489
     12 O2          3.5404    2.1130   -0.0218 O.3       1 <0>        -0.3104
     13 C11         4.7507    1.3535   -0.0378 C.3       1 <0>         0.0547
     14 C12         5.9494    2.3043   -0.0452 C.3       1 <0>        -0.1201
     15 C13         7.2453    1.4912   -0.0624 C.3       1 <0>        -0.0608
     16 C14         8.4259    2.4277   -0.0696 C.2       1 <0>         0.0635
     17 N1          9.1358    2.8542    1.0203 N.pl3     1 <0>        -0.5108
     18 C15        10.1053    3.6783    0.5680 C.cat     1 <0>         0.3073
     19 N2         10.0094    3.7640   -0.7306 N.pl3     1 <0>        -0.4727
     20 C16         8.9890    3.0012   -1.1501 C.2       1 <0>         0.0056
     21 H1         -0.9588    1.9243    0.0260 H         1 <0>         0.1443
     22 H2          1.1490    3.1753    0.0081 H         1 <0>         0.1393
     23 H3          3.3458   -0.4966   -0.0334 H         1 <0>         0.1337
     24 H4          1.2469   -1.7626   -0.0205 H         1 <0>         0.1381
     25 H5         -0.2556   -2.7207    0.1493 H         1 <0>         0.1243
     26 H6         -2.8768   -2.3632   -1.5355 H         1 <0>         0.1031
     27 H7         -1.8808   -3.9090   -1.3942 H         1 <0>         0.1071
     28 H8         -2.2673   -3.9288    1.1127 H         1 <0>         0.1065
     29 H9         -3.2632   -2.3830    0.9714 H         1 <0>         0.1060
     30 H10         4.7943    0.7207    0.8486 H         1 <0>         0.0702
     31 H11         4.7763    0.7297   -0.9313 H         1 <0>         0.0727
     32 H12         5.9057    2.9372   -0.9316 H         1 <0>         0.0879
     33 H13         5.9237    2.9282    0.8483 H         1 <0>         0.0810
     34 H14         7.2889    0.8584    0.8240 H         1 <0>         0.1020
     35 H15         7.2709    0.8673   -0.9558 H         1 <0>         0.1186
     36 H16        10.8383    4.1831    1.1797 H         1 <0>         0.2671
     37 H17         8.6728    2.8717   -2.1747 H         1 <0>         0.2253
     38 H18         8.9728    2.6101    1.9448 H         1 <0>         0.4657
     39 H19        10.5871    4.2932   -1.3026 H         1 <0>         0.4682
@<TRIPOS>BOND
     1    1    6 ar
     2    1    2 ar
     3    1   21 1
     4    2    3 ar
     5    2   22 1
     6    3    4 ar
     7    3   12 1
     8    4    5 ar
     9    4   23 1
    10    5    6 ar
    11    5   24 1
    12    6    7 1
    13    7    8 2
    14    7    9 1
    15    9   11 1
    16    9   10 1
    17    9   25 1
    18   10   11 1
    19   10   26 1
    20   10   27 1
    21   11   28 1
    22   11   29 1
    23   12   13 1
    24   13   14 1
    25   13   30 1
    26   13   31 1
    27   14   15 1
    28   14   32 1
    29   14   33 1
    30   15   34 1
    31   15   35 1
    32   15   16 1
    33   16   17 1
    34   16   20 2
    35   17   18 1
    36   17   38 1
    37   18   36 1
    38   18   19 2
    39   19   20 1
    40   19   39 1
    41   20   37 1
@<TRIPOS>MOLECULE
ZINC01892860
   38    40     0     0     0
SMALL
USER_CHARGES

@<TRIPOS>ATOM
      1 C1         -0.0169    1.3962    0.0097 C.ar      1 <0>        -0.0188
      2 C2          1.1625    2.0954    0.0022 C.ar      1 <0>        -0.1665
      3 C3          2.3762    1.4165   -0.0135 C.ar      1 <0>         0.1685
      4 C4          2.4006    0.0259   -0.0212 C.ar      1 <0>        -0.2252
      5 C5          1.2269   -0.6828   -0.0138 C.ar      1 <0>        -0.0271
      6 C6          0.0021   -0.0041    0.0020 C.ar      1 <0>        -0.2089
      7 C7         -1.2581   -0.7581    0.0100 C.2       1 <0>         0.4286
      8 O1         -2.3178   -0.1681    0.0233 O.2       1 <0>        -0.4599
      9 C8         -1.2347   -2.2649    0.0017 C.3       1 <0>        -0.2221
     10 C9         -2.2150   -2.9815   -0.9291 C.3       1 <0>        -0.1479
     11 C10        -2.4480   -2.9935    0.5829 C.3       1 <0>        -0.1503
     12 O2          3.5404    2.1130   -0.0218 O.3       1 <0>        -0.3077
     13 C11         4.7507    1.3535   -0.0378 C.3       1 <0>         0.0561
     14 C12         5.9494    2.3043   -0.0452 C.3       1 <0>        -0.1106
     15 C13         7.2453    1.4912   -0.0624 C.3       1 <0>        -0.0289
     16 C14         8.4259    2.4277   -0.0696 C.2       1 <0>         0.0011
     17 N1          8.6474    3.4100   -0.9557 N.2       1 <0>        -0.4885
     18 C15         9.7636    4.0161   -0.6562 C.2       1 <0>         0.1872
     19 N2         10.2924    3.4325    0.4408 N.pl3     1 <0>        -0.5707
     20 C16         9.4406    2.4288    0.8158 C.2       1 <0>        -0.0525
     21 H1         -0.9588    1.9243    0.0260 H         1 <0>         0.1408
     22 H2          1.1490    3.1753    0.0081 H         1 <0>         0.1386
     23 H3          3.3458   -0.4966   -0.0334 H         1 <0>         0.1357
     24 H4          1.2469   -1.7626   -0.0205 H         1 <0>         0.1352
     25 H5         -0.2556   -2.7207    0.1493 H         1 <0>         0.1250
     26 H6         -2.8768   -2.3632   -1.5355 H         1 <0>         0.1020
     27 H7         -1.8808   -3.9090   -1.3942 H         1 <0>         0.1058
     28 H8         -2.2673   -3.9288    1.1127 H         1 <0>         0.1049
     29 H9         -3.2632   -2.3830    0.9714 H         1 <0>         0.1048
     30 H10         4.7943    0.7207    0.8486 H         1 <0>         0.0657
     31 H11         4.7763    0.7297   -0.9313 H         1 <0>         0.0671
     32 H12         5.9057    2.9372   -0.9316 H         1 <0>         0.0836
     33 H13         5.9237    2.9282    0.8483 H         1 <0>         0.0726
     34 H14         7.2889    0.8584    0.8240 H         1 <0>         0.0774
     35 H15         7.2709    0.8673   -0.9558 H         1 <0>         0.0781
     36 H16        10.1934    4.8467   -1.1965 H         1 <0>         0.2087
     37 H17         9.5602    1.7642    1.6587 H         1 <0>         0.1764
     38 H18        11.1196    3.6805    0.8825 H         1 <0>         0.4217
@<TRIPOS>BOND
     1    1    6 ar
     2    1    2 ar
     3    1   21 1
     4    2    3 ar
     5    2   22 1
     6    3    4 ar
     7    3   12 1
     8    4    5 ar
     9    4   23 1
    10    5    6 ar
    11    5   24 1
    12    6    7 1
    13    7    8 2
    14    7    9 1
    15    9   11 1
    16    9   10 1
    17    9   25 1
    18   10   11 1
    19   10   26 1
    20   10   27 1
    21   11   28 1
    22   11   29 1
    23   12   13 1
    24   13   14 1
    25   13   30 1
    26   13   31 1
    27   14   15 1
    28   14   32 1
    29   14   33 1
    30   15   34 1
    31   15   35 1
    32   15   16 1
    33   16   17 1
    34   16   20 2
    35   17   18 2
    36   18   36 1
    37   18   19 1
    38   19   20 1
    39   19   38 1
    40   20   37 1
@<TRIPOS>MOLECULE
ZINC14951170
   39    40     0     0     0
SMALL
USER_CHARGES

@<TRIPOS>ATOM
      1 C1         -0.0167    1.3782    0.0096 C.ar      1 <0>        -0.0763
      2 C2          1.1706    2.0858    0.0021 C.ar      1 <0>        -0.1096
      3 C3          2.3780    1.4104   -0.0130 C.ar      1 <0>        -0.0066
      4 C4          2.3961    0.0270   -0.0206 C.ar      1 <0>        -0.1095
      5 C5          1.2082   -0.6795   -0.0130 C.ar      1 <0>        -0.0760
      6 C6          0.0021   -0.0041    0.0020 C.ar      1 <0>        -0.1499
      7 C7         -1.2928   -0.7750    0.0107 C.3       1 <0>         0.1275
      8 N1         -1.7261   -1.0173   -1.3676 N.pl3     1 <0>        -0.5917
      9 C8         -2.8302   -1.6720   -1.5986 C.cat     1 <0>         0.4623
     10 N2         -3.2371   -1.8996   -2.8928 N.pl3     1 <0>        -0.8007
     11 S1         -3.8008   -2.2649   -0.2528 S.3       1 <0>         0.0840
     12 C9         -5.2034   -3.0908   -1.0536 C.3       1 <0>        -0.1548
     13 C10        -6.1386   -3.6595    0.0155 C.3       1 <0>        -0.1084
     14 C11        -7.3215   -4.3561   -0.6600 C.3       1 <0>        -0.0544
     15 C12        -8.2426   -4.9162    0.3930 C.2       1 <0>         0.0191
     16 C13        -8.1105   -6.1072    1.0077 C.2       1 <0>         0.0438
     17 N3         -9.1543   -6.2174    1.8862 N.pl3     1 <0>        -0.5082
     18 C14        -9.8885   -5.0892    1.7779 C.cat     1 <0>         0.3182
     19 N4         -9.3345   -4.3135    0.8866 N.pl3     1 <0>        -0.4762
     20 H1         -9.3333   -6.9661    2.4765 H         1 <0>         0.4716
     21 Cl1         3.8696    2.2984   -0.0231 Cl        1 <0>        -0.0368
     22 H2         -0.9592    1.9053    0.0259 H         1 <0>         0.1385
     23 H3          1.1558    3.1656    0.0076 H         1 <0>         0.1466
     24 H4          3.3383   -0.5007   -0.0327 H         1 <0>         0.1467
     25 H5          1.2222   -1.7594   -0.0193 H         1 <0>         0.1387
     26 H6         -1.1447   -1.7283    0.5180 H         1 <0>         0.1228
     27 H7         -2.0551   -0.1989    0.5352 H         1 <0>         0.1224
     28 H8         -2.7028   -1.5732   -3.6337 H         1 <0>         0.4322
     29 H9         -4.0583   -2.3865   -3.0646 H         1 <0>         0.4353
     30 H10        -5.7469   -2.3716   -1.6664 H         1 <0>         0.1184
     31 H11        -4.8365   -3.9011   -1.6837 H         1 <0>         0.1208
     32 H12        -5.5951   -4.3787    0.6283 H         1 <0>         0.0974
     33 H13        -6.5055   -2.8492    0.6455 H         1 <0>         0.0904
     34 H14        -7.8650   -3.6369   -1.2728 H         1 <0>         0.1042
     35 H15        -6.9546   -5.1663   -1.2900 H         1 <0>         0.1200
     36 H16        -7.3310   -6.8355    0.8394 H         1 <0>         0.2277
     37 H17       -10.7836   -4.8643    2.3388 H         1 <0>         0.2697
     38 H18        -1.1917   -0.6909   -2.1085 H         1 <0>         0.4350
     39 H19        -9.6617   -3.4397    0.6215 H         1 <0>         0.4658
@<TRIPOS>BOND
     1    1    6 ar
     2    1    2 ar
     3    1   22 1
     4    2    3 ar
     5    2   23 1
     6    3    4 ar
     7    3   21 1
     8    4    5 ar
     9    4   24 1
    10    5    6 ar
    11    5   25 1
    12    6    7 1
    13    7    8 1
    14    7   26 1
    15    7   27 1
    16    8    9 2
    17    8   38 1
    18    9   10 1
    19    9   11 1
    20   10   28 1
    21   10   29 1
    22   11   12 1
    23   12   13 1
    24   12   30 1
    25   12   31 1
    26   13   14 1
    27   13   32 1
    28   13   33 1
    29   14   34 1
    30   14   35 1
    31   14   15 1
    32   15   19 1
    33   15   16 2
    34   16   36 1
    35   16   17 1
    36   17   18 1
    37   17   20 1
    38   18   37 1
    39   18   19 2
    40   19   39 1
@<TRIPOS>MOLECULE
ZINC14951170
   38    39     0     0     0
SMALL
USER_CHARGES

@<TRIPOS>ATOM
      1 C1         -0.0167    1.3782    0.0096 C.ar      1 <0>        -0.0773
      2 C2          1.1706    2.0858    0.0021 C.ar      1 <0>        -0.1097
      3 C3          2.3780    1.4104   -0.0130 C.ar      1 <0>        -0.0104
      4 C4          2.3961    0.0270   -0.0206 C.ar      1 <0>        -0.1099
      5 C5          1.2082   -0.6795   -0.0130 C.ar      1 <0>        -0.0775
      6 C6          0.0021   -0.0041    0.0020 C.ar      1 <0>        -0.1381
      7 C7         -1.2928   -0.7750    0.0107 C.3       1 <0>         0.1298
      8 N1         -1.7261   -1.0173   -1.3676 N.pl3     1 <0>        -0.6435
      9 C8         -2.8907   -1.7079   -1.6112 C.cat     1 <0>         0.4683
     10 N2         -3.6091   -2.1467   -0.6150 N.pl3     1 <0>        -0.7533
     11 S1         -3.4118   -1.9994   -3.2689 S.3       1 <0>         0.0755
     12 C9         -4.9616   -2.9240   -3.0856 C.3       1 <0>        -0.1439
     13 C10        -5.5297   -3.2466   -4.4691 C.3       1 <0>        -0.0992
     14 C11        -6.8370   -4.0265   -4.3145 C.3       1 <0>        -0.0205
     15 C12        -7.3965   -4.3443   -5.6772 C.2       1 <0>        -0.0136
     16 C13        -7.7232   -5.5687   -6.1327 C.2       1 <0>        -0.0442
     17 N3         -8.1905   -5.4049   -7.4088 N.pl3     1 <0>        -0.5673
     18 H1         -8.5043   -6.1060   -8.0012 H         1 <0>         0.4255
     19 C14        -8.1331   -4.0851   -7.6889 C.2       1 <0>         0.1946
     20 N4         -7.6619   -3.4564   -6.6469 N.2       1 <0>        -0.4919
     21 Cl1         3.8696    2.2984   -0.0231 Cl        1 <0>        -0.0438
     22 H2         -0.9592    1.9053    0.0259 H         1 <0>         0.1380
     23 H3          1.1558    3.1656    0.0076 H         1 <0>         0.1447
     24 H4          3.3383   -0.5007   -0.0327 H         1 <0>         0.1446
     25 H5          1.2222   -1.7594   -0.0193 H         1 <0>         0.1377
     26 H6         -1.1447   -1.7283    0.5180 H         1 <0>         0.1053
     27 H7         -2.0551   -0.1989    0.5352 H         1 <0>         0.1054
     28 H8         -1.1917   -0.6909   -2.1085 H         1 <0>         0.4436
     29 H9         -4.4303   -2.6336   -0.7868 H         1 <0>         0.4414
     30 H10        -4.7697   -3.8516   -2.5463 H         1 <0>         0.1142
     31 H11        -5.6801   -2.3222   -2.5291 H         1 <0>         0.1154
     32 H12        -5.7217   -2.3190   -5.0084 H         1 <0>         0.0945
     33 H13        -4.8113   -3.8485   -5.0256 H         1 <0>         0.0841
     34 H14        -6.6450   -4.9541   -3.7752 H         1 <0>         0.0812
     35 H15        -7.5554   -3.4247   -3.7580 H         1 <0>         0.0815
     36 H16        -7.6334   -6.5009   -5.5946 H         1 <0>         0.1772
     37 H17        -8.4315   -3.6256   -8.6195 H         1 <0>         0.2111
     38 H18        -3.3223   -1.9862    0.2976 H         1 <0>         0.4303
@<TRIPOS>BOND
     1    1    6 ar
     2    1    2 ar
     3    1   22 1
     4    2    3 ar
     5    2   23 1
     6    3    4 ar
     7    3   21 1
     8    4    5 ar
     9    4   24 1
    10    5    6 ar
    11    5   25 1
    12    6    7 1
    13    7    8 1
    14    7   26 1
    15    7   27 1
    16    8    9 1
    17    8   28 1
    18    9   10 2
    19    9   11 1
    20   10   29 1
    21   10   38 1
    22   11   12 1
    23   12   13 1
    24   12   30 1
    25   12   31 1
    26   13   14 1
    27   13   32 1
    28   13   33 1
    29   14   15 1
    30   14   34 1
    31   14   35 1
    32   15   20 1
    33   15   16 2
    34   16   17 1
    35   16   36 1
    36   17   18 1
    37   17   19 1
    38   19   20 2
    39   19   37 1
@<TRIPOS>MOLECULE
ZINC14951170
   38    39     0     0     0
SMALL
USER_CHARGES

@<TRIPOS>ATOM
      1 C1         -0.0167    1.3782    0.0096 C.ar      1 <0>        -0.0770
      2 C2          1.1706    2.0858    0.0021 C.ar      1 <0>        -0.1104
      3 C3          2.3780    1.4104   -0.0130 C.ar      1 <0>        -0.0098
      4 C4          2.3961    0.0270   -0.0206 C.ar      1 <0>        -0.1102
      5 C5          1.2082   -0.6795   -0.0130 C.ar      1 <0>        -0.0766
      6 C6          0.0021   -0.0041    0.0020 C.ar      1 <0>        -0.1423
      7 C7         -1.2928   -0.7750    0.0107 C.3       1 <0>         0.1279
      8 N1         -1.7261   -1.0173   -1.3676 N.pl3     1 <0>        -0.6001
      9 C8         -2.8302   -1.6720   -1.5986 C.cat     1 <0>         0.4596
     10 N2         -3.2371   -1.8996   -2.8928 N.pl3     1 <0>        -0.8019
     11 S1         -3.8008   -2.2649   -0.2528 S.3       1 <0>         0.0819
     12 C9         -5.2034   -3.0908   -1.0536 C.3       1 <0>        -0.1446
     13 C10        -6.1386   -3.6595    0.0155 C.3       1 <0>        -0.0993
     14 C11        -7.3215   -4.3561   -0.6600 C.3       1 <0>        -0.0210
     15 C12        -8.2426   -4.9162    0.3930 C.2       1 <0>        -0.0131
     16 C13        -9.5614   -4.6673    0.5044 C.2       1 <0>        -0.0445
     17 N3        -10.0073   -5.3726    1.5895 N.pl3     1 <0>        -0.5673
     18 C14        -8.9447   -6.0283    2.1038 C.2       1 <0>         0.1943
     19 N4         -7.8938   -5.7546    1.3802 N.2       1 <0>        -0.4919
     20 H1        -10.9167   -5.3968    1.9261 H         1 <0>         0.4254
     21 Cl1         3.8696    2.2984   -0.0231 Cl        1 <0>        -0.0434
     22 H2         -0.9592    1.9053    0.0259 H         1 <0>         0.1391
     23 H3          1.1558    3.1656    0.0076 H         1 <0>         0.1449
     24 H4          3.3383   -0.5007   -0.0327 H         1 <0>         0.1450
     25 H5          1.2222   -1.7594   -0.0193 H         1 <0>         0.1394
     26 H6         -1.1447   -1.7283    0.5180 H         1 <0>         0.1222
     27 H7         -2.0551   -0.1989    0.5352 H         1 <0>         0.1217
     28 H8         -2.7028   -1.5732   -3.6337 H         1 <0>         0.4278
     29 H9         -4.0583   -2.3865   -3.0646 H         1 <0>         0.4373
     30 H10        -5.7469   -2.3716   -1.6664 H         1 <0>         0.1138
     31 H11        -4.8365   -3.9011   -1.6837 H         1 <0>         0.1150
     32 H12        -5.5951   -4.3787    0.6283 H         1 <0>         0.0936
     33 H13        -6.5055   -2.8492    0.6455 H         1 <0>         0.0831
     34 H14        -7.8650   -3.6369   -1.2728 H         1 <0>         0.0811
     35 H15        -6.9546   -5.1663   -1.2900 H         1 <0>         0.0813
     36 H16       -10.1534   -4.0330   -0.1387 H         1 <0>         0.1771
     37 H17        -8.9625   -6.6754    2.9684 H         1 <0>         0.2110
     38 H18        -1.1917   -0.6909   -2.1085 H         1 <0>         0.4308
@<TRIPOS>BOND
     1    1    6 ar
     2    1    2 ar
     3    1   22 1
     4    2    3 ar
     5    2   23 1
     6    3    4 ar
     7    3   21 1
     8    4    5 ar
     9    4   24 1
    10    5    6 ar
    11    5   25 1
    12    6    7 1
    13    7    8 1
    14    7   26 1
    15    7   27 1
    16    8    9 2
    17    8   38 1
    18    9   10 1
    19    9   11 1
    20   10   28 1
    21   10   29 1
    22   11   12 1
    23   12   13 1
    24   12   30 1
    25   12   31 1
    26   13   14 1
    27   13   32 1
    28   13   33 1
    29   14   34 1
    30   14   35 1
    31   14   15 1
    32   15   19 1
    33   15   16 2
    34   16   36 1
    35   16   17 1
    36   17   18 1
    37   17   20 1
    38   18   37 1
    39   18   19 2
@<TRIPOS>MOLECULE
ZINC14951170
   38    39     0     0     0
SMALL
USER_CHARGES

@<TRIPOS>ATOM
      1 C1         -0.0167    1.3782    0.0096 C.ar      1 <0>        -0.0764
      2 C2          1.1706    2.0858    0.0021 C.ar      1 <0>        -0.1092
      3 C3          2.3780    1.4104   -0.0130 C.ar      1 <0>        -0.0085
      4 C4          2.3961    0.0270   -0.0206 C.ar      1 <0>        -0.1094
      5 C5          1.2082   -0.6795   -0.0130 C.ar      1 <0>        -0.0767
      6 C6          0.0021   -0.0041    0.0020 C.ar      1 <0>        -0.1442
      7 C7         -1.2928   -0.7750    0.0107 C.3       1 <0>         0.1192
      8 N1         -1.7261   -1.0173   -1.3676 N.pl3     1 <0>        -0.5973
      9 C8         -2.8302   -1.6720   -1.5986 C.cat     1 <0>         0.4675
     10 N2         -3.5880   -2.1349   -0.5479 N.pl3     1 <0>        -0.7982
     11 S1         -3.3513   -1.9636   -3.2563 S.3       1 <0>         0.0686
     12 C9         -4.9012   -2.8882   -3.0730 C.3       1 <0>        -0.1398
     13 C10        -5.4693   -3.2108   -4.4565 C.3       1 <0>        -0.1052
     14 C11        -6.7765   -3.9907   -4.3018 C.3       1 <0>        -0.0310
     15 C12        -7.3361   -4.3084   -5.6645 C.2       1 <0>        -0.0447
     16 C13        -8.1073   -3.5059   -6.4227 C.2       1 <0>        -0.0093
     17 N3         -8.3925   -4.1579   -7.5597 N.2       1 <0>        -0.4916
     18 C14        -7.8274   -5.3339   -7.5348 C.2       1 <0>         0.1983
     19 N4         -7.1533   -5.4659   -6.3720 N.pl3     1 <0>        -0.5676
     20 Cl1         3.8696    2.2984   -0.0231 Cl        1 <0>        -0.0414
     21 H1         -0.9592    1.9053    0.0259 H         1 <0>         0.1387
     22 H2          1.1558    3.1656    0.0076 H         1 <0>         0.1458
     23 H3          3.3383   -0.5007   -0.0327 H         1 <0>         0.1456
     24 H4          1.2222   -1.7594   -0.0193 H         1 <0>         0.1383
     25 H5         -1.1447   -1.7283    0.5180 H         1 <0>         0.1145
     26 H6         -2.0551   -0.1989    0.5352 H         1 <0>         0.1149
     27 H7         -3.3011   -1.9744    0.3647 H         1 <0>         0.4281
     28 H8         -4.4092   -2.6218   -0.7196 H         1 <0>         0.4372
     29 H9         -4.7093   -3.8158   -2.5337 H         1 <0>         0.1148
     30 H10        -5.6197   -2.2864   -2.5165 H         1 <0>         0.1179
     31 H11        -5.6612   -2.2832   -4.9958 H         1 <0>         0.0930
     32 H12        -4.7508   -3.8126   -5.0130 H         1 <0>         0.0843
     33 H13        -6.5846   -4.9183   -3.7625 H         1 <0>         0.0781
     34 H14        -7.4950   -3.3888   -3.7453 H         1 <0>         0.0962
     35 H15        -8.4381   -2.5117   -6.1612 H         1 <0>         0.1699
     36 H16        -7.8857   -6.0770   -8.3164 H         1 <0>         0.2122
     37 H17        -1.1917   -0.6909   -2.1085 H         1 <0>         0.4474
     38 H18        -6.6377   -6.2375   -6.0900 H         1 <0>         0.4200
@<TRIPOS>BOND
     1    1    6 ar
     2    1    2 ar
     3    1   21 1
     4    2    3 ar
     5    2   22 1
     6    3    4 ar
     7    3   20 1
     8    4    5 ar
     9    4   23 1
    10    5    6 ar
    11    5   24 1
    12    6    7 1
    13    7    8 1
    14    7   25 1
    15    7   26 1
    16    8    9 2
    17    8   37 1
    18    9   10 1
    19    9   11 1
    20   10   27 1
    21   10   28 1
    22   11   12 1
    23   12   13 1
    24   12   29 1
    25   12   30 1
    26   13   14 1
    27   13   31 1
    28   13   32 1
    29   14   33 1
    30   14   34 1
    31   14   15 1
    32   15   19 1
    33   15   16 2
    34   16   35 1
    35   16   17 1
    36   17   18 2
    37   18   36 1
    38   18   19 1
    39   19   38 1
@<TRIPOS>MOLECULE
ZINC14951170
   38    39     0     0     0
SMALL
USER_CHARGES

@<TRIPOS>ATOM
      1 C1         -0.0167    1.3782    0.0096 C.ar      1 <0>        -0.0766
      2 C2          1.1706    2.0858    0.0021 C.ar      1 <0>        -0.1093
      3 C3          2.3780    1.4104   -0.0130 C.ar      1 <0>        -0.0090
      4 C4          2.3961    0.0270   -0.0206 C.ar      1 <0>        -0.1095
      5 C5          1.2082   -0.6795   -0.0130 C.ar      1 <0>        -0.0768
      6 C6          0.0021   -0.0041    0.0020 C.ar      1 <0>        -0.1431
      7 C7         -1.2928   -0.7750    0.0107 C.3       1 <0>         0.1194
      8 N1         -1.7261   -1.0173   -1.3676 N.pl3     1 <0>        -0.5991
      9 C8         -2.8302   -1.6720   -1.5986 C.cat     1 <0>         0.4669
     10 N2         -3.5880   -2.1349   -0.5479 N.pl3     1 <0>        -0.7986
     11 S1         -3.3513   -1.9636   -3.2563 S.3       1 <0>         0.0683
     12 C9         -4.9012   -2.8882   -3.0730 C.3       1 <0>        -0.1379
     13 C10        -5.4693   -3.2108   -4.4565 C.3       1 <0>        -0.1002
     14 C11        -6.7765   -3.9907   -4.3018 C.3       1 <0>        -0.0206
     15 C12        -7.3361   -4.3084   -5.6645 C.2       1 <0>        -0.0132
     16 C13        -7.6628   -5.5329   -6.1200 C.2       1 <0>        -0.0445
     17 N3         -8.1301   -5.3691   -7.3961 N.pl3     1 <0>        -0.5673
     18 C14        -8.0727   -4.0493   -7.6762 C.2       1 <0>         0.1943
     19 N4         -7.6015   -3.4206   -6.6342 N.2       1 <0>        -0.4919
     20 H1         -8.4439   -6.0701   -7.9886 H         1 <0>         0.4255
     21 Cl1         3.8696    2.2984   -0.0231 Cl        1 <0>        -0.0423
     22 H2         -0.9592    1.9053    0.0259 H         1 <0>         0.1387
     23 H3          1.1558    3.1656    0.0076 H         1 <0>         0.1455
     24 H4          3.3383   -0.5007   -0.0327 H         1 <0>         0.1453
     25 H5          1.2222   -1.7594   -0.0193 H         1 <0>         0.1384
     26 H6         -1.1447   -1.7283    0.5180 H         1 <0>         0.1140
     27 H7         -2.0551   -0.1989    0.5352 H         1 <0>         0.1141
     28 H8         -3.3011   -1.9744    0.3647 H         1 <0>         0.4272
     29 H9         -4.4092   -2.6218   -0.7196 H         1 <0>         0.4375
     30 H10        -4.7093   -3.8158   -2.5337 H         1 <0>         0.1142
     31 H11        -5.6197   -2.2864   -2.5165 H         1 <0>         0.1154
     32 H12        -5.6612   -2.2832   -4.9958 H         1 <0>         0.0938
     33 H13        -4.7508   -3.8126   -5.0130 H         1 <0>         0.0833
     34 H14        -6.5846   -4.9183   -3.7625 H         1 <0>         0.0812
     35 H15        -7.4950   -3.3888   -3.7453 H         1 <0>         0.0815
     36 H16        -7.5730   -6.4650   -5.5820 H         1 <0>         0.1771
     37 H17        -8.3711   -3.5898   -8.6069 H         1 <0>         0.2111
     38 H18        -1.1917   -0.6909   -2.1085 H         1 <0>         0.4471
@<TRIPOS>BOND
     1    1    6 ar
     2    1    2 ar
     3    1   22 1
     4    2    3 ar
     5    2   23 1
     6    3    4 ar
     7    3   21 1
     8    4    5 ar
     9    4   24 1
    10    5    6 ar
    11    5   25 1
    12    6    7 1
    13    7    8 1
    14    7   26 1
    15    7   27 1
    16    8    9 2
    17    8   38 1
    18    9   10 1
    19    9   11 1
    20   10   28 1
    21   10   29 1
    22   11   12 1
    23   12   13 1
    24   12   30 1
    25   12   31 1
    26   13   14 1
    27   13   32 1
    28   13   33 1
    29   14   34 1
    30   14   35 1
    31   14   15 1
    32   15   19 1
    33   15   16 2
    34   16   36 1
    35   16   17 1
    36   17   18 1
    37   17   20 1
    38   18   37 1
    39   18   19 2
@<TRIPOS>MOLECULE
ZINC14951170
   38    39     0     0     0
SMALL
USER_CHARGES

@<TRIPOS>ATOM
      1 C1         -0.0167    1.3782    0.0096 C.ar      1 <0>        -0.0769
      2 C2          1.1706    2.0858    0.0021 C.ar      1 <0>        -0.1102
      3 C3          2.3780    1.4104   -0.0130 C.ar      1 <0>        -0.0092
      4 C4          2.3961    0.0270   -0.0206 C.ar      1 <0>        -0.1100
      5 C5          1.2082   -0.6795   -0.0130 C.ar      1 <0>        -0.0764
      6 C6          0.0021   -0.0041    0.0020 C.ar      1 <0>        -0.1435
      7 C7         -1.2928   -0.7750    0.0107 C.3       1 <0>         0.1276
      8 N1         -1.7261   -1.0173   -1.3676 N.pl3     1 <0>        -0.5983
      9 C8         -2.8302   -1.6720   -1.5986 C.cat     1 <0>         0.4603
     10 N2         -3.2371   -1.8996   -2.8928 N.pl3     1 <0>        -0.8016
     11 S1         -3.8008   -2.2649   -0.2528 S.3       1 <0>         0.0825
     12 C9         -5.2034   -3.0908   -1.0536 C.3       1 <0>        -0.1465
     13 C10        -6.1386   -3.6595    0.0155 C.3       1 <0>        -0.1043
     14 C11        -7.3215   -4.3561   -0.6600 C.3       1 <0>        -0.0313
     15 C12        -8.2426   -4.9162    0.3930 C.2       1 <0>        -0.0446
     16 C13        -8.1222   -6.1045    1.0152 C.2       1 <0>        -0.0094
     17 N3         -9.1407   -6.2256    1.8794 N.2       1 <0>        -0.4917
     18 C14        -9.8878   -5.1574    1.8165 C.2       1 <0>         0.1982
     19 N4         -9.3592   -4.3124    0.9053 N.pl3     1 <0>        -0.5675
     20 Cl1         3.8696    2.2984   -0.0231 Cl        1 <0>        -0.0424
     21 H1         -0.9592    1.9053    0.0259 H         1 <0>         0.1390
     22 H2          1.1558    3.1656    0.0076 H         1 <0>         0.1451
     23 H3          3.3383   -0.5007   -0.0327 H         1 <0>         0.1454
     24 H4          1.2222   -1.7594   -0.0193 H         1 <0>         0.1394
     25 H5         -1.1447   -1.7283    0.5180 H         1 <0>         0.1225
     26 H6         -2.0551   -0.1989    0.5352 H         1 <0>         0.1219
     27 H7         -2.7028   -1.5732   -3.6337 H         1 <0>         0.4287
     28 H8         -4.0583   -2.3865   -3.0646 H         1 <0>         0.4370
     29 H9         -5.7469   -2.3716   -1.6664 H         1 <0>         0.1144
     30 H10        -4.8365   -3.9011   -1.6837 H         1 <0>         0.1175
     31 H11        -5.5951   -4.3787    0.6283 H         1 <0>         0.0928
     32 H12        -6.5055   -2.8492    0.6455 H         1 <0>         0.0841
     33 H13        -7.8650   -3.6369   -1.2728 H         1 <0>         0.0780
     34 H14        -6.9546   -5.1663   -1.2900 H         1 <0>         0.0961
     35 H15        -7.3421   -6.8324    0.8476 H         1 <0>         0.1699
     36 H16       -10.7789   -4.9773    2.3995 H         1 <0>         0.2121
     37 H17        -1.1917   -0.6909   -2.1085 H         1 <0>         0.4316
     38 H18        -9.7070   -3.4413    0.6583 H         1 <0>         0.4200
@<TRIPOS>BOND
     1    1    6 ar
     2    1    2 ar
     3    1   21 1
     4    2    3 ar
     5    2   22 1
     6    3    4 ar
     7    3   20 1
     8    4    5 ar
     9    4   23 1
    10    5    6 ar
    11    5   24 1
    12    6    7 1
    13    7    8 1
    14    7   25 1
    15    7   26 1
    16    8    9 2
    17    8   37 1
    18    9   10 1
    19    9   11 1
    20   10   27 1
    21   10   28 1
    22   11   12 1
    23   12   13 1
    24   12   29 1
    25   12   30 1
    26   13   14 1
    27   13   31 1
    28   13   32 1
    29   14   33 1
    30   14   34 1
    31   14   15 1
    32   15   19 1
    33   15   16 2
    34   16   35 1
    35   16   17 1
    36   17   18 2
    37   18   36 1
    38   18   19 1
    39   19   38 1
@<TRIPOS>MOLECULE
ZINC14951170
   38    39     0     0     0
SMALL
USER_CHARGES

@<TRIPOS>ATOM
      1 C1         -0.0167    1.3782    0.0096 C.ar      1 <0>        -0.0772
      2 C2          1.1706    2.0858    0.0021 C.ar      1 <0>        -0.1096
      3 C3          2.3780    1.4104   -0.0130 C.ar      1 <0>        -0.0099
      4 C4          2.3961    0.0270   -0.0206 C.ar      1 <0>        -0.1098
      5 C5          1.2082   -0.6795   -0.0130 C.ar      1 <0>        -0.0774
      6 C6          0.0021   -0.0041    0.0020 C.ar      1 <0>        -0.1391
      7 C7         -1.2928   -0.7750    0.0107 C.3       1 <0>         0.1296
      8 N1         -1.7261   -1.0173   -1.3676 N.pl3     1 <0>        -0.6417
      9 C8         -2.8907   -1.7079   -1.6112 C.cat     1 <0>         0.4690
     10 N2         -3.6091   -2.1467   -0.6150 N.pl3     1 <0>        -0.7529
     11 S1         -3.4118   -1.9994   -3.2689 S.3       1 <0>         0.0759
     12 C9         -4.9616   -2.9240   -3.0856 C.3       1 <0>        -0.1458
     13 C10        -5.5297   -3.2466   -4.4691 C.3       1 <0>        -0.1042
     14 C11        -6.8370   -4.0265   -4.3145 C.3       1 <0>        -0.0308
     15 C12        -7.3965   -4.3443   -5.6772 C.2       1 <0>        -0.0452
     16 C13        -8.1677   -3.5418   -6.4354 C.2       1 <0>        -0.0089
     17 N3         -8.4529   -4.1938   -7.5723 N.2       1 <0>        -0.4916
     18 C14        -7.8878   -5.3698   -7.5474 C.2       1 <0>         0.1986
     19 N4         -7.2137   -5.5017   -6.3847 N.pl3     1 <0>        -0.5675
     20 Cl1         3.8696    2.2984   -0.0231 Cl        1 <0>        -0.0429
     21 H1         -0.9592    1.9053    0.0259 H         1 <0>         0.1380
     22 H2          1.1558    3.1656    0.0076 H         1 <0>         0.1450
     23 H3          3.3383   -0.5007   -0.0327 H         1 <0>         0.1448
     24 H4          1.2222   -1.7594   -0.0193 H         1 <0>         0.1376
     25 H5         -1.1447   -1.7283    0.5180 H         1 <0>         0.1058
     26 H6         -2.0551   -0.1989    0.5352 H         1 <0>         0.1061
     27 H7         -1.1917   -0.6909   -2.1085 H         1 <0>         0.4440
     28 H8         -4.4303   -2.6336   -0.7868 H         1 <0>         0.4411
     29 H9         -4.7697   -3.8516   -2.5463 H         1 <0>         0.1147
     30 H10        -5.6801   -2.3222   -2.5291 H         1 <0>         0.1178
     31 H11        -5.7217   -2.3190   -5.0084 H         1 <0>         0.0937
     32 H12        -4.8113   -3.8485   -5.0256 H         1 <0>         0.0850
     33 H13        -6.6450   -4.9541   -3.7752 H         1 <0>         0.0781
     34 H14        -7.5554   -3.4247   -3.7580 H         1 <0>         0.0962
     35 H15        -8.4985   -2.5475   -6.1738 H         1 <0>         0.1700
     36 H16        -7.9461   -6.1128   -8.3290 H         1 <0>         0.2123
     37 H17        -3.3223   -1.9862    0.2976 H         1 <0>         0.4312
     38 H18        -6.6981   -6.2734   -6.1026 H         1 <0>         0.4201
@<TRIPOS>BOND
     1    1    6 ar
     2    1    2 ar
     3    1   21 1
     4    2    3 ar
     5    2   22 1
     6    3    4 ar
     7    3   20 1
     8    4    5 ar
     9    4   23 1
    10    5    6 ar
    11    5   24 1
    12    6    7 1
    13    7    8 1
    14    7   25 1
    15    7   26 1
    16    8    9 1
    17    8   27 1
    18    9   10 2
    19    9   11 1
    20   10   28 1
    21   10   37 1
    22   11   12 1
    23   12   13 1
    24   12   29 1
    25   12   30 1
    26   13   14 1
    27   13   31 1
    28   13   32 1
    29   14   15 1
    30   14   33 1
    31   14   34 1
    32   15   19 1
    33   15   16 2
    34   16   17 1
    35   16   35 1
    36   17   18 2
    37   18   19 1
    38   18   36 1
    39   19   38 1
@<TRIPOS>MOLECULE
ZINC03818809
   48    51     0     0     0
SMALL
USER_CHARGES
4-[2-[2-(2-methylpyrrolidin-1-yl)ethyl]benzofuran-5-yl]benzonitrile
@<TRIPOS>ATOM
      1 C1         -3.2172   10.1483   -2.7373 C.3       1 <0>        -0.1814
      2 C2         -3.8440    8.7528   -2.7156 C.3       1 <0>         0.0223
      3 H1         -3.3431    8.1076   -3.4374 H         1 <0>         0.1397
      4 C3         -5.3474    8.8473   -3.0507 C.3       1 <0>        -0.1390
      5 C4         -6.0180    8.8467   -1.6517 C.3       1 <0>        -0.1431
      6 C5         -5.0938    7.8864   -0.8622 C.3       1 <0>        -0.0135
      7 C6         -2.9092    6.9581   -1.3779 C.3       1 <0>        -0.0003
      8 C7         -2.6101    6.5283    0.0597 C.3       1 <0>        -0.0628
      9 C8         -1.7647    5.2809    0.0455 C.2       1 <0>         0.0021
     10 C9         -0.4251    5.2626    0.0329 C.2       1 <0>        -0.1659
     11 C10        -0.0356    3.8471    0.0221 C.ar      1 <0>        -0.1367
     12 C11         1.1830    3.1738    0.0073 C.ar      1 <0>        -0.0523
     13 C12         1.1935    1.7842    0.0002 C.ar      1 <0>        -0.0584
     14 C13        -0.0126    1.0758    0.0080 C.ar      1 <0>        -0.0686
     15 C14        -1.2083    1.7350    0.0172 C.ar      1 <0>        -0.1029
     16 C15        -1.2419    3.1252    0.0298 C.ar      1 <0>         0.0669
     17 O1         -2.2457    4.0255    0.0437 O.3       1 <0>        -0.1902
     18 C16         2.4830    1.0525   -0.0160 C.ar      1 <0>        -0.0199
     19 C17         3.6855    1.7599   -0.0294 C.ar      1 <0>        -0.1120
     20 C18         4.8833    1.0819   -0.0388 C.ar      1 <0>        -0.0647
     21 C19         4.8945   -0.3157   -0.0464 C.ar      1 <0>        -0.0195
     22 C20         3.6890   -1.0230   -0.0387 C.ar      1 <0>        -0.0637
     23 C21         2.4927   -0.3426   -0.0236 C.ar      1 <0>        -0.1102
     24 C22         6.1399   -1.0224   -0.0625 C.1       1 <0>         0.2433
     25 N1          7.1279   -1.5829   -0.0753 N.1       1 <0>        -0.4015
     26 H2         -2.1651   10.0784   -2.4612 H         1 <0>         0.0812
     27 H3         -3.3027   10.5695   -3.7390 H         1 <0>         0.1068
     28 H4         -3.7372   10.7913   -2.0272 H         1 <0>         0.0822
     29 H5         -5.5663    9.7732   -3.5826 H         1 <0>         0.1134
     30 H6         -5.6678    7.9827   -3.6320 H         1 <0>         0.0997
     31 H7         -6.0092    9.8449   -1.2141 H         1 <0>         0.0986
     32 H8         -7.0339    8.4553   -1.7058 H         1 <0>         0.1171
     33 H9         -5.3618    6.8495   -1.0651 H         1 <0>         0.1342
     34 H10        -5.1558    8.0931    0.2063 H         1 <0>         0.1346
     35 H11        -1.9733    7.1594   -1.8991 H         1 <0>         0.1351
     36 H12        -3.4467    6.1608   -1.8911 H         1 <0>         0.1344
     37 H13        -3.5460    6.3271    0.5810 H         1 <0>         0.1074
     38 H14        -2.0726    7.3257    0.5730 H         1 <0>         0.1173
     39 H15         0.2353    6.1172    0.0313 H         1 <0>         0.1631
     40 H16         2.1110    3.7262    0.0018 H         1 <0>         0.1379
     41 H17         0.0021   -0.0041    0.0020 H         1 <0>         0.1464
     42 H18        -2.1316    1.1746    0.0189 H         1 <0>         0.1398
     43 H19         3.6765    2.8398   -0.0280 H         1 <0>         0.1356
     44 H20         5.8141    1.6297   -0.0451 H         1 <0>         0.1382
     45 H21         3.6962   -2.1030   -0.0442 H         1 <0>         0.1393
     46 H22         1.5610   -0.8888   -0.0180 H         1 <0>         0.1384
     47 N2         -3.7387    8.1910   -1.3569 N.4       1 <0>        -0.3959
     48 H23        -3.2983    8.8808   -0.7369 H         1 <0>         0.4273
@<TRIPOS>BOND
     1    1    2 1
     2    1   26 1
     3    1   27 1
     4    1   28 1
     5    2    3 1
     6    2    4 1
     7    2   47 1
     8    4    5 1
     9    4   29 1
    10    4   30 1
    11    5    6 1
    12    5   31 1
    13    5   32 1
    14    6   33 1
    15    6   34 1
    16    6   47 1
    17    7    8 1
    18    7   35 1
    19    7   36 1
    20    7   47 1
    21    8    9 1
    22    8   37 1
    23    8   38 1
    24    9   17 1
    25    9   10 2
    26   10   11 1
    27   10   39 1
    28   11   16 ar
    29   11   12 ar
    30   12   13 ar
    31   12   40 1
    32   13   14 ar
    33   13   18 1
    34   14   15 ar
    35   14   41 1
    36   15   16 ar
    37   15   42 1
    38   16   17 1
    39   18   23 ar
    40   18   19 ar
    41   19   20 ar
    42   19   43 1
    43   20   21 ar
    44   20   44 1
    45   21   22 ar
    46   21   24 1
    47   22   23 ar
    48   22   45 1
    49   23   46 1
    50   24   25 3
    51   47   48 1
@<TRIPOS>MOLECULE
ZINC13589385
   48    51     0     0     0
SMALL
USER_CHARGES
4-[2-[2-[(2S)-2-methylpyrrolidin-1-yl]ethyl]benzofuran-5-yl]benzonitrile
@<TRIPOS>ATOM
      1 C1          3.7311    2.9048    0.5039 C.3       1 <0>        -0.1813
      2 C2          2.7228    4.0457    0.3541 C.3       1 <0>         0.0242
      3 H1          2.5211    4.4954    1.3263 H         1 <0>         0.1391
      4 C3          3.2772    5.1128   -0.6130 C.3       1 <0>        -0.1392
      5 C4          2.0192    5.5516   -1.4078 C.3       1 <0>        -0.1436
      6 C5          1.2403    4.2175   -1.5223 C.3       1 <0>        -0.0134
      7 C6          1.5288    2.0773   -0.4102 C.3       1 <0>        -0.0062
      8 C7          0.1522    1.5592   -0.8316 C.3       1 <0>        -0.0635
      9 C8          0.2125    0.0646   -1.0149 C.2       1 <0>         0.0030
     10 C9         -0.0271   -0.8362   -0.0525 C.2       1 <0>        -0.1665
     11 C10         0.1446   -2.1548   -0.6749 C.ar      1 <0>        -0.1364
     12 C11         0.0397   -3.4663   -0.2194 C.ar      1 <0>        -0.0524
     13 C12         0.2767   -4.5145   -1.1006 C.ar      1 <0>        -0.0584
     14 C13         0.6160   -4.2466   -2.4308 C.ar      1 <0>        -0.0687
     15 C14         0.7192   -2.9607   -2.8787 C.ar      1 <0>        -0.1029
     16 C15         0.4867   -1.8969   -2.0139 C.ar      1 <0>         0.0667
     17 O1          0.5088   -0.5575   -2.1692 O.3       1 <0>        -0.1902
     18 C16         0.1690   -5.9166   -0.6309 C.ar      1 <0>        -0.0199
     19 C17        -0.1639   -6.1830    0.6976 C.ar      1 <0>        -0.1120
     20 C18        -0.2690   -7.4843    1.1338 C.ar      1 <0>        -0.0647
     21 C19        -0.0312   -8.5389    0.2479 C.ar      1 <0>        -0.0195
     22 C20         0.3074   -8.2706   -1.0814 C.ar      1 <0>        -0.0638
     23 C21         0.4062   -6.9684   -1.5163 C.ar      1 <0>        -0.1102
     24 C22        -0.1338   -9.8932    0.7019 C.1       1 <0>         0.2433
     25 N1         -0.2153  -10.9675    1.0621 N.1       1 <0>        -0.4015
     26 H2          3.8683    2.4124   -0.4588 H         1 <0>         0.0817
     27 H3          4.6852    3.3058    0.8461 H         1 <0>         0.1042
     28 H4          3.3583    2.1835    1.2311 H         1 <0>         0.0831
     29 H5          3.6964    5.9534   -0.0601 H         1 <0>         0.1130
     30 H6          4.0245    4.6794   -1.2778 H         1 <0>         0.1000
     31 H7          1.4448    6.2926   -0.8517 H         1 <0>         0.0993
     32 H8          2.2920    5.9309   -2.3925 H         1 <0>         0.1171
     33 H9          1.6327    3.6184   -2.3439 H         1 <0>         0.1331
     34 H10         0.1771    4.4100   -1.6659 H         1 <0>         0.1351
     35 H11         1.8220    1.6076    0.5287 H         1 <0>         0.1391
     36 H12         2.2598    1.8351   -1.1815 H         1 <0>         0.1355
     37 H13        -0.1410    2.0289   -1.7704 H         1 <0>         0.1065
     38 H14        -0.5789    1.8015   -0.0602 H         1 <0>         0.1170
     39 H15        -0.2935   -0.6332    0.9742 H         1 <0>         0.1630
     40 H16        -0.2226   -3.6670    0.8088 H         1 <0>         0.1379
     41 H17         0.7986   -5.0654   -3.1109 H         1 <0>         0.1463
     42 H18         0.9827   -2.7693   -3.9084 H         1 <0>         0.1397
     43 H19        -0.3432   -5.3678    1.3830 H         1 <0>         0.1356
     44 H20        -0.5307   -7.6902    2.1611 H         1 <0>         0.1382
     45 H21         0.4917   -9.0846   -1.7668 H         1 <0>         0.1393
     46 H22         0.6677   -6.7608   -2.5433 H         1 <0>         0.1384
     47 N2          1.4614    3.5505   -0.2261 N.4       1 <0>        -0.3950
     48 H23         0.6849    3.7740    0.4073 H         1 <0>         0.4301
@<TRIPOS>BOND
     1    1    2 1
     2    1   26 1
     3    1   27 1
     4    1   28 1
     5    2    3 1
     6    2    4 1
     7    2   47 1
     8    4    5 1
     9    4   29 1
    10    4   30 1
    11    5    6 1
    12    5   31 1
    13    5   32 1
    14    6   33 1
    15    6   34 1
    16    6   47 1
    17    7    8 1
    18    7   35 1
    19    7   36 1
    20    7   47 1
    21    8    9 1
    22    8   37 1
    23    8   38 1
    24    9   17 1
    25    9   10 2
    26   10   11 1
    27   10   39 1
    28   11   16 ar
    29   11   12 ar
    30   12   13 ar
    31   12   40 1
    32   13   14 ar
    33   13   18 1
    34   14   15 ar
    35   14   41 1
    36   15   16 ar
    37   15   42 1
    38   16   17 1
    39   18   23 ar
    40   18   19 ar
    41   19   20 ar
    42   19   43 1
    43   20   21 ar
    44   20   44 1
    45   21   22 ar
    46   21   24 1
    47   22   23 ar
    48   22   45 1
    49   23   46 1
    50   24   25 3
    51   47   48 1
@<TRIPOS>MOLECULE
ZINC21981239
   65    68     0     0     0
SMALL
USER_CHARGES
4-[4-(4-chlorophenyl)-4-hydroxy-1-piperidyl]-N-methyl-2,2-diphenyl-butanamide
@<TRIPOS>ATOM
      1 C1         -0.0855   -1.6023   -3.7609 C.3       1 <0>         0.0833
      2 N1         -0.4220   -0.7797   -2.5964 N.am      1 <0>        -0.7395
      3 C2          0.3089   -0.8777   -1.4682 C.2       1 <0>         0.5134
      4 O1          1.2452   -1.6469   -1.4172 O.2       1 <0>        -0.5125
      5 C3         -0.0372   -0.0315   -0.2703 C.3       1 <0>         0.0266
      6 C4         -1.4630   -0.3499    0.1843 C.3       1 <0>        -0.1369
      7 C5         -1.5965   -1.8544    0.4285 C.3       1 <0>        -0.0220
      8 N2         -2.9985   -2.1804    0.7214 N.4       1 <0>        -0.3936
      9 C6         -3.4255   -1.5760    1.9898 C.3       1 <0>        -0.0052
     10 C7         -4.9241   -1.8129    2.1903 C.3       1 <0>        -0.1281
     11 C8         -5.2007   -3.3189    2.2024 C.3       1 <0>         0.1877
     12 C9         -4.7028   -3.9318    0.8905 C.3       1 <0>        -0.1746
     13 C10        -3.2107   -3.6335    0.7277 C.3       1 <0>         0.0007
     14 C11        -6.6820   -3.5591    2.3403 C.ar      1 <0>        -0.1328
     15 C12        -7.4757   -3.6465    1.2119 C.ar      1 <0>        -0.1020
     16 C13        -8.8335   -3.8725    1.3375 C.ar      1 <0>        -0.1086
     17 C14        -9.4000   -3.9998    2.5933 C.ar      1 <0>        -0.0236
     18 C15        -8.6060   -3.9066    3.7225 C.ar      1 <0>        -0.1072
     19 C16        -7.2474   -3.6862    3.5954 C.ar      1 <0>        -0.0829
     20 Cl1       -11.1063   -4.2771    2.7522 Cl        1 <0>        -0.0522
     21 O2         -4.5148   -3.9216    3.3017 O.3       1 <0>        -0.5800
     22 C17         0.0583    1.4262   -0.6404 C.ar      1 <0>        -0.0900
     23 C18        -1.0131    2.2692   -0.4112 C.ar      1 <0>        -0.1196
     24 C19        -0.9237    3.6073   -0.7463 C.ar      1 <0>        -0.1128
     25 C20         0.2333    4.1004   -1.3199 C.ar      1 <0>        -0.1057
     26 C21         1.3026    3.2563   -1.5543 C.ar      1 <0>        -0.1086
     27 C22         1.2152    1.9192   -1.2144 C.ar      1 <0>        -0.0990
     28 C23         0.9255   -0.3293    0.8502 C.ar      1 <0>        -0.0872
     29 C24         1.5324    0.7075    1.5340 C.ar      1 <0>        -0.0984
     30 C25         2.4118    0.4343    2.5650 C.ar      1 <0>        -0.1172
     31 C26         2.6920   -0.8758    2.9055 C.ar      1 <0>        -0.1048
     32 C27         2.0895   -1.9127    2.2180 C.ar      1 <0>        -0.1213
     33 C28         1.2061   -1.6394    1.1905 C.ar      1 <0>        -0.0966
     34 H1         -0.7882   -1.3849   -4.5788 H         1 <0>         0.0814
     35 H2         -0.1552   -2.6663   -3.4907 H         1 <0>         0.0607
     36 H3          0.9396   -1.3734   -4.0876 H         1 <0>         0.0644
     37 H4         -1.2712   -0.0820   -2.6427 H         1 <0>         0.4214
     38 H5         -1.6809    0.1935    1.1156 H         1 <0>         0.1092
     39 H6         -2.1743   -0.0405   -0.5957 H         1 <0>         0.0991
     40 H7         -1.2726   -2.4017   -0.4690 H         1 <0>         0.1294
     41 H8         -0.9665   -2.1446    1.2822 H         1 <0>         0.1429
     42 H9         -2.8680   -2.0339    2.8202 H         1 <0>         0.1374
     43 H10        -3.2256   -0.4946    1.9663 H         1 <0>         0.1323
     44 H11        -5.2401   -1.3726    3.1475 H         1 <0>         0.1208
     45 H12        -5.4830   -1.3423    1.3680 H         1 <0>         0.1024
     46 H13        -4.8608   -5.0202    0.9111 H         1 <0>         0.1182
     47 H14        -5.2597   -3.4963    0.0477 H         1 <0>         0.0994
     48 H15        -2.8533   -4.0603   -0.2210 H         1 <0>         0.1306
     49 H16        -2.6543   -4.0817    1.5641 H         1 <0>         0.1341
     50 H17        -7.0341   -3.5427    0.2318 H         1 <0>         0.1312
     51 H18        -9.4528   -3.9451    0.4557 H         1 <0>         0.1387
     52 H19        -9.0476   -4.0062    4.7030 H         1 <0>         0.1398
     53 H20        -6.6275   -3.6138    4.4767 H         1 <0>         0.1406
     54 H21        -4.5955   -5.0052    3.4730 H         1 <0>         0.4267
     55 H22        -1.9186    1.8831    0.0331 H         1 <0>         0.1234
     56 H23        -1.7593    4.2668   -0.5635 H         1 <0>         0.1284
     57 H24         0.3018    5.1451   -1.5851 H         1 <0>         0.1289
     58 H25         2.2065    3.6415   -2.0028 H         1 <0>         0.1289
     59 H26         2.0506    1.2597   -1.3976 H         1 <0>         0.1219
     60 H27         1.3165    1.7310    1.2653 H         1 <0>         0.1271
     61 H28         2.8828    1.2444    3.1019 H         1 <0>         0.1270
     62 H29         3.3820   -1.0892    3.7086 H         1 <0>         0.1266
     63 H30         2.3088   -2.9362    2.4838 H         1 <0>         0.1251
     64 H31         0.7354   -2.4495    0.6533 H         1 <0>         0.1194
     65 H32        -3.6206   -1.7541   -0.0794 H         1 <0>         0.4340
@<TRIPOS>BOND
     1    1    2 1
     2    1   34 1
     3    1   35 1
     4    1   36 1
     5    2    3 am
     6    2   37 1
     7    3    4 2
     8    3    5 1
     9    5    6 1
    10    5   22 1
    11    5   28 1
    12    6    7 1
    13    6   38 1
    14    6   39 1
    15    7    8 1
    16    7   40 1
    17    7   41 1
    18    8   13 1
    19    8    9 1
    20    8   65 1
    21    9   10 1
    22    9   42 1
    23    9   43 1
    24   10   11 1
    25   10   44 1
    26   10   45 1
    27   11   12 1
    28   11   14 1
    29   11   21 1
    30   12   13 1
    31   12   46 1
    32   12   47 1
    33   13   48 1
    34   13   49 1
    35   14   19 ar
    36   14   15 ar
    37   15   16 ar
    38   15   50 1
    39   16   17 ar
    40   16   51 1
    41   17   18 ar
    42   17   20 1
    43   18   19 ar
    44   18   52 1
    45   19   53 1
    46   21   54 1
    47   22   27 ar
    48   22   23 ar
    49   23   24 ar
    50   23   55 1
    51   24   25 ar
    52   24   56 1
    53   25   26 ar
    54   25   57 1
    55   26   27 ar
    56   26   58 1
    57   27   59 1
    58   28   33 ar
    59   28   29 ar
    60   29   30 ar
    61   29   60 1
    62   30   31 ar
    63   30   61 1
    64   31   32 ar
    65   31   62 1
    66   32   33 ar
    67   32   63 1
    68   33   64 1
@<TRIPOS>MOLECULE
ZINC28114997
   32    33     0     0     0
SMALL
USER_CHARGES
4-(1H-imidazol-4-ylmethyl)-1-methyl-piperidine
@<TRIPOS>ATOM
      1 C1         -1.7396    5.4397    0.0470 C.3       1 <0>        -0.0484
      2 N1         -1.5310    3.9856    0.0373 N.4       1 <0>        -0.4005
      3 C2         -0.8323    3.5623   -1.1830 C.3       1 <0>        -0.0067
      4 C3         -0.7618    2.0343   -1.2280 C.3       1 <0>        -0.1452
      5 C4         -0.0187    1.5258    0.0104 C.3       1 <0>        -0.1031
      6 C5         -0.7379    2.0208    1.2682 C.3       1 <0>        -0.1460
      7 C6         -0.8105    3.5493    1.2401 C.3       1 <0>        -0.0056
      8 C7          0.0021   -0.0041    0.0020 C.3       1 <0>        -0.0595
      9 C8          0.8348   -0.5015    1.1553 C.2       1 <0>         0.0078
     10 C9          0.4311   -1.3612    2.1101 C.2       1 <0>         0.0255
     11 N2          1.4936   -1.5437    2.9536 N.pl3     1 <0>        -0.5281
     12 H1          1.4008   -2.2191    3.8169 H         1 <0>         0.5120
     13 C10         2.5074   -0.7816    2.4897 C.cat     1 <0>         0.3302
     14 N3          2.1061   -0.1611    1.4141 N.pl3     1 <0>        -0.5002
     15 H2         -2.2802    5.7386   -0.8632 H         1 <0>         0.1292
     16 H3         -0.7655    5.9496    0.0790 H         1 <0>         0.1200
     17 H4         -2.3293    5.7196    0.9324 H         1 <0>         0.1276
     18 H5         -1.3783    3.9298   -2.0643 H         1 <0>         0.1389
     19 H6          0.1869    3.9761   -1.1843 H         1 <0>         0.1267
     20 H7         -1.7809    1.6205   -1.2419 H         1 <0>         0.0988
     21 H8         -0.2255    1.7185   -2.1350 H         1 <0>         0.1194
     22 H9          1.0145    1.9031    0.0025 H         1 <0>         0.0861
     23 H10        -1.7555    1.6040    1.2967 H         1 <0>         0.0991
     24 H11        -0.1830    1.6946    2.1602 H         1 <0>         0.1026
     25 H12         0.2084    3.9637    1.2277 H         1 <0>         0.1247
     26 H13        -1.3408    3.9068    2.1351 H         1 <0>         0.1354
     27 H14        -1.0251   -0.3853    0.1001 H         1 <0>         0.1173
     28 H15         0.4364   -0.3597   -0.9440 H         1 <0>         0.1120
     29 H16        -0.5430   -1.8200    2.1931 H         1 <0>         0.2214
     30 H17         3.4879   -0.6994    2.9350 H         1 <0>         0.2626
     31 H18        -2.5184    3.5007    0.0437 H         1 <0>         0.4458
     32 H19         2.6326    0.5428    0.7527 H         1 <0>         0.5001
@<TRIPOS>BOND
     1    1    2 1
     2    1   15 1
     3    1   16 1
     4    1   17 1
     5    2    7 1
     6    2    3 1
     7    2   31 1
     8    3    4 1
     9    3   18 1
    10    3   19 1
    11    4    5 1
    12    4   20 1
    13    4   21 1
    14    5    6 1
    15    5    8 1
    16    5   22 1
    17    6    7 1
    18    6   23 1
    19    6   24 1
    20    7   25 1
    21    7   26 1
    22    8    9 1
    23    8   27 1
    24    8   28 1
    25    9   14 1
    26    9   10 2
    27   10   11 1
    28   10   29 1
    29   11   12 1
    30   11   13 1
    31   13   14 2
    32   13   30 1
    33   14   32 1
@<TRIPOS>MOLECULE
ZINC28114997
   31    32     0     0     0
SMALL
USER_CHARGES
4-(1H-imidazol-4-ylmethyl)-1-methyl-piperidine
@<TRIPOS>ATOM
      1 C1         -1.7396    5.4397    0.0470 C.3       1 <0>        -0.0459
      2 N1         -1.5310    3.9856    0.0373 N.4       1 <0>        -0.3987
      3 C2         -0.8323    3.5623   -1.1830 C.3       1 <0>        -0.0039
      4 C3         -0.7618    2.0343   -1.2280 C.3       1 <0>        -0.1446
      5 C4         -0.0187    1.5258    0.0104 C.3       1 <0>        -0.0932
      6 C5         -0.7379    2.0208    1.2682 C.3       1 <0>        -0.1384
      7 C6         -0.8105    3.5493    1.2401 C.3       1 <0>        -0.0036
      8 C7          0.0021   -0.0041    0.0020 C.3       1 <0>        -0.0295
      9 C8          0.8348   -0.5015    1.1553 C.2       1 <0>        -0.0215
     10 C9          0.4311   -1.3612    2.1101 C.2       1 <0>        -0.0516
     11 N2          1.4936   -1.5437    2.9536 N.pl3     1 <0>        -0.5668
     12 C10         2.5074   -0.7816    2.4897 C.2       1 <0>         0.2149
     13 N3          2.1061   -0.1611    1.4141 N.2       1 <0>        -0.4996
     14 H1         -2.2802    5.7386   -0.8632 H         1 <0>         0.1237
     15 H2         -0.7655    5.9496    0.0790 H         1 <0>         0.1179
     16 H3         -2.3293    5.7196    0.9324 H         1 <0>         0.1232
     17 H4         -1.3783    3.9298   -2.0643 H         1 <0>         0.1304
     18 H5          0.1869    3.9761   -1.1843 H         1 <0>         0.1252
     19 H6         -1.7809    1.6205   -1.2419 H         1 <0>         0.0887
     20 H7         -0.2255    1.7185   -2.1350 H         1 <0>         0.1129
     21 H8          1.0145    1.9031    0.0025 H         1 <0>         0.0967
     22 H9         -1.7555    1.6040    1.2967 H         1 <0>         0.0862
     23 H10        -0.1830    1.6946    2.1602 H         1 <0>         0.1083
     24 H11         0.2084    3.9637    1.2277 H         1 <0>         0.1246
     25 H12        -1.3408    3.9068    2.1351 H         1 <0>         0.1283
     26 H13        -1.0251   -0.3853    0.1001 H         1 <0>         0.0785
     27 H14         0.4364   -0.3597   -0.9440 H         1 <0>         0.0838
     28 H15        -0.4989   -1.7282    2.0917 H         1 <0>         0.1646
     29 H16         3.4377   -0.6428    2.8293 H         1 <0>         0.1920
     30 H17        -2.5184    3.5007    0.0437 H         1 <0>         0.4415
     31 H18         1.4008   -2.2191    3.8169 H         1 <0>         0.4559
@<TRIPOS>BOND
     1    1    2 1
     2    1   14 1
     3    1   15 1
     4    1   16 1
     5    2    7 1
     6    2    3 1
     7    2   30 1
     8    3    4 1
     9    3   17 1
    10    3   18 1
    11    4    5 1
    12    4   19 1
    13    4   20 1
    14    5    6 1
    15    5    8 1
    16    5   21 1
    17    6    7 1
    18    6   22 1
    19    6   23 1
    20    7   24 1
    21    7   25 1
    22    8    9 1
    23    8   26 1
    24    8   27 1
    25    9   13 1
    26    9   10 2
    27   10   11 1
    28   10   28 1
    29   11   12 1
    30   11   31 1
    31   12   13 2
    32   12   29 1
@<TRIPOS>MOLECULE
ZINC13560691
   28    29     0     0     0
SMALL
USER_CHARGES

@<TRIPOS>ATOM
      1 C1         -0.0162    1.3425    0.0094 C.2       1 <0>        -0.0101
      2 C2          0.0021   -0.0041    0.0020 C.2       1 <0>        -0.0445
      3 N1         -1.3026   -0.4179    0.0131 N.pl3     1 <0>        -0.5703
      4 C3         -2.0733    0.6909    0.0269 C.2       1 <0>         0.1966
      5 N2         -1.2970    1.7400    0.0297 N.2       1 <0>        -0.4896
      6 C4          1.2241   -0.8858   -0.0156 C.3       1 <0>        -0.0359
      7 C5          1.7260   -1.0905    1.4152 C.3       1 <0>        -0.0982
      8 C6          0.6831   -1.8752    2.2164 C.3       1 <0>        -0.1462
      9 C7          1.2249   -2.1451    3.6217 C.3       1 <0>        -0.0060
     10 N3          2.4639   -2.9269    3.5306 N.4       1 <0>        -0.5053
     11 C8          3.4916   -2.1512    2.8257 C.3       1 <0>        -0.0071
     12 C9          3.0370   -1.8816    1.3897 C.3       1 <0>        -0.1449
     13 H1          0.8489    1.9890    0.0046 H         1 <0>         0.1692
     14 H2         -3.1531    0.7069    0.0380 H         1 <0>         0.2116
     15 H3          0.9692   -1.8512   -0.4528 H         1 <0>         0.0761
     16 H4          2.0052   -0.4124   -0.6104 H         1 <0>         0.0987
     17 H5          1.8942   -0.1212    1.8846 H         1 <0>         0.0964
     18 H6         -0.2358   -1.2931    2.2861 H         1 <0>         0.1081
     19 H7          0.4779   -2.8223    1.7173 H         1 <0>         0.0871
     20 H8          1.4296   -1.1975    4.1199 H         1 <0>         0.1315
     21 H9          0.4849   -2.7035    4.1949 H         1 <0>         0.1328
     22 H10         2.7895   -3.1487    4.4595 H         1 <0>         0.4327
     23 H11         3.6479   -1.2035    3.3409 H         1 <0>         0.1315
     24 H12         4.4248   -2.7141    2.8113 H         1 <0>         0.1348
     25 H13         2.8806   -2.8287    0.8735 H         1 <0>         0.0899
     26 H14         3.8005   -1.3040    0.8686 H         1 <0>         0.1162
     27 H15         2.2845   -3.7821    3.0262 H         1 <0>         0.4273
     28 H16        -1.6153   -1.3361    0.0113 H         1 <0>         0.4179
@<TRIPOS>BOND
     1    1    2 2
     2    1   13 1
     3    1    5 1
     4    2    3 1
     5    2    6 1
     6    3    4 1
     7    3   28 1
     8    4   14 1
     9    4    5 2
    10    6    7 1
    11    6   15 1
    12    6   16 1
    13    7   12 1
    14    7    8 1
    15    7   17 1
    16    8    9 1
    17    8   18 1
    18    8   19 1
    19    9   10 1
    20    9   20 1
    21    9   21 1
    22   10   11 1
    23   10   22 1
    24   10   27 1
    25   11   12 1
    26   11   23 1
    27   11   24 1
    28   12   25 1
    29   12   26 1
@<TRIPOS>MOLECULE
ZINC04097188
   68    72     0     0     0
SMALL
USER_CHARGES

@<TRIPOS>ATOM
      1 C1         -0.0187    1.5258    0.0104 C.3       1 <0>        -0.1896
      2 C2          0.0021   -0.0041    0.0020 C.3       1 <0>         0.0255
      3 H1         -1.0107   -0.3920    0.1113 H         1 <0>         0.1397
      4 C3          0.6266   -0.5176   -1.3119 C.3       1 <0>        -0.0884
      5 H2         -0.1119   -0.6752   -2.0979 H         1 <0>         0.1302
      6 C4          1.7513    0.4610   -1.7327 C.3       1 <0>        -0.1475
      7 C5          3.0882   -0.3174   -1.6037 C.3       1 <0>        -0.1270
      8 C6          2.6513   -1.7814   -1.7325 C.3       1 <0>        -0.0772
      9 H3          2.4325   -2.0219   -2.7729 H         1 <0>         0.0970
     10 C7          1.3395   -1.8095   -0.8929 C.3       1 <0>        -0.0735
     11 C8          0.6189   -3.1144   -1.1352 C.3       1 <0>        -0.1068
     12 C9          1.5255   -4.2387   -0.6081 C.3       1 <0>        -0.1247
     13 C10         2.9025   -4.2081   -1.2664 C.3       1 <0>        -0.0754
     14 H4          2.7799   -4.4153   -2.3295 H         1 <0>         0.0765
     15 C11         3.6083   -2.8046   -1.1440 C.3       1 <0>        -0.0714
     16 H5          3.8076   -2.5762   -0.0970 H         1 <0>         0.0770
     17 C12         4.9054   -2.8147   -1.9610 C.3       1 <0>        -0.0900
     18 C13         5.7800   -3.9386   -1.4875 C.2       1 <0>        -0.1193
     19 C14         5.3091   -5.0156   -0.9305 C.2       1 <0>        -0.1319
     20 C15         3.7793   -5.2940   -0.6651 C.3       1 <0>        -0.0080
     21 C16         3.3854   -6.6607   -1.2326 C.3       1 <0>        -0.1059
     22 C17         4.2846   -7.7398   -0.6263 C.3       1 <0>        -0.1415
     23 C18         5.7383   -7.4868   -1.0294 C.3       1 <0>         0.0191
     24 H6          5.8126   -7.4485   -2.1162 H         1 <0>         0.1323
     25 C19         6.2918   -6.0912   -0.4987 C.3       1 <0>        -0.0926
     26 N1          6.5843   -8.5737   -0.5188 N.4       1 <0>        -0.3856
     27 C20         6.1344   -9.8521   -1.0856 C.3       1 <0>        -0.0533
     28 C21         7.9804   -8.3307   -0.9059 C.3       1 <0>        -0.0523
     29 C22         3.5249   -5.3314    0.8432 C.3       1 <0>        -0.1541
     30 C23         1.6785   -1.6179    0.5905 C.3       1 <0>        -0.0109
     31 N2          0.8553   -0.5039    1.0939 N.4       1 <0>        -0.3835
     32 C24         1.7293    0.5772    1.5687 C.3       1 <0>        -0.0584
     33 H7          0.9999    1.9024    0.1036 H         1 <0>         0.0926
     34 H8         -0.4565    1.8883   -0.9196 H         1 <0>         0.1058
     35 H9         -0.6143    1.8764    0.8533 H         1 <0>         0.0849
     36 H10         1.6026    0.7791   -2.7646 H         1 <0>         0.0891
     37 H11         1.7586    1.3277   -1.0717 H         1 <0>         0.0873
     38 H12         3.7708   -0.0468   -2.4093 H         1 <0>         0.0867
     39 H13         3.5471   -0.1364   -0.6316 H         1 <0>         0.0660
     40 H14        -0.3296   -3.1199   -0.5982 H         1 <0>         0.0755
     41 H15         0.4432   -3.2488   -2.2025 H         1 <0>         0.0875
     42 H16         1.6440   -4.1243    0.4694 H         1 <0>         0.0702
     43 H17         1.0549   -5.2004   -0.8126 H         1 <0>         0.0787
     44 H18         4.6701   -2.9562   -3.0158 H         1 <0>         0.0865
     45 H19         5.4269   -1.8668   -1.8277 H         1 <0>         0.0825
     46 H20         6.8487   -3.8493   -1.6154 H         1 <0>         0.1148
     47 H21         2.3454   -6.8718   -0.9837 H         1 <0>         0.0889
     48 H22         3.5061   -6.6531   -2.3159 H         1 <0>         0.0766
     49 H23         4.1999   -7.7141    0.4601 H         1 <0>         0.0908
     50 H24         3.9725   -8.7186   -0.9905 H         1 <0>         0.0937
     51 H25         7.2866   -5.8521   -0.8747 H         1 <0>         0.1020
     52 H26         6.3149   -6.1520    0.5894 H         1 <0>         0.0859
     53 H27         6.2087   -9.8138   -2.1724 H         1 <0>         0.1230
     54 H28         6.7622  -10.6586   -0.7067 H         1 <0>         0.1276
     55 H29         5.0985  -10.0324   -0.7983 H         1 <0>         0.1250
     56 H30         8.3143   -7.3822   -0.4853 H         1 <0>         0.1232
     57 H31         8.6082   -9.1372   -0.5270 H         1 <0>         0.1273
     58 H32         8.0547   -8.2924   -1.9927 H         1 <0>         0.1229
     59 H33         2.4738   -5.5523    1.0290 H         1 <0>         0.0706
     60 H34         4.1445   -6.1048    1.2971 H         1 <0>         0.0559
     61 H35         3.7751   -4.3637    1.2779 H         1 <0>         0.0573
     62 H36         1.4462   -2.5280    1.1437 H         1 <0>         0.1322
     63 H37         2.7357   -1.3763    0.7002 H         1 <0>         0.1342
     64 H38         1.1195    1.4035    1.9341 H         1 <0>         0.1302
     65 H39         2.3601    0.2062    2.3765 H         1 <0>         0.1217
     66 H40         2.3568    0.9241    0.7477 H         1 <0>         0.1231
     67 H41         0.2758   -0.8278    1.8537 H         1 <0>         0.4270
     68 H42         6.5156   -8.6091    0.4873 H         1 <0>         0.4242
@<TRIPOS>BOND
     1    1    2 1
     2    1   33 1
     3    1   34 1
     4    1   35 1
     5    2    3 1
     6    2   31 1
     7    2    4 1
     8    4    5 1
     9    4   10 1
    10    4    6 1
    11    6    7 1
    12    6   36 1
    13    6   37 1
    14    7    8 1
    15    7   38 1
    16    7   39 1
    17    8    9 1
    18    8   15 1
    19    8   10 1
    20   10   11 1
    21   10   30 1
    22   11   12 1
    23   11   40 1
    24   11   41 1
    25   12   13 1
    26   12   42 1
    27   12   43 1
    28   13   14 1
    29   13   20 1
    30   13   15 1
    31   15   16 1
    32   15   17 1
    33   17   18 1
    34   17   44 1
    35   17   45 1
    36   18   19 2
    37   18   46 1
    38   19   25 1
    39   19   20 1
    40   20   21 1
    41   20   29 1
    42   21   22 1
    43   21   47 1
    44   21   48 1
    45   22   23 1
    46   22   49 1
    47   22   50 1
    48   23   24 1
    49   23   25 1
    50   23   26 1
    51   25   51 1
    52   25   52 1
    53   26   27 1
    54   26   28 1
    55   26   68 1
    56   27   53 1
    57   27   54 1
    58   27   55 1
    59   28   56 1
    60   28   57 1
    61   28   58 1
    62   29   59 1
    63   29   60 1
    64   29   61 1
    65   30   31 1
    66   30   62 1
    67   30   63 1
    68   31   32 1
    69   31   67 1
    70   32   64 1
    71   32   65 1
    72   32   66 1
@<TRIPOS>MOLECULE
ZINC13813304
   33    34     0     0     0
SMALL
USER_CHARGES

@<TRIPOS>ATOM
      1 C1         -0.0167    1.3781    0.0096 C.ar      1 <0>        -0.1090
      2 C2          1.1709    2.0855    0.0021 C.ar      1 <0>        -0.1220
      3 C3          2.3773    1.4107   -0.0130 C.ar      1 <0>        -0.0987
      4 C4          2.3960    0.0285   -0.0201 C.ar      1 <0>        -0.1000
      5 C5          1.2084   -0.6789   -0.0117 C.ar      1 <0>        -0.0992
      6 C6          0.0021   -0.0041    0.0020 C.ar      1 <0>        -0.1222
      7 C7          3.7112   -0.7071   -0.0376 C.3       1 <0>         0.1067
      8 O1          4.1410   -0.9464    1.3041 O.3       1 <0>        -0.3820
      9 C8          5.3853   -1.6423    1.4004 C.3       1 <0>         0.0581
     10 C9          5.7451   -1.8423    2.8740 C.3       1 <0>        -0.1184
     11 C10         7.0774   -2.5874    2.9771 C.3       1 <0>        -0.0619
     12 C11         7.4318   -2.7844    4.4286 C.2       1 <0>         0.0660
     13 C12         8.0620   -1.9026    5.2279 C.2       1 <0>         0.0031
     14 N1          8.1866   -2.4586    6.4421 N.pl3     1 <0>        -0.4725
     15 C13         7.6575   -3.6514    6.4256 C.cat     1 <0>         0.3049
     16 N2          7.1697   -3.8916    5.1895 N.pl3     1 <0>        -0.5108
     17 H1          6.7195   -4.6988    4.8952 H         1 <0>         0.4654
     18 H2         -0.9591    1.9053    0.0259 H         1 <0>         0.1260
     19 H3          1.1563    3.1654    0.0076 H         1 <0>         0.1263
     20 H4          3.3051    1.9634   -0.0196 H         1 <0>         0.1226
     21 H5          1.2231   -1.7588   -0.0176 H         1 <0>         0.1220
     22 H6         -0.9258   -0.5567    0.0082 H         1 <0>         0.1261
     23 H7          3.5884   -1.6586   -0.5549 H         1 <0>         0.0609
     24 H8          4.4573   -0.1052   -0.5563 H         1 <0>         0.0617
     25 H9          5.2973   -2.6133    0.9129 H         1 <0>         0.0542
     26 H10         6.1662   -1.0598    0.9116 H         1 <0>         0.0568
     27 H11         5.8332   -0.8714    3.3615 H         1 <0>         0.0835
     28 H12         4.9642   -2.4248    3.3629 H         1 <0>         0.0765
     29 H13         6.9894   -3.5584    2.4896 H         1 <0>         0.1001
     30 H14         7.8583   -2.0049    2.4883 H         1 <0>         0.1168
     31 H15         8.4067   -0.9200    4.9414 H         1 <0>         0.2248
     32 H16         7.6135   -4.3321    7.2630 H         1 <0>         0.2666
     33 H17         8.6043   -2.0402    7.2111 H         1 <0>         0.4677
@<TRIPOS>BOND
     1    1    6 ar
     2    1    2 ar
     3    1   18 1
     4    2    3 ar
     5    2   19 1
     6    3    4 ar
     7    3   20 1
     8    4    5 ar
     9    4    7 1
    10    5    6 ar
    11    5   21 1
    12    6   22 1
    13    7    8 1
    14    7   23 1
    15    7   24 1
    16    8    9 1
    17    9   10 1
    18    9   25 1
    19    9   26 1
    20   10   11 1
    21   10   27 1
    22   10   28 1
    23   11   12 1
    24   11   29 1
    25   11   30 1
    26   12   16 1
    27   12   13 2
    28   13   14 1
    29   13   31 1
    30   14   15 2
    31   14   33 1
    32   15   16 1
    33   15   32 1
    34   16   17 1
@<TRIPOS>MOLECULE
ZINC13813304
   32    33     0     0     0
SMALL
USER_CHARGES

@<TRIPOS>ATOM
      1 C1         -0.0167    1.3781    0.0096 C.ar      1 <0>        -0.1143
      2 C2          1.1709    2.0855    0.0021 C.ar      1 <0>        -0.1233
      3 C3          2.3773    1.4107   -0.0130 C.ar      1 <0>        -0.0988
      4 C4          2.3960    0.0285   -0.0201 C.ar      1 <0>        -0.0920
      5 C5          1.2084   -0.6789   -0.0117 C.ar      1 <0>        -0.0994
      6 C6          0.0021   -0.0041    0.0020 C.ar      1 <0>        -0.1238
      7 C7          3.7112   -0.7071   -0.0376 C.3       1 <0>         0.1032
      8 O1          4.1410   -0.9464    1.3041 O.3       1 <0>        -0.3813
      9 C8          5.3853   -1.6423    1.4004 C.3       1 <0>         0.0608
     10 C9          5.7451   -1.8423    2.8740 C.3       1 <0>        -0.1088
     11 C10         7.0774   -2.5874    2.9771 C.3       1 <0>        -0.0303
     12 C11         7.4318   -2.7844    4.4286 C.2       1 <0>         0.0035
     13 C12         7.7127   -3.9601    5.0221 C.2       1 <0>        -0.0550
     14 N1          7.9784   -3.6866    6.3367 N.pl3     1 <0>        -0.5713
     15 C13         7.8505   -2.3523    6.5009 C.2       1 <0>         0.1857
     16 N2          7.5284   -1.8187    5.3544 N.2       1 <0>        -0.4882
     17 H1         -0.9591    1.9053    0.0259 H         1 <0>         0.1230
     18 H2          1.1563    3.1654    0.0076 H         1 <0>         0.1241
     19 H3          3.3051    1.9634   -0.0196 H         1 <0>         0.1230
     20 H4          1.2231   -1.7588   -0.0176 H         1 <0>         0.1224
     21 H5         -0.9258   -0.5567    0.0082 H         1 <0>         0.1238
     22 H6          3.5884   -1.6586   -0.5549 H         1 <0>         0.0575
     23 H7          4.4573   -0.1052   -0.5563 H         1 <0>         0.0580
     24 H8          5.2973   -2.6133    0.9129 H         1 <0>         0.0484
     25 H9          6.1662   -1.0598    0.9116 H         1 <0>         0.0500
     26 H10         5.8332   -0.8714    3.3615 H         1 <0>         0.0789
     27 H11         4.9642   -2.4248    3.3629 H         1 <0>         0.0677
     28 H12         6.9894   -3.5584    2.4897 H         1 <0>         0.0753
     29 H13         7.8583   -2.0049    2.4883 H         1 <0>         0.0760
     30 H14         7.7254   -4.9321    4.5514 H         1 <0>         0.1759
     31 H15         7.9950   -1.8153    7.4267 H         1 <0>         0.2082
     32 H16         8.2144   -4.3309    7.0224 H         1 <0>         0.4210
@<TRIPOS>BOND
     1    1    6 ar
     2    1    2 ar
     3    1   17 1
     4    2    3 ar
     5    2   18 1
     6    3    4 ar
     7    3   19 1
     8    4    5 ar
     9    4    7 1
    10    5    6 ar
    11    5   20 1
    12    6   21 1
    13    7    8 1
    14    7   22 1
    15    7   23 1
    16    8    9 1
    17    9   10 1
    18    9   24 1
    19    9   25 1
    20   10   11 1
    21   10   26 1
    22   10   27 1
    23   11   28 1
    24   11   29 1
    25   11   12 1
    26   12   16 1
    27   12   13 2
    28   13   30 1
    29   13   14 1
    30   14   15 1
    31   14   32 1
    32   15   31 1
    33   15   16 2
@<TRIPOS>MOLECULE
ZINC13813304
   32    33     0     0     0
SMALL
USER_CHARGES

@<TRIPOS>ATOM
      1 C1         -0.0167    1.3781    0.0096 C.ar      1 <0>        -0.1132
      2 C2          1.1709    2.0855    0.0021 C.ar      1 <0>        -0.1229
      3 C3          2.3773    1.4107   -0.0130 C.ar      1 <0>        -0.0986
      4 C4          2.3960    0.0285   -0.0201 C.ar      1 <0>        -0.0937
      5 C5          1.2084   -0.6789   -0.0117 C.ar      1 <0>        -0.0994
      6 C6          0.0021   -0.0041    0.0020 C.ar      1 <0>        -0.1234
      7 C7          3.7112   -0.7071   -0.0376 C.3       1 <0>         0.1038
      8 O1          4.1410   -0.9464    1.3041 O.3       1 <0>        -0.3815
      9 C8          5.3853   -1.6423    1.4004 C.3       1 <0>         0.0607
     10 C9          5.7451   -1.8423    2.8740 C.3       1 <0>        -0.1137
     11 C10         7.0774   -2.5874    2.9771 C.3       1 <0>        -0.0402
     12 C11         7.4318   -2.7844    4.4286 C.2       1 <0>        -0.0244
     13 C12         8.0620   -1.9026    5.2279 C.2       1 <0>        -0.0207
     14 N1          8.1866   -2.4586    6.4421 N.2       1 <0>        -0.4938
     15 C13         7.6575   -3.6514    6.4256 C.2       1 <0>         0.1844
     16 N2          7.1697   -3.8916    5.1895 N.pl3     1 <0>        -0.5678
     17 H1          6.7195   -4.6988    4.8952 H         1 <0>         0.4191
     18 H2         -0.9591    1.9053    0.0259 H         1 <0>         0.1237
     19 H3          1.1563    3.1654    0.0076 H         1 <0>         0.1247
     20 H4          3.3051    1.9634   -0.0196 H         1 <0>         0.1231
     21 H5          1.2231   -1.7588   -0.0176 H         1 <0>         0.1221
     22 H6         -0.9258   -0.5567    0.0082 H         1 <0>         0.1242
     23 H7          3.5884   -1.6586   -0.5549 H         1 <0>         0.0580
     24 H8          4.4573   -0.1052   -0.5563 H         1 <0>         0.0591
     25 H9          5.2973   -2.6133    0.9129 H         1 <0>         0.0493
     26 H10         6.1662   -1.0598    0.9116 H         1 <0>         0.0528
     27 H11         5.8332   -0.8714    3.3615 H         1 <0>         0.0782
     28 H12         4.9642   -2.4248    3.3629 H         1 <0>         0.0692
     29 H13         6.9894   -3.5584    2.4896 H         1 <0>         0.0722
     30 H14         7.8583   -2.0049    2.4883 H         1 <0>         0.0910
     31 H15         8.4067   -0.9200    4.9414 H         1 <0>         0.1691
     32 H16         7.6135   -4.3321    7.2630 H         1 <0>         0.2085
@<TRIPOS>BOND
     1    1    6 ar
     2    1    2 ar
     3    1   18 1
     4    2    3 ar
     5    2   19 1
     6    3    4 ar
     7    3   20 1
     8    4    5 ar
     9    4    7 1
    10    5    6 ar
    11    5   21 1
    12    6   22 1
    13    7    8 1
    14    7   23 1
    15    7   24 1
    16    8    9 1
    17    9   10 1
    18    9   25 1
    19    9   26 1
    20   10   11 1
    21   10   27 1
    22   10   28 1
    23   11   12 1
    24   11   29 1
    25   11   30 1
    26   12   16 1
    27   12   13 2
    28   13   14 1
    29   13   31 1
    30   14   15 2
    31   15   16 1
    32   15   32 1
    33   16   17 1
@<TRIPOS>MOLECULE
ZINC05425255
   23    23     0     0     0
SMALL
USER_CHARGES

@<TRIPOS>ATOM
      1 C1         -0.0165    1.3646    0.0095 C.2       1 <0>         0.0534
      2 C2          1.2671    1.7717   -0.0005 C.2       1 <0>         0.0154
      3 N1          2.0482    0.6814   -0.0138 N.pl3     1 <0>        -0.4756
      4 H1         -0.7708   -0.5902    0.0060 H         1 <0>         0.4736
      5 C3          1.2973   -0.3859   -0.0124 C.cat     1 <0>         0.3267
      6 N2          0.0021   -0.0041    0.0020 N.pl3     1 <0>        -0.5083
      7 C4          1.7427    3.2017    0.0026 C.3       1 <0>        -0.0449
      8 C5          1.7980    3.7176    1.4420 C.3       1 <0>        -0.1498
      9 S1          2.3704    5.4389    1.4457 S.3       1 <0>         0.0829
     10 C6          2.3798    5.8813    3.1513 C.cat     1 <0>         0.4865
     11 N3          3.2533    6.7821    3.6014 N.pl3     1 <0>        -0.7266
     12 N4          1.5135    5.3152    3.9914 N.pl3     1 <0>        -0.7640
     13 H2         -0.8922    1.9965    0.0253 H         1 <0>         0.2304
     14 H3          1.6529   -1.4057   -0.0218 H         1 <0>         0.2722
     15 H4          2.7369    3.2550   -0.4409 H         1 <0>         0.1188
     16 H5          1.0529    3.8153   -0.5770 H         1 <0>         0.1334
     17 H6          0.8038    3.6644    1.8855 H         1 <0>         0.1179
     18 H7          2.4878    3.1041    2.0215 H         1 <0>         0.1201
     19 H8          3.8837    7.1940    2.9900 H         1 <0>         0.4543
     20 H9          0.8779    4.6597    3.6639 H         1 <0>         0.4407
     21 H10         1.5187    5.5587    4.9303 H         1 <0>         0.4366
     22 H11         3.2584    7.0256    4.5403 H         1 <0>         0.4388
     23 H12         3.0181    0.6856   -0.0234 H         1 <0>         0.4676
@<TRIPOS>BOND
     1    1    6 1
     2    1    2 2
     3    1   13 1
     4    2    3 1
     5    2    7 1
     6    3    5 2
     7    3   23 1
     8    4    6 1
     9    5   14 1
    10    5    6 1
    11    7    8 1
    12    7   15 1
    13    7   16 1
    14    8    9 1
    15    8   17 1
    16    8   18 1
    17    9   10 1
    18   10   11 2
    19   10   12 1
    20   11   19 1
    21   11   22 1
    22   12   20 1
    23   12   21 1
@<TRIPOS>MOLECULE
ZINC05425255
   22    22     0     0     0
SMALL
USER_CHARGES

@<TRIPOS>ATOM
      1 C1         -0.0165    1.3646    0.0095 C.2       1 <0>        -0.0313
      2 C2          1.2671    1.7717   -0.0005 C.2       1 <0>        -0.0163
      3 N1          2.0482    0.6814   -0.0138 N.2       1 <0>        -0.4937
      4 H1         -0.7708   -0.5902    0.0060 H         1 <0>         0.4283
      5 C3          1.2973   -0.3859   -0.0124 C.2       1 <0>         0.1996
      6 N2          0.0021   -0.0041    0.0020 N.pl3     1 <0>        -0.5648
      7 C4          1.7427    3.2017    0.0026 C.3       1 <0>        -0.0137
      8 C5          2.7000    3.4183    1.1763 C.3       1 <0>        -0.1205
      9 S1          3.2724    5.1396    1.1801 S.3       1 <0>         0.0524
     10 C6          4.3507    5.2272    2.5708 C.cat     1 <0>         0.4880
     11 N3          5.3767    6.0782    2.5662 N.pl3     1 <0>        -0.7379
     12 N4          4.1406    4.4424    3.6276 N.pl3     1 <0>        -0.7646
     13 H2         -0.8922    1.9965    0.0253 H         1 <0>         0.1812
     14 H3          1.6529   -1.4057   -0.0218 H         1 <0>         0.2134
     15 H4          2.2605    3.4145   -0.9326 H         1 <0>         0.0965
     16 H5          0.8868    3.8690    0.1039 H         1 <0>         0.0958
     17 H6          2.1821    3.2055    2.1116 H         1 <0>         0.1056
     18 H7          3.5559    2.7510    1.0750 H         1 <0>         0.1241
     19 H8          5.5296    6.6493    1.7972 H         1 <0>         0.4511
     20 H9          3.3940    3.8231    3.6310 H         1 <0>         0.4433
     21 H10         4.7342    4.4906    4.3932 H         1 <0>         0.4310
     22 H11         5.9703    6.1264    3.3318 H         1 <0>         0.4326
@<TRIPOS>BOND
     1    1    6 1
     2    1    2 2
     3    1   13 1
     4    2    3 1
     5    2    7 1
     6    3    5 2
     7    4    6 1
     8    5   14 1
     9    5    6 1
    10    7    8 1
    11    7   15 1
    12    7   16 1
    13    8    9 1
    14    8   17 1
    15    8   18 1
    16    9   10 1
    17   10   11 2
    18   10   12 1
    19   11   19 1
    20   11   22 1
    21   12   20 1
    22   12   21 1
@<TRIPOS>MOLECULE
ZINC21992582
   44    45     0     0     0
SMALL
USER_CHARGES
(3R)-N,N-dimethyl-3-phenyl-3-[4-(trifluoromethyl)phenoxy]propan-1-amine
@<TRIPOS>ATOM
      1 C1          6.5866    5.3613   -2.7415 C.3       1 <0>        -0.0469
      2 N1          5.5696    4.3016   -2.7715 N.4       1 <0>        -0.4016
      3 C2          5.9371    3.2462   -3.7250 C.3       1 <0>        -0.0533
      4 C3          5.3490    3.7455   -1.4299 C.3       1 <0>        -0.0114
      5 C4          4.1221    2.8317   -1.4520 C.3       1 <0>        -0.1380
      6 C5          3.8923    2.2525   -0.0547 C.3       1 <0>         0.1356
      7 H1          4.8019    1.7798    0.3441 H         1 <0>         0.0939
      8 C6          2.7605    1.2586   -0.1027 C.ar      1 <0>        -0.1384
      9 C7          1.4510    1.7015   -0.0949 C.ar      1 <0>        -0.0914
     10 C8          0.4128    0.7898   -0.1391 C.ar      1 <0>        -0.1165
     11 C9          0.6840   -0.5647   -0.1895 C.ar      1 <0>        -0.1010
     12 C10         1.9935   -1.0076   -0.1959 C.ar      1 <0>        -0.1153
     13 C11         3.0317   -0.0959   -0.1527 C.ar      1 <0>        -0.1072
     14 O1          3.5613    3.3080    0.8500 O.3       1 <0>        -0.3086
     15 C12         3.8198    3.0955    2.1671 C.ar      1 <0>         0.1546
     16 C13         3.6365    4.1193    3.0852 C.ar      1 <0>        -0.1486
     17 C14         3.8950    3.8992    4.4243 C.ar      1 <0>        -0.0286
     18 C15         4.3461    2.6629    4.8484 C.ar      1 <0>        -0.2108
     19 C16         4.5350    1.6426    3.9346 C.ar      1 <0>        -0.0270
     20 C17         4.2729    1.8561    2.5951 C.ar      1 <0>        -0.2057
     21 C18         4.6327    2.4272    6.3090 C.3       1 <0>         0.5094
     22 F1          5.9674    2.7473    6.5798 F         1 <0>        -0.1752
     23 F2          3.7931    3.2335    7.0850 F         1 <0>        -0.1744
     24 F3          4.4037    1.0822    6.6180 F         1 <0>        -0.1753
     25 H2          6.2870    6.1367   -2.0211 H         1 <0>         0.1249
     26 H3          6.6808    5.8075   -3.7425 H         1 <0>         0.1263
     27 H4          7.5534    4.9331   -2.4384 H         1 <0>         0.1192
     28 H5          5.1602    2.4674   -3.7273 H         1 <0>         0.1242
     29 H6          6.8994    2.8033   -3.4287 H         1 <0>         0.1202
     30 H7          6.0268    3.6777   -4.7329 H         1 <0>         0.1268
     31 H8          6.2323    3.1660   -1.1234 H         1 <0>         0.1282
     32 H9          5.1826    4.5655   -0.7159 H         1 <0>         0.1391
     33 H10         3.2388    3.4112   -1.7585 H         1 <0>         0.1051
     34 H11         4.2885    2.0116   -2.1660 H         1 <0>         0.1104
     35 H12         1.2391    2.7598   -0.0558 H         1 <0>         0.1260
     36 H13        -0.6102    1.1360   -0.1386 H         1 <0>         0.1288
     37 H14        -0.1271   -1.2769   -0.2236 H         1 <0>         0.1293
     38 H15         2.2054   -2.0659   -0.2350 H         1 <0>         0.1296
     39 H16         4.0548   -0.4419   -0.1577 H         1 <0>         0.1234
     40 H17         3.2882    5.0864    2.7538 H         1 <0>         0.1441
     41 H18         3.7482    4.6946    5.1400 H         1 <0>         0.1474
     42 H19         4.8874    0.6778    4.2683 H         1 <0>         0.1419
     43 H20         4.4203    1.0587    1.8818 H         1 <0>         0.1394
     44 H21         4.6242    4.7498   -3.1111 H         1 <0>         0.4475
@<TRIPOS>BOND
     1    1    2 1
     2    1   25 1
     3    1   26 1
     4    1   27 1
     5    2    3 1
     6    2    4 1
     7    2   44 1
     8    3   28 1
     9    3   29 1
    10    3   30 1
    11    4    5 1
    12    4   31 1
    13    4   32 1
    14    5    6 1
    15    5   33 1
    16    5   34 1
    17    6    7 1
    18    6    8 1
    19    6   14 1
    20    8   13 ar
    21    8    9 ar
    22    9   10 ar
    23    9   35 1
    24   10   11 ar
    25   10   36 1
    26   11   12 ar
    27   11   37 1
    28   12   13 ar
    29   12   38 1
    30   13   39 1
    31   14   15 1
    32   15   20 ar
    33   15   16 ar
    34   16   17 ar
    35   16   40 1
    36   17   18 ar
    37   17   41 1
    38   18   19 ar
    39   18   21 1
    40   19   20 ar
    41   19   42 1
    42   20   43 1
    43   21   22 1
    44   21   23 1
    45   21   24 1
@<TRIPOS>MOLECULE
ZINC21992584
   44    45     0     0     0
SMALL
USER_CHARGES
(3S)-N,N-dimethyl-3-phenyl-3-[4-(trifluoromethyl)phenoxy]propan-1-amine
@<TRIPOS>ATOM
      1 C1         -1.3156    3.0694   -1.0889 C.3       1 <0>        -0.0533
      2 N1         -1.3927    1.6063   -0.9824 N.4       1 <0>        -0.4016
      3 C2         -1.1238    0.9692   -2.2784 C.3       1 <0>        -0.0469
      4 C3         -0.4770    1.1046    0.0509 C.3       1 <0>        -0.0114
      5 C4         -0.9402    1.5945    1.4243 C.3       1 <0>        -0.1379
      6 C5          0.0136    1.0720    2.5005 C.3       1 <0>         0.1356
      7 H1          1.0616    1.3090    2.2649 H         1 <0>         0.0943
      8 C6         -0.3700    1.6535    3.8369 C.ar      1 <0>        -0.1382
      9 C7         -1.3545    1.0497    4.5965 C.ar      1 <0>        -0.0919
     10 C8         -1.7033    1.5806    5.8242 C.ar      1 <0>        -0.1161
     11 C9         -1.0741    2.7207    6.2881 C.ar      1 <0>        -0.1015
     12 C10        -0.0929    3.3272    5.5264 C.ar      1 <0>        -0.1153
     13 C11         0.2589    2.7939    4.3006 C.ar      1 <0>        -0.1080
     14 O1         -0.0698   -0.3533    2.5597 O.3       1 <0>        -0.3086
     15 C12         1.0103   -1.0146    3.0526 C.ar      1 <0>         0.1543
     16 C13         2.0850   -0.3038    3.5669 C.ar      1 <0>        -0.2053
     17 C14         3.1791   -0.9785    4.0731 C.ar      1 <0>        -0.0269
     18 C15         3.2089   -2.3607    4.0562 C.ar      1 <0>        -0.2107
     19 C16         2.1415   -3.0713    3.5390 C.ar      1 <0>        -0.0286
     20 C17         1.0425   -2.4015    3.0373 C.ar      1 <0>        -0.1485
     21 C18         4.4066   -3.0940    4.6029 C.3       1 <0>         0.5094
     22 F1          5.3381   -3.2947    3.5786 F         1 <0>        -0.1752
     23 F2          4.9915   -2.3364    5.6232 F         1 <0>        -0.1753
     24 F3          4.0021   -4.3317    5.1145 F         1 <0>        -0.1744
     25 H2         -1.5206    3.5198   -0.1065 H         1 <0>         0.1242
     26 H3         -2.0599    3.4237   -1.8173 H         1 <0>         0.1268
     27 H4         -0.3086    3.3602   -1.4227 H         1 <0>         0.1202
     28 H5         -1.1879   -0.1236   -2.1701 H         1 <0>         0.1249
     29 H6         -0.1155    1.2453   -2.6205 H         1 <0>         0.1192
     30 H7         -1.8667    1.3088   -3.0151 H         1 <0>         0.1263
     31 H8         -0.4743    0.0047    0.0357 H         1 <0>         0.1391
     32 H9          0.5390    1.4765   -0.1476 H         1 <0>         0.1282
     33 H10        -0.9430    2.6944    1.4395 H         1 <0>         0.1102
     34 H11        -1.9562    1.2225    1.6228 H         1 <0>         0.1052
     35 H12        -1.8489    0.1613    4.2322 H         1 <0>         0.1266
     36 H13        -2.4697    1.1066    6.4195 H         1 <0>         0.1288
     37 H14        -1.3490    3.1374    7.2459 H         1 <0>         0.1292
     38 H15         0.3986    4.2180    5.8889 H         1 <0>         0.1295
     39 H16         1.0252    3.2679    3.7053 H         1 <0>         0.1233
     40 H17         2.0643    0.7759    3.5758 H         1 <0>         0.1394
     41 H18         4.0138   -0.4257    4.4782 H         1 <0>         0.1419
     42 H19         2.1669   -4.1509    3.5276 H         1 <0>         0.1474
     43 H20         0.2088   -2.9570    2.6338 H         1 <0>         0.1442
     44 H21        -2.4177    1.3428   -0.6825 H         1 <0>         0.4475
@<TRIPOS>BOND
     1    1    2 1
     2    1   25 1
     3    1   26 1
     4    1   27 1
     5    2    3 1
     6    2    4 1
     7    2   44 1
     8    3   28 1
     9    3   29 1
    10    3   30 1
    11    4    5 1
    12    4   31 1
    13    4   32 1
    14    5    6 1
    15    5   33 1
    16    5   34 1
    17    6    7 1
    18    6    8 1
    19    6   14 1
    20    8   13 ar
    21    8    9 ar
    22    9   10 ar
    23    9   35 1
    24   10   11 ar
    25   10   36 1
    26   11   12 ar
    27   11   37 1
    28   12   13 ar
    29   12   38 1
    30   13   39 1
    31   14   15 1
    32   15   20 ar
    33   15   16 ar
    34   16   17 ar
    35   16   40 1
    36   17   18 ar
    37   17   41 1
    38   18   19 ar
    39   18   21 1
    40   19   20 ar
    41   19   42 1
    42   20   43 1
    43   21   22 1
    44   21   23 1
    45   21   24 1
@<TRIPOS>MOLECULE
ZINC03950338
   49    51     0     0     0
SMALL
USER_CHARGES
1-[2-(pyrrolidin-1-ylmethyl)pyrrolidin-1-yl]-3-[4-(trifluoromethyl)phenyl]-prop-2-en-1-one
@<TRIPOS>ATOM
      1 C1          0.4563    1.3806    0.4527 C.ar      1 <0>        -0.0995
      2 C2          1.5377    0.5282    0.5246 C.ar      1 <0>        -0.0712
      3 C3          1.3420   -0.8410    0.5748 C.ar      1 <0>        -0.1634
      4 C4          0.0615   -1.3656    0.5524 C.ar      1 <0>        -0.0702
      5 C5         -1.0301   -0.5262    0.4798 C.ar      1 <0>        -0.0894
      6 C6         -0.8407    0.8583    0.4292 C.ar      1 <0>        -0.0586
      7 C7         -2.0004    1.7611    0.3455 C.2       1 <0>         0.0044
      8 C8         -1.8138    3.0954    0.2969 C.2       1 <0>        -0.2233
      9 C9         -2.9674    3.9934    0.2136 C.2       1 <0>         0.5732
     10 O1         -4.0945    3.5353    0.1883 O.2       1 <0>        -0.5377
     11 N1         -2.7808    5.3273    0.1650 N.am      1 <0>        -0.6114
     12 C10        -1.4853    6.0190    0.2941 C.3       1 <0>         0.0934
     13 C11        -1.8435    7.4429    0.7877 C.3       1 <0>        -0.1329
     14 C12        -3.1585    7.7199    0.0123 C.3       1 <0>        -0.1499
     15 C13        -3.8348    6.3333   -0.0318 C.3       1 <0>         0.1212
     16 H1         -4.5733    6.2575    0.7664 H         1 <0>         0.0976
     17 C14        -4.5082    6.1226   -1.3894 C.3       1 <0>        -0.0132
     18 C15        -5.3507    8.4064   -1.3388 C.3       1 <0>        -0.0201
     19 C16        -6.5656    9.1340   -1.9673 C.3       1 <0>        -0.1482
     20 C17        -6.9394    8.2191   -3.1561 C.3       1 <0>        -0.1464
     21 C18        -6.3467    6.8417   -2.8054 C.3       1 <0>        -0.0089
     22 C19         2.5295   -1.7655    0.6538 C.3       1 <0>         0.5058
     23 F1          2.9422   -2.1059   -0.6389 F         1 <0>        -0.1728
     24 F2          3.5765   -1.1236    1.3237 F         1 <0>        -0.1739
     25 F3          2.1721   -2.9253    1.3497 F         1 <0>        -0.1731
     26 H2          0.6106    2.4488    0.4136 H         1 <0>         0.1385
     27 H3          2.5400    0.9300    0.5421 H         1 <0>         0.1435
     28 H4         -0.0832   -2.4351    0.5916 H         1 <0>         0.1450
     29 H5         -2.0288   -0.9370    0.4617 H         1 <0>         0.1438
     30 H6         -3.0007    1.3546    0.3230 H         1 <0>         0.1428
     31 H7         -0.8135    3.5019    0.3194 H         1 <0>         0.1359
     32 H8         -0.8554    5.5114    1.0246 H         1 <0>         0.0917
     33 H9         -0.9824    6.0658   -0.6719 H         1 <0>         0.0805
     34 H10        -2.0153    7.4516    1.8640 H         1 <0>         0.0874
     35 H11        -1.0687    8.1584    0.5121 H         1 <0>         0.0992
     36 H12        -3.7791    8.4373    0.5493 H         1 <0>         0.0976
     37 H13        -2.9444    8.0756   -0.9955 H         1 <0>         0.0885
     38 H14        -3.8128    6.3895   -2.1852 H         1 <0>         0.1295
     39 H15        -4.7958    5.0765   -1.4938 H         1 <0>         0.1389
     40 H16        -5.2430    8.6749   -0.2879 H         1 <0>         0.1414
     41 H17        -4.4385    8.6338   -1.8905 H         1 <0>         0.1362
     42 H18        -6.2817   10.1261   -2.3184 H         1 <0>         0.1161
     43 H19        -7.3884    9.1966   -1.2552 H         1 <0>         0.0985
     44 H20        -6.4977    8.5974   -4.0781 H         1 <0>         0.1030
     45 H21        -8.0226    8.1505   -3.2566 H         1 <0>         0.1054
     46 H22        -5.6050    6.5559   -3.5512 H         1 <0>         0.1296
     47 H23        -7.1405    6.0960   -2.7625 H         1 <0>         0.1341
     48 N2         -5.7200    6.9903   -1.4912 N.4       1 <0>        -0.3902
     49 H24        -6.3868    6.7248   -0.7570 H         1 <0>         0.4316
@<TRIPOS>BOND
     1    1    6 ar
     2    1    2 ar
     3    1   26 1
     4    2    3 ar
     5    2   27 1
     6    3    4 ar
     7    3   22 1
     8    4    5 ar
     9    4   28 1
    10    5    6 ar
    11    5   29 1
    12    6    7 1
    13    7    8 2
    14    7   30 1
    15    8    9 1
    16    8   31 1
    17    9   10 2
    18    9   11 am
    19   11   15 1
    20   11   12 1
    21   12   13 1
    22   12   32 1
    23   12   33 1
    24   13   14 1
    25   13   34 1
    26   13   35 1
    27   14   15 1
    28   14   36 1
    29   14   37 1
    30   15   16 1
    31   15   17 1
    32   17   38 1
    33   17   39 1
    34   17   48 1
    35   18   19 1
    36   18   40 1
    37   18   41 1
    38   18   48 1
    39   19   20 1
    40   19   42 1
    41   19   43 1
    42   20   21 1
    43   20   44 1
    44   20   45 1
    45   21   46 1
    46   21   47 1
    47   21   48 1
    48   22   23 1
    49   22   24 1
    50   22   25 1
    51   48   49 1
@<TRIPOS>MOLECULE
ZINC36188138
   44    46     0     0     0
SMALL
USER_CHARGES

@<TRIPOS>ATOM
      1 C1         -1.8891    0.2052    3.4996 C.3       1 <0>        -0.1894
      2 C2         -0.4575    0.6081    3.8587 C.3       1 <0>        -0.0110
      3 N1          0.4889   -0.1924    3.0704 N.4       1 <0>        -0.3841
      4 C3          0.3657   -1.6057    3.4490 C.3       1 <0>        -0.0259
      5 C4          1.2687   -2.4553    2.5486 C.3       1 <0>         0.0880
      6 N2          2.6379   -1.9230    2.6260 N.am      1 <0>        -0.6464
      7 C5          2.8332   -0.4795    2.4205 C.3       1 <0>         0.1072
      8 C6          1.8564    0.2767    3.3269 C.3       1 <0>        -0.0207
      9 C7          3.6837   -2.7348    2.8785 C.2       1 <0>         0.7154
     10 O1          4.8165   -2.2940    2.8492 O.2       1 <0>        -0.5582
     11 N3          3.4739   -4.0353    3.1636 N.am      1 <0>        -0.7095
     12 C8          4.5988   -4.8918    3.5472 C.3       1 <0>         0.1040
     13 H1          5.5403   -4.3755    3.7345 H         1 <0>         0.1442
     14 C9          4.6701   -6.2864    2.9219 C.3       1 <0>        -0.1807
     15 C10         4.2891   -6.1267    4.3958 C.3       1 <0>        -0.1128
     16 H2          3.2485   -6.3017    4.6688 H         1 <0>         0.1154
     17 C11         5.3095   -6.5363    5.4264 C.ar      1 <0>        -0.0623
     18 C12         6.5954   -6.8596    5.0355 C.ar      1 <0>        -0.1183
     19 C13         7.5313   -7.2353    5.9809 C.ar      1 <0>        -0.1135
     20 C14         7.1814   -7.2875    7.3172 C.ar      1 <0>        -0.1171
     21 C15         5.8957   -6.9634    7.7082 C.ar      1 <0>        -0.1164
     22 C16         4.9610   -6.5835    6.7633 C.ar      1 <0>        -0.1118
     23 H3         -2.0353   -0.8521    3.7207 H         1 <0>         0.0800
     24 H4         -2.5913    0.7992    4.0846 H         1 <0>         0.1080
     25 H5         -2.0607    0.3814    2.4377 H         1 <0>         0.0817
     26 H6         -0.3113    1.6654    3.6376 H         1 <0>         0.1335
     27 H7         -0.2860    0.4319    4.9206 H         1 <0>         0.1293
     28 H8          0.6678   -1.7311    4.4888 H         1 <0>         0.1345
     29 H9         -0.6697   -1.9249    3.3303 H         1 <0>         0.1461
     30 H10         1.2580   -3.4901    2.8909 H         1 <0>         0.1196
     31 H11         0.9131   -2.4031    1.5195 H         1 <0>         0.0998
     32 H12         3.8570   -0.2081    2.6781 H         1 <0>         0.1390
     33 H13         2.6356   -0.2279    1.3785 H         1 <0>         0.0952
     34 H14         1.9194    1.3447    3.1182 H         1 <0>         0.1461
     35 H15         2.1134    0.0944    4.3704 H         1 <0>         0.1338
     36 H16         2.5781   -4.4041    3.1148 H         1 <0>         0.3962
     37 H17         3.8801   -6.5666    2.2251 H         1 <0>         0.1044
     38 H18         5.6585   -6.6878    2.6982 H         1 <0>         0.1134
     39 H19         6.8687   -6.8188    3.9915 H         1 <0>         0.1243
     40 H20         8.5358   -7.4886    5.6754 H         1 <0>         0.1260
     41 H21         7.9124   -7.5818    8.0558 H         1 <0>         0.1253
     42 H22         5.6223   -7.0044    8.7522 H         1 <0>         0.1248
     43 H23         3.9576   -6.3266    7.0692 H         1 <0>         0.1195
     44 H24         0.2781   -0.0901    2.0890 H         1 <0>         0.4236
@<TRIPOS>BOND
     1    1    2 1
     2    1   23 1
     3    1   24 1
     4    1   25 1
     5    2    3 1
     6    2   26 1
     7    2   27 1
     8    3    8 1
     9    3    4 1
    10    3   44 1
    11    4    5 1
    12    4   28 1
    13    4   29 1
    14    5    6 1
    15    5   30 1
    16    5   31 1
    17    6    7 1
    18    6    9 am
    19    7    8 1
    20    7   32 1
    21    7   33 1
    22    8   34 1
    23    8   35 1
    24    9   10 2
    25    9   11 am
    26   11   12 1
    27   11   36 1
    28   12   13 1
    29   12   15 1
    30   12   14 1
    31   14   15 1
    32   14   37 1
    33   14   38 1
    34   15   16 1
    35   15   17 1
    36   17   22 ar
    37   17   18 ar
    38   18   19 ar
    39   18   39 1
    40   19   20 ar
    41   19   40 1
    42   20   21 ar
    43   20   41 1
    44   21   22 ar
    45   21   42 1
    46   22   43 1
@<TRIPOS>MOLECULE
ZINC36188138
   43    45     0     0     0
SMALL
USER_CHARGES

@<TRIPOS>ATOM
      1 C1          3.8340    0.5936   -0.0163 C.3       1 <0>        -0.1503
      2 C2          3.5083    0.9094   -1.4775 C.3       1 <0>         0.0501
      3 N1          2.4715   -0.0134   -1.9586 N.3       1 <0>        -0.5377
      4 C3          2.9716   -1.3942   -1.9951 C.3       1 <0>         0.0369
      5 C4          1.8155   -2.3441   -2.3257 C.3       1 <0>         0.1163
      6 N2          1.1717   -1.8829   -3.5650 N.am      1 <0>        -0.6303
      7 C5          0.7660   -0.4720   -3.6551 C.3       1 <0>         0.1349
      8 C6          1.9634    0.4042   -3.2722 C.3       1 <0>         0.0396
      9 C7          0.9587   -2.7308   -4.5908 C.2       1 <0>         0.7126
     10 O1          0.3446   -2.3566   -5.5713 O.2       1 <0>        -0.5834
     11 N3          1.4264   -3.9933   -4.5298 N.am      1 <0>        -0.7180
     12 C8          1.2932   -4.8805   -5.6879 C.3       1 <0>         0.1170
     13 H1          0.9534   -4.4049   -6.6079 H         1 <0>         0.1405
     14 C9          0.8411   -6.3189   -5.4276 C.3       1 <0>        -0.1847
     15 C10         2.2937   -6.0310   -5.8153 C.3       1 <0>        -0.1241
     16 H2          3.0511   -6.1278   -5.0374 H         1 <0>         0.1148
     17 C11         2.7336   -6.4202   -7.2031 C.ar      1 <0>        -0.0525
     18 C12         1.8001   -6.8419   -8.1313 C.ar      1 <0>        -0.1194
     19 C13         2.2036   -7.1989   -9.4043 C.ar      1 <0>        -0.1154
     20 C14         3.5406   -7.1338   -9.7493 C.ar      1 <0>        -0.1228
     21 C15         4.4741   -6.7112   -8.8214 C.ar      1 <0>        -0.1173
     22 C16         4.0700   -6.3501   -7.5497 C.ar      1 <0>        -0.1124
     23 H3          2.9352    0.7091    0.5894 H         1 <0>         0.0648
     24 H4          4.1955   -0.4317    0.0619 H         1 <0>         0.0542
     25 H5          4.6032    1.2784    0.3407 H         1 <0>         0.0608
     26 H6          3.1467    1.9347   -1.5557 H         1 <0>         0.0776
     27 H7          4.4071    0.7939   -2.0833 H         1 <0>         0.0336
     28 H8          3.7438   -1.4813   -2.7594 H         1 <0>         0.0389
     29 H9          3.3903   -1.6552   -1.0231 H         1 <0>         0.0920
     30 H10         2.2004   -3.3541   -2.4669 H         1 <0>         0.0781
     31 H11         1.0907   -2.3360   -1.5116 H         1 <0>         0.0807
     32 H12         0.4570   -0.2443   -4.6752 H         1 <0>         0.0983
     33 H13        -0.0597   -0.2839   -2.9688 H         1 <0>         0.0754
     34 H14         1.6509    1.4474   -3.2264 H         1 <0>         0.0905
     35 H15         2.7497    0.2920   -4.0187 H         1 <0>         0.0391
     36 H16         1.8512   -4.3145   -3.7191 H         1 <0>         0.3966
     37 H17         0.6428   -6.6050   -4.3947 H         1 <0>         0.1026
     38 H18         0.2043   -6.7896   -6.1766 H         1 <0>         0.1089
     39 H19         0.7555   -6.8927   -7.8618 H         1 <0>         0.1245
     40 H20         1.4743   -7.5290  -10.1293 H         1 <0>         0.1235
     41 H21         3.8560   -7.4133  -10.7437 H         1 <0>         0.1222
     42 H22         5.5187   -6.6607   -9.0908 H         1 <0>         0.1228
     43 H23         4.7988   -6.0165   -6.8258 H         1 <0>         0.1206
@<TRIPOS>BOND
     1    1    2 1
     2    1   23 1
     3    1   24 1
     4    1   25 1
     5    2    3 1
     6    2   26 1
     7    2   27 1
     8    3    8 1
     9    3    4 1
    10    4    5 1
    11    4   28 1
    12    4   29 1
    13    5    6 1
    14    5   30 1
    15    5   31 1
    16    6    7 1
    17    6    9 am
    18    7    8 1
    19    7   32 1
    20    7   33 1
    21    8   34 1
    22    8   35 1
    23    9   10 2
    24    9   11 am
    25   11   12 1
    26   11   36 1
    27   12   13 1
    28   12   15 1
    29   12   14 1
    30   14   15 1
    31   14   37 1
    32   14   38 1
    33   15   16 1
    34   15   17 1
    35   17   22 ar
    36   17   18 ar
    37   18   19 ar
    38   18   39 1
    39   19   20 ar
    40   19   40 1
    41   20   21 ar
    42   20   41 1
    43   21   22 ar
    44   21   42 1
    45   22   43 1
@<TRIPOS>MOLECULE
ZINC32779618
   47    49     0     0     0
SMALL
USER_CHARGES
N-benzyl-4-cyclopentyl-piperazine-1-carboxamide
@<TRIPOS>ATOM
      1 C1         -5.6433   -2.7981    0.0430 C.ar      1 <0>        -0.1050
      2 C2         -5.1096   -2.3535    1.2382 C.ar      1 <0>        -0.1208
      3 C3         -4.0710   -1.4414    1.2346 C.ar      1 <0>        -0.1009
      4 C4         -3.5663   -0.9734    0.0357 C.ar      1 <0>        -0.1183
      5 C5         -4.1037   -1.4137   -1.1594 C.ar      1 <0>        -0.0988
      6 C6         -5.1389   -2.3299   -1.1558 C.ar      1 <0>        -0.1195
      7 C7         -2.4342    0.0213    0.0317 C.3       1 <0>         0.1794
      8 N1         -1.1558   -0.6938    0.0093 N.am      1 <0>        -0.7442
      9 C8          0.0021   -0.0041    0.0020 C.2       1 <0>         0.7104
     10 O1         -0.0132    1.2087   -0.0830 O.2       1 <0>        -0.5669
     11 N2          1.1769   -0.6587    0.0890 N.am      1 <0>        -0.6461
     12 C9          2.4462    0.0780    0.1865 C.3       1 <0>         0.1067
     13 C10         3.2330   -0.4741    1.3859 C.3       1 <0>        -0.0296
     14 N3          3.3697   -1.9301    1.2468 N.4       1 <0>        -0.3988
     15 C11         2.0597   -2.5939    1.2803 C.3       1 <0>        -0.0181
     16 C12         1.2243   -2.1287    0.0829 C.3       1 <0>         0.0882
     17 C13         4.2629   -2.4758    2.2776 C.3       1 <0>         0.0281
     18 C14         3.6803   -2.2034    3.6798 C.3       1 <0>        -0.1446
     19 C15         4.9219   -1.8986    4.5543 C.3       1 <0>        -0.1246
     20 C16         5.8256   -1.0866    3.5935 C.3       1 <0>        -0.1273
     21 C17         5.6269   -1.7657    2.2227 C.3       1 <0>        -0.1404
     22 H1         -6.4545   -3.5111    0.0459 H         1 <0>         0.1272
     23 H2         -5.5039   -2.7191    2.1748 H         1 <0>         0.1266
     24 H3         -3.6540   -1.0940    2.1683 H         1 <0>         0.1224
     25 H4         -3.7123   -1.0448   -2.0959 H         1 <0>         0.1244
     26 H5         -5.5560   -2.6769   -2.0896 H         1 <0>         0.1275
     27 H6         -2.5118    0.6616   -0.8594 H         1 <0>         0.0805
     28 H7         -2.4901    0.6441    0.9367 H         1 <0>         0.0780
     29 H8         -1.1409   -1.7936   -0.0016 H         1 <0>         0.4128
     30 H9          3.0231   -0.0613   -0.7397 H         1 <0>         0.0941
     31 H10         2.2387    1.1484    0.3317 H         1 <0>         0.1379
     32 H11         4.2305   -0.0113    1.4145 H         1 <0>         0.1465
     33 H12         2.6942   -0.2416    2.3163 H         1 <0>         0.1323
     34 H13         2.1996   -3.6838    1.2300 H         1 <0>         0.1441
     35 H14         1.5405   -2.3336    2.2145 H         1 <0>         0.1308
     36 H15         0.2026   -2.5288    0.1602 H         1 <0>         0.1205
     37 H16         1.6845   -2.4769   -0.8536 H         1 <0>         0.0996
     38 H17         4.3415   -3.5502    2.0551 H         1 <0>         0.1364
     39 H18         2.9902   -1.3482    3.6303 H         1 <0>         0.0844
     40 H19         3.1369   -3.0933    4.0303 H         1 <0>         0.0935
     41 H20         4.6147   -1.3209    5.4385 H         1 <0>         0.0869
     42 H21         5.3846   -2.8432    4.8761 H         1 <0>         0.0835
     43 H22         5.5004   -0.0358    3.5846 H         1 <0>         0.0786
     44 H23         6.8695   -1.1444    3.9354 H         1 <0>         0.0894
     45 H24         6.4182   -2.5059    2.0333 H         1 <0>         0.1047
     46 H25         5.6202   -1.0209    1.4133 H         1 <0>         0.0875
     47 H26         3.8216   -2.1313    0.2643 H         1 <0>         0.4411
@<TRIPOS>BOND
     1    1    6 ar
     2    1    2 ar
     3    1   22 1
     4    2    3 ar
     5    2   23 1
     6    3    4 ar
     7    3   24 1
     8    4    5 ar
     9    4    7 1
    10    5    6 ar
    11    5   25 1
    12    6   26 1
    13    7    8 1
    14    7   27 1
    15    7   28 1
    16    8    9 am
    17    8   29 1
    18    9   10 2
    19    9   11 am
    20   11   16 1
    21   11   12 1
    22   12   13 1
    23   12   30 1
    24   12   31 1
    25   13   14 1
    26   13   32 1
    27   13   33 1
    28   14   15 1
    29   14   17 1
    30   14   47 1
    31   15   16 1
    32   15   34 1
    33   15   35 1
    34   16   36 1
    35   16   37 1
    36   17   21 1
    37   17   18 1
    38   17   38 1
    39   18   19 1
    40   18   39 1
    41   18   40 1
    42   19   20 1
    43   19   41 1
    44   19   42 1
    45   20   21 1
    46   20   43 1
    47   20   44 1
    48   21   45 1
    49   21   46 1
@<TRIPOS>MOLECULE
ZINC32779618
   46    48     0     0     0
SMALL
USER_CHARGES
N-benzyl-4-cyclopentyl-piperazine-1-carboxamide
@<TRIPOS>ATOM
      1 C1         -5.6433   -2.7981    0.0430 C.ar      1 <0>        -0.1114
      2 C2         -5.1096   -2.3535    1.2382 C.ar      1 <0>        -0.1220
      3 C3         -4.0710   -1.4414    1.2346 C.ar      1 <0>        -0.1006
      4 C4         -3.5663   -0.9734    0.0357 C.ar      1 <0>        -0.1085
      5 C5         -4.1037   -1.4137   -1.1594 C.ar      1 <0>        -0.0998
      6 C6         -5.1389   -2.3299   -1.1558 C.ar      1 <0>        -0.1216
      7 C7         -2.4342    0.0213    0.0317 C.3       1 <0>         0.1814
      8 N1         -1.1558   -0.6938    0.0093 N.am      1 <0>        -0.7537
      9 C8          0.0021   -0.0041    0.0020 C.2       1 <0>         0.7091
     10 O1         -0.0132    1.2087   -0.0830 O.2       1 <0>        -0.5915
     11 N2          1.1769   -0.6587    0.0890 N.am      1 <0>        -0.6309
     12 C9          2.4462    0.0780    0.1865 C.3       1 <0>         0.1323
     13 C10         3.2330   -0.4741    1.3859 C.3       1 <0>         0.0313
     14 N3          3.3697   -1.9301    1.2468 N.3       1 <0>        -0.5311
     15 C11         2.0597   -2.5939    1.2803 C.3       1 <0>         0.0396
     16 C12         1.2243   -2.1287    0.0829 C.3       1 <0>         0.1177
     17 C13         4.2629   -2.4758    2.2776 C.3       1 <0>         0.0775
     18 C14         3.6803   -2.2034    3.6798 C.3       1 <0>        -0.1608
     19 C15         4.9219   -1.8986    4.5543 C.3       1 <0>        -0.1218
     20 C16         5.8256   -1.0866    3.5935 C.3       1 <0>        -0.1218
     21 C17         5.6269   -1.7657    2.2227 C.3       1 <0>        -0.1184
     22 H1         -6.4545   -3.5111    0.0459 H         1 <0>         0.1237
     23 H2         -5.5039   -2.7191    2.1748 H         1 <0>         0.1242
     24 H3         -3.6540   -1.0940    2.1683 H         1 <0>         0.1229
     25 H4         -3.7123   -1.0448   -2.0959 H         1 <0>         0.1241
     26 H5         -5.5560   -2.6769   -2.0896 H         1 <0>         0.1246
     27 H6         -2.5118    0.6616   -0.8594 H         1 <0>         0.0745
     28 H7         -2.4901    0.6441    0.9367 H         1 <0>         0.0719
     29 H8         -1.1409   -1.7936   -0.0016 H         1 <0>         0.4130
     30 H9          3.0231   -0.0613   -0.7397 H         1 <0>         0.0726
     31 H10         2.2387    1.1484    0.3317 H         1 <0>         0.0968
     32 H11         4.2305   -0.0113    1.4145 H         1 <0>         0.0940
     33 H12         2.6942   -0.2416    2.3163 H         1 <0>         0.0422
     34 H13         2.1996   -3.6838    1.2300 H         1 <0>         0.0876
     35 H14         1.5405   -2.3336    2.2145 H         1 <0>         0.0413
     36 H15         0.2026   -2.5288    0.1602 H         1 <0>         0.0788
     37 H16         1.6845   -2.4769   -0.8536 H         1 <0>         0.0788
     38 H17         4.3415   -3.5502    2.0551 H         1 <0>         0.0867
     39 H18         2.9902   -1.3482    3.6303 H         1 <0>         0.0686
     40 H19         3.1369   -3.0933    4.0303 H         1 <0>         0.0633
     41 H20         4.6147   -1.3209    5.4385 H         1 <0>         0.0643
     42 H21         5.3846   -2.8432    4.8761 H         1 <0>         0.0682
     43 H22         5.5004   -0.0358    3.5846 H         1 <0>         0.0652
     44 H23         6.8695   -1.1444    3.9354 H         1 <0>         0.0681
     45 H24         6.4182   -2.5059    2.0333 H         1 <0>         0.0708
     46 H25         5.6202   -1.0209    1.4133 H         1 <0>         0.0788
@<TRIPOS>BOND
     1    1    6 ar
     2    1    2 ar
     3    1   22 1
     4    2    3 ar
     5    2   23 1
     6    3    4 ar
     7    3   24 1
     8    4    5 ar
     9    4    7 1
    10    5    6 ar
    11    5   25 1
    12    6   26 1
    13    7    8 1
    14    7   27 1
    15    7   28 1
    16    8    9 am
    17    8   29 1
    18    9   10 2
    19    9   11 am
    20   11   16 1
    21   11   12 1
    22   12   13 1
    23   12   30 1
    24   12   31 1
    25   13   14 1
    26   13   32 1
    27   13   33 1
    28   14   15 1
    29   14   17 1
    30   15   16 1
    31   15   34 1
    32   15   35 1
    33   16   36 1
    34   16   37 1
    35   17   21 1
    36   17   18 1
    37   17   38 1
    38   18   19 1
    39   18   39 1
    40   18   40 1
    41   19   20 1
    42   19   41 1
    43   19   42 1
    44   20   21 1
    45   20   43 1
    46   20   44 1
    47   21   45 1
    48   21   46 1
@<TRIPOS>MOLECULE
ZINC28825320
   52    54     0     0     0
SMALL
USER_CHARGES
4-[[3-[4-(1-piperidyl)but-1-ynyl]phenyl]methyl]morpholine
@<TRIPOS>ATOM
      1 C1          1.1717    1.7833    0.0004 C.ar      1 <0>        -0.1156
      2 C2          1.1546    3.1668    0.0071 C.ar      1 <0>        -0.0925
      3 C3         -0.0483    3.8495    0.0218 C.ar      1 <0>        -0.0758
      4 C4         -1.2399    3.1537    0.0299 C.ar      1 <0>        -0.0662
      5 C5         -1.2296    1.7586    0.0174 C.ar      1 <0>        -0.0152
      6 C6         -0.0126    1.0758    0.0080 C.ar      1 <0>        -0.0863
      7 C7         -2.4627    1.0304    0.0198 C.1       1 <0>        -0.0621
      8 C8         -3.4735    0.4334    0.0217 C.1       1 <0>        -0.2146
      9 C9         -4.7410   -0.3151    0.0242 C.3       1 <0>        -0.0142
     10 C10        -5.9137    0.6676    0.0349 C.3       1 <0>        -0.0041
     11 N1         -7.1785   -0.0794    0.0374 N.4       1 <0>        -0.3978
     12 C11        -7.3519   -0.8248   -1.2159 C.3       1 <0>        -0.0113
     13 C12        -8.6024   -1.7019   -1.1205 C.3       1 <0>        -0.1465
     14 C13        -9.8231   -0.8153   -0.8591 C.3       1 <0>        -0.1415
     15 C14        -9.5962   -0.0140    0.4258 C.3       1 <0>        -0.1468
     16 C15        -8.3170    0.8143    0.2856 C.3       1 <0>        -0.0039
     17 C16        -0.0575    5.3565    0.0294 C.3       1 <0>         0.0883
     18 N2         -0.0734    5.8531   -1.3530 N.3       1 <0>        -0.5323
     19 C17         1.1797    5.5211   -2.0465 C.3       1 <0>         0.0106
     20 C18         1.0968    6.0030   -3.4973 C.3       1 <0>         0.0619
     21 O1          0.8247    7.4070   -3.5132 O.3       1 <0>        -0.3823
     22 C19        -0.3888    7.7658   -2.8470 C.3       1 <0>         0.0617
     23 C20        -0.3210    7.3018   -1.3896 C.3       1 <0>         0.0150
     24 H1          2.1142    1.2561   -0.0110 H         1 <0>         0.1341
     25 H2          2.0845    3.7160    0.0005 H         1 <0>         0.1281
     26 H3         -2.1785    3.6879    0.0417 H         1 <0>         0.1269
     27 H4          0.0021   -0.0041    0.0020 H         1 <0>         0.1280
     28 H5         -4.7975   -0.9435   -0.8768 H         1 <0>         0.1071
     29 H6         -4.7886   -0.9526    0.9194 H         1 <0>         0.1086
     30 H7         -5.8572    1.2960    0.9359 H         1 <0>         0.1358
     31 H8         -5.8661    1.3051   -0.8603 H         1 <0>         0.1314
     32 H9         -7.4636   -0.1174   -2.0508 H         1 <0>         0.1269
     33 H10        -6.4711   -1.4605   -1.3893 H         1 <0>         0.1319
     34 H11        -8.7397   -2.2486   -2.0651 H         1 <0>         0.1121
     35 H12        -8.4848   -2.4196   -0.2952 H         1 <0>         0.0889
     36 H13        -9.9633   -0.1258   -1.7047 H         1 <0>         0.0811
     37 H14       -10.7174   -1.4461   -0.7482 H         1 <0>         0.0945
     38 H15       -10.4520    0.6558    0.5961 H         1 <0>         0.1124
     39 H16        -9.4964   -0.7048    1.2760 H         1 <0>         0.0889
     40 H17        -8.1436    1.3801    1.2128 H         1 <0>         0.1312
     41 H18        -8.4242    1.5141   -0.5563 H         1 <0>         0.1262
     42 H19        -0.9530    5.7150    0.5581 H         1 <0>         0.0888
     43 H20         0.8432    5.7261    0.5414 H         1 <0>         0.0521
     44 H21         2.0212    6.0172   -1.5408 H         1 <0>         0.0468
     45 H22         1.3315    4.4318   -2.0280 H         1 <0>         0.0897
     46 H23         2.0534    5.8072   -4.0039 H         1 <0>         0.1015
     47 H24         0.2900    5.4653   -4.0168 H         1 <0>         0.0589
     48 H25        -0.5164    8.8579   -2.8806 H         1 <0>         0.1026
     49 H26        -1.2396    7.2816   -3.3488 H         1 <0>         0.0594
     50 H27        -1.2742    7.5237   -0.8874 H         1 <0>         0.0887
     51 H28         0.4963    7.8266   -0.8733 H         1 <0>         0.0479
     52 H29        -7.1401   -0.8096    0.8592 H         1 <0>         0.4407
@<TRIPOS>BOND
     1    1    6 ar
     2    1    2 ar
     3    1   24 1
     4    2    3 ar
     5    2   25 1
     6    3    4 ar
     7    3   17 1
     8    4    5 ar
     9    4   26 1
    10    5    6 ar
    11    5    7 1
    12    6   27 1
    13    7    8 3
    14    8    9 1
    15    9   10 1
    16    9   28 1
    17    9   29 1
    18   10   11 1
    19   10   30 1
    20   10   31 1
    21   11   16 1
    22   11   12 1
    23   11   52 1
    24   12   13 1
    25   12   32 1
    26   12   33 1
    27   13   14 1
    28   13   34 1
    29   13   35 1
    30   14   15 1
    31   14   36 1
    32   14   37 1
    33   15   16 1
    34   15   38 1
    35   15   39 1
    36   16   40 1
    37   16   41 1
    38   17   18 1
    39   17   42 1
    40   17   43 1
    41   18   23 1
    42   18   19 1
    43   19   20 1
    44   19   44 1
    45   19   45 1
    46   20   21 1
    47   20   46 1
    48   20   47 1
    49   21   22 1
    50   22   23 1
    51   22   48 1
    52   22   49 1
    53   23   50 1
    54   23   51 1
@<TRIPOS>MOLECULE
ZINC29130875
   35    36     0     0     0
SMALL
USER_CHARGES
1-[2-(2-methoxyphenyl)ethyl]pyrrolidine
@<TRIPOS>ATOM
      1 C1          5.5655    2.1460   -3.4781 C.3       1 <0>         0.0201
      2 O1          5.1688    1.9904   -2.1141 O.3       1 <0>        -0.3236
      3 C2          6.0974    1.4957   -1.2540 C.ar      1 <0>         0.1357
      4 C3          7.3648    1.1670   -1.7134 C.ar      1 <0>        -0.2034
      5 C4          8.3070    0.6648   -0.8372 C.ar      1 <0>        -0.0645
      6 C5          7.9881    0.4894    0.4969 C.ar      1 <0>        -0.1507
      7 C6          6.7278    0.8210    0.9582 C.ar      1 <0>        -0.0717
      8 C7          5.7801    1.3188    0.0847 C.ar      1 <0>        -0.1398
      9 C8          4.4047    1.6752    0.5871 C.3       1 <0>        -0.0892
     10 C9          3.4568    0.4962    0.3583 C.3       1 <0>        -0.0035
     11 N1          2.1161    0.8436    0.8481 N.4       1 <0>        -0.4064
     12 C10         1.4937    1.8807   -0.0021 C.3       1 <0>        -0.0107
     13 C11        -0.0190    1.5472    0.0105 C.3       1 <0>        -0.1439
     14 C12         0.0021   -0.0041    0.0020 C.3       1 <0>        -0.1408
     15 C13         1.2367   -0.3397    0.8648 C.3       1 <0>        -0.0043
     16 H1          4.7252    2.5521   -4.0603 H         1 <0>         0.1067
     17 H2          5.8575    1.1682   -3.8888 H         1 <0>         0.0613
     18 H3          6.4191    2.8374   -3.5351 H         1 <0>         0.0629
     19 H4          7.6144    1.3042   -2.7552 H         1 <0>         0.1343
     20 H5          9.2937    0.4092   -1.1943 H         1 <0>         0.1326
     21 H6          8.7262    0.0965    1.1805 H         1 <0>         0.1318
     22 H7          6.4825    0.6869    2.0014 H         1 <0>         0.1321
     23 H8          4.4545    1.9023    1.6622 H         1 <0>         0.0933
     24 H9          4.0324    2.5559    0.0432 H         1 <0>         0.0960
     25 H10         3.4070    0.2691   -0.7169 H         1 <0>         0.1270
     26 H11         3.8291   -0.3845    0.9022 H         1 <0>         0.1292
     27 H12         1.6957    2.8743    0.4245 H         1 <0>         0.1312
     28 H13         1.9151    1.8247   -1.0166 H         1 <0>         0.1291
     29 H14        -0.4801    1.9698    0.9154 H         1 <0>         0.0977
     30 H15        -0.4972    1.9795   -0.8808 H         1 <0>         0.1143
     31 H16        -0.9336   -0.3859    0.4365 H         1 <0>         0.1131
     32 H17         0.0993   -0.3638   -1.0330 H         1 <0>         0.0985
     33 H18         1.7761   -1.2033    0.4485 H         1 <0>         0.1281
     34 H19         0.9368   -0.5591    1.9001 H         1 <0>         0.1321
     35 H20         2.2408    1.2256    1.8721 H         1 <0>         0.4450
@<TRIPOS>BOND
     1    1    2 1
     2    1   16 1
     3    1   17 1
     4    1   18 1
     5    2    3 1
     6    3    8 ar
     7    3    4 ar
     8    4    5 ar
     9    4   19 1
    10    5    6 ar
    11    5   20 1
    12    6    7 ar
    13    6   21 1
    14    7    8 ar
    15    7   22 1
    16    8    9 1
    17    9   10 1
    18    9   23 1
    19    9   24 1
    20   10   11 1
    21   10   25 1
    22   10   26 1
    23   11   15 1
    24   11   12 1
    25   11   35 1
    26   12   13 1
    27   12   27 1
    28   12   28 1
    29   13   14 1
    30   13   29 1
    31   13   30 1
    32   14   15 1
    33   14   31 1
    34   14   32 1
    35   15   33 1
    36   15   34 1
@<TRIPOS>MOLECULE
ZINC13108134
   45    47     0     0     0
SMALL
USER_CHARGES

@<TRIPOS>ATOM
      1 C1         -0.0199    1.3395    0.0024 C.2       1 <0>         0.0064
      2 C2          1.2554    1.7720   -0.0081 C.2       1 <0>         0.0672
      3 N1          2.0511    0.6584   -0.0267 N.pl3     1 <0>        -0.5106
      4 H1          3.0210    0.6441   -0.0376 H         1 <0>         0.4636
      5 C3          1.2338   -0.4166   -0.0268 C.cat     1 <0>         0.3070
      6 N2         -0.0033   -0.0016   -0.0094 N.pl3     1 <0>        -0.4716
      7 C4          1.7176    3.2064   -0.0013 C.3       1 <0>        -0.0300
      8 C5          1.9762    3.6655   -1.4382 C.3       1 <0>        -0.1277
      9 C6          2.4124    5.1340   -1.4300 C.3       1 <0>         0.1020
     10 N3          3.5670    5.2793   -0.5331 N.pl3     1 <0>        -0.5817
     11 C7          3.4561    4.7869    0.8468 C.3       1 <0>         0.0974
     12 C8          3.0081    3.3223    0.8131 C.3       1 <0>        -0.1362
     13 C9          4.7065    5.8530   -0.9679 C.2       1 <0>         0.5634
     14 S1          4.8665    6.2992   -2.6130 S.2       1 <0>        -0.6245
     15 N4          5.7199    6.0755   -0.1077 N.pl3     1 <0>        -0.6784
     16 C10         6.9143    6.7970   -0.5537 C.3       1 <0>         0.1390
     17 C11         6.6752    8.3033   -0.4326 C.3       1 <0>        -0.1253
     18 C12         7.9226    9.0568   -0.8984 C.3       1 <0>        -0.1161
     19 C13         9.1147    8.6579   -0.0263 C.3       1 <0>        -0.1249
     20 C14         9.3539    7.1516   -0.1474 C.3       1 <0>        -0.1154
     21 C15         8.1064    6.3981    0.3184 C.3       1 <0>        -0.1258
     22 H2         -0.9014    1.9632    0.0217 H         1 <0>         0.2255
     23 H3          1.5514   -1.4488   -0.0393 H         1 <0>         0.2669
     24 H4          0.9475    3.8339    0.4472 H         1 <0>         0.1243
     25 H5          2.7637    3.0545   -1.8792 H         1 <0>         0.0764
     26 H6          1.0627    3.5607   -2.0236 H         1 <0>         0.0957
     27 H7          2.6928    5.4375   -2.4387 H         1 <0>         0.1389
     28 H8          1.5921    5.7569   -1.0735 H         1 <0>         0.0852
     29 H9          4.4251    4.8614    1.3403 H         1 <0>         0.0880
     30 H10         2.7209    5.3815    1.3889 H         1 <0>         0.0928
     31 H11         2.8291    2.9732    1.8300 H         1 <0>         0.0932
     32 H12         3.7859    2.7145    0.3508 H         1 <0>         0.0723
     33 H13         5.6583    5.7578    0.8068 H         1 <0>         0.3933
     34 H14         7.1241    6.5448   -1.5932 H         1 <0>         0.1206
     35 H15         5.8259    8.5875   -1.0539 H         1 <0>         0.0770
     36 H16         6.4654    8.5554    0.6069 H         1 <0>         0.0591
     37 H17         8.1324    8.8047   -1.9379 H         1 <0>         0.0705
     38 H18         7.7522   10.1300   -0.8121 H         1 <0>         0.0692
     39 H19        10.0034    9.1947   -0.3581 H         1 <0>         0.0689
     40 H20         8.9050    8.9101    1.0132 H         1 <0>         0.0622
     41 H21         9.5637    6.8995   -1.1869 H         1 <0>         0.0699
     42 H22        10.2032    6.8674    0.4739 H         1 <0>         0.0708
     43 H23         7.8967    6.6502    1.3579 H         1 <0>         0.0660
     44 H24         8.2768    5.3249    0.2321 H         1 <0>         0.0672
     45 H25        -0.7872   -0.5729   -0.0051 H         1 <0>         0.4684
@<TRIPOS>BOND
     1    1    6 1
     2    1    2 2
     3    1   22 1
     4    2    3 1
     5    2    7 1
     6    3    4 1
     7    3    5 1
     8    5    6 2
     9    5   23 1
    10    6   45 1
    11    7   12 1
    12    7    8 1
    13    7   24 1
    14    8    9 1
    15    8   25 1
    16    8   26 1
    17    9   10 1
    18    9   27 1
    19    9   28 1
    20   10   11 1
    21   10   13 1
    22   11   12 1
    23   11   29 1
    24   11   30 1
    25   12   31 1
    26   12   32 1
    27   13   14 2
    28   13   15 1
    29   15   16 1
    30   15   33 1
    31   16   21 1
    32   16   17 1
    33   16   34 1
    34   17   18 1
    35   17   35 1
    36   17   36 1
    37   18   19 1
    38   18   37 1
    39   18   38 1
    40   19   20 1
    41   19   39 1
    42   19   40 1
    43   20   21 1
    44   20   41 1
    45   20   42 1
    46   21   43 1
    47   21   44 1
@<TRIPOS>MOLECULE
ZINC13108134
   45    47     0     0     0
SMALL
USER_CHARGES

@<TRIPOS>ATOM
      1 C1         -0.0111    1.3583    0.0120 C.2       1 <0>         0.0383
      2 C2          1.2720    1.7671    0.0013 C.2       1 <0>         0.0369
      3 N1          2.0544    0.6778   -0.0124 N.pl3     1 <0>        -0.4750
      4 C3          1.3050   -0.3905   -0.0106 C.cat     1 <0>         0.3075
      5 N2          0.0092   -0.0103    0.0045 N.pl3     1 <0>        -0.5077
      6 H1         -0.7629   -0.5975    0.0094 H         1 <0>         0.4689
      7 C4          1.7456    3.1978    0.0042 C.3       1 <0>        -0.0302
      8 C5          2.0381    3.6351    1.4413 C.3       1 <0>        -0.1285
      9 C6          2.4861    5.1000    1.4439 C.3       1 <0>         0.1035
     10 N3          3.6227    5.2486    0.5247 N.pl3     1 <0>        -0.5814
     11 C7          3.4787    4.7761   -0.8590 C.3       1 <0>         0.0976
     12 C8          3.0196    3.3147   -0.8357 C.3       1 <0>        -0.1373
     13 C9          4.7754    5.8081    0.9429 C.2       1 <0>         0.5626
     14 S1          4.8832    6.4711    2.5176 S.2       1 <0>        -0.6224
     15 N4          5.8431    5.8456    0.1213 N.pl3     1 <0>        -0.6791
     16 C10         7.1274    6.3518    0.6118 C.3       1 <0>         0.1383
     17 C11         7.8881    5.2222    1.3092 C.3       1 <0>        -0.1224
     18 C12         9.2293    5.7510    1.8215 C.3       1 <0>        -0.1165
     19 C13        10.0558    6.2713    0.6438 C.3       1 <0>        -0.1242
     20 C14         9.2951    7.4009   -0.0536 C.3       1 <0>        -0.1161
     21 C15         7.9539    6.8722   -0.5659 C.3       1 <0>        -0.1265
     22 H2         -0.8877    1.9890    0.0282 H         1 <0>         0.2279
     23 H3          1.6618   -1.4098   -0.0202 H         1 <0>         0.2669
     24 H4          0.9714    3.8375   -0.4194 H         1 <0>         0.1239
     25 H5          1.1364    3.5294    2.0444 H         1 <0>         0.0962
     26 H6          2.8297    3.0118    1.8573 H         1 <0>         0.0744
     27 H7          1.6635    5.7343    1.1133 H         1 <0>         0.0859
     28 H8          2.7901    5.3874    2.4504 H         1 <0>         0.1371
     29 H9          2.7371    5.3839   -1.3773 H         1 <0>         0.0936
     30 H10         4.4376    4.8497   -1.3719 H         1 <0>         0.0879
     31 H11         3.8019    2.6945   -0.3983 H         1 <0>         0.0712
     32 H12         2.8164    2.9810   -1.8533 H         1 <0>         0.0934
     33 H13         5.7612    5.5374   -0.7948 H         1 <0>         0.3930
     34 H14         6.9521    7.1625    1.3191 H         1 <0>         0.1214
     35 H15         7.2992    4.8515    2.1482 H         1 <0>         0.0749
     36 H16         8.0633    4.4115    0.6020 H         1 <0>         0.0564
     37 H17         9.0540    6.5617    2.5287 H         1 <0>         0.0714
     38 H18         9.7712    4.9462    2.3183 H         1 <0>         0.0679
     39 H19        11.0113    6.6480    1.0087 H         1 <0>         0.0690
     40 H20        10.2310    5.4606   -0.0635 H         1 <0>         0.0612
     41 H21         9.1199    8.2116    0.6536 H         1 <0>         0.0709
     42 H22         9.8839    7.7716   -0.8926 H         1 <0>         0.0714
     43 H23         8.1291    6.0615   -1.2731 H         1 <0>         0.0649
     44 H24         7.4119    7.6769   -1.0627 H         1 <0>         0.0700
     45 H25         3.0244    0.6833   -0.0225 H         1 <0>         0.4628
@<TRIPOS>BOND
     1    1    5 1
     2    1    2 2
     3    1   22 1
     4    2    3 1
     5    2    7 1
     6    3    4 2
     7    3   45 1
     8    4    5 1
     9    4   23 1
    10    5    6 1
    11    7   12 1
    12    7    8 1
    13    7   24 1
    14    8    9 1
    15    8   25 1
    16    8   26 1
    17    9   10 1
    18    9   27 1
    19    9   28 1
    20   10   11 1
    21   10   13 1
    22   11   12 1
    23   11   29 1
    24   11   30 1
    25   12   31 1
    26   12   32 1
    27   13   14 2
    28   13   15 1
    29   15   16 1
    30   15   33 1
    31   16   21 1
    32   16   17 1
    33   16   34 1
    34   17   18 1
    35   17   35 1
    36   17   36 1
    37   18   19 1
    38   18   37 1
    39   18   38 1
    40   19   20 1
    41   19   39 1
    42   19   40 1
    43   20   21 1
    44   20   41 1
    45   20   42 1
    46   21   43 1
    47   21   44 1
@<TRIPOS>MOLECULE
ZINC13108134
   44    46     0     0     0
SMALL
USER_CHARGES

@<TRIPOS>ATOM
      1 C1         -0.0228    1.3648    0.0142 C.2       1 <0>        -0.0496
      2 C2          1.2612    1.7707    0.0029 C.2       1 <0>         0.0065
      3 N1          2.0412    0.6796   -0.0102 N.2       1 <0>        -0.4899
      4 C3          1.2893   -0.3870   -0.0075 C.2       1 <0>         0.1866
      5 N2         -0.0055   -0.0039    0.0076 N.pl3     1 <0>        -0.5696
      6 H1         -0.7790   -0.5893    0.0131 H         1 <0>         0.4218
      7 C4          1.7382    3.2002    0.0047 C.3       1 <0>        -0.0028
      8 C5          0.7707    4.0615   -0.8104 C.3       1 <0>        -0.1243
      9 C6          1.2771    5.5071   -0.8353 C.3       1 <0>         0.1037
     10 N3          1.4729    5.9634    0.5475 N.pl3     1 <0>        -0.5686
     11 C7          2.3131    5.1586    1.4448 C.3       1 <0>         0.0956
     12 C8          1.7950    3.7169    1.4441 C.3       1 <0>        -0.1204
     13 C9          0.8931    7.0990    0.9844 C.2       1 <0>         0.5693
     14 S1          0.0257    8.0922   -0.1074 S.2       1 <0>        -0.6496
     15 N4          0.9963    7.4526    2.2809 N.pl3     1 <0>        -0.6848
     16 C10         0.2746    8.6259    2.7797 C.3       1 <0>         0.1416
     17 C11        -1.1535    8.2249    3.1547 C.3       1 <0>        -0.1252
     18 C12        -1.9071    9.4502    3.6757 C.3       1 <0>        -0.1150
     19 C13        -1.1916   10.0022    4.9103 C.3       1 <0>        -0.1234
     20 C14         0.2365   10.4032    4.5354 C.3       1 <0>        -0.1144
     21 C15         0.9902    9.1778    4.0144 C.3       1 <0>        -0.1272
     22 H2         -0.8979    1.9976    0.0302 H         1 <0>         0.1742
     23 H3          1.6439   -1.4071   -0.0165 H         1 <0>         0.2086
     24 H4          2.7323    3.2519   -0.4392 H         1 <0>         0.0883
     25 H5          0.7129    3.6787   -1.8294 H         1 <0>         0.0864
     26 H6         -0.2181    4.0302   -0.3529 H         1 <0>         0.0707
     27 H7          2.2242    5.5533   -1.3729 H         1 <0>         0.0798
     28 H8          0.5427    6.1431   -1.3295 H         1 <0>         0.1295
     29 H9          3.3446    5.1764    1.0931 H         1 <0>         0.0876
     30 H10         2.2621    5.5647    2.4550 H         1 <0>         0.0788
     31 H11         0.7966    3.6889    1.8804 H         1 <0>         0.0695
     32 H12         2.4663    3.0889    2.0298 H         1 <0>         0.0845
     33 H13         1.5484    6.9303    2.8836 H         1 <0>         0.3942
     34 H14         0.2454    9.3913    2.0043 H         1 <0>         0.1192
     35 H15        -1.6632    7.8317    2.2751 H         1 <0>         0.0770
     36 H16        -1.1242    7.4595    3.9302 H         1 <0>         0.0572
     37 H17        -1.9364   10.2156    2.9002 H         1 <0>         0.0698
     38 H18        -2.9246    9.1645    3.9428 H         1 <0>         0.0659
     39 H19        -1.7285   10.8751    5.2815 H         1 <0>         0.0658
     40 H20        -1.1624    9.2368    5.6858 H         1 <0>         0.0609
     41 H21         0.2072   11.1686    3.7599 H         1 <0>         0.0693
     42 H22         0.7463   10.7964    5.4149 H         1 <0>         0.0685
     43 H23         1.0194    8.4124    4.7898 H         1 <0>         0.0650
     44 H24         2.0076    9.4635    3.7473 H         1 <0>         0.0690
@<TRIPOS>BOND
     1    1    5 1
     2    1    2 2
     3    1   22 1
     4    2    3 1
     5    2    7 1
     6    3    4 2
     7    4    5 1
     8    4   23 1
     9    5    6 1
    10    7   12 1
    11    7    8 1
    12    7   24 1
    13    8    9 1
    14    8   25 1
    15    8   26 1
    16    9   10 1
    17    9   27 1
    18    9   28 1
    19   10   11 1
    20   10   13 1
    21   11   12 1
    22   11   29 1
    23   11   30 1
    24   12   31 1
    25   12   32 1
    26   13   14 2
    27   13   15 1
    28   15   16 1
    29   15   33 1
    30   16   21 1
    31   16   17 1
    32   16   34 1
    33   17   18 1
    34   17   35 1
    35   17   36 1
    36   18   19 1
    37   18   37 1
    38   18   38 1
    39   19   20 1
    40   19   39 1
    41   19   40 1
    42   20   21 1
    43   20   41 1
    44   20   42 1
    45   21   43 1
    46   21   44 1
@<TRIPOS>MOLECULE
ZINC13108134
   44    46     0     0     0
SMALL
USER_CHARGES

@<TRIPOS>ATOM
      1 C1         -0.0123    1.3344    0.0219 C.2       1 <0>        -0.0175
      2 C2          1.2619    1.7699    0.0072 C.2       1 <0>        -0.0222
      3 N1          2.0603    0.6581   -0.0070 N.pl3     1 <0>        -0.5669
      4 H1          3.0301    0.6461   -0.0194 H         1 <0>         0.4194
      5 C3          1.2456   -0.4188   -0.0005 C.2       1 <0>         0.1870
      6 N2          0.0075   -0.0067    0.0168 N.2       1 <0>        -0.4926
      7 C4          1.7207    3.2054    0.0062 C.3       1 <0>        -0.0100
      8 C5          1.7765    3.7238    1.4450 C.3       1 <0>        -0.1233
      9 C6          2.2762    5.1720    1.4427 C.3       1 <0>         0.1024
     10 N3          1.4225    5.9654    0.5481 N.pl3     1 <0>        -0.5710
     11 C7          1.2272    5.5055   -0.8337 C.3       1 <0>         0.0963
     12 C8          0.7393    4.0537   -0.8058 C.3       1 <0>        -0.1223
     13 C9          0.8294    7.0934    0.9867 C.2       1 <0>         0.5692
     14 S1          0.9576    7.5432    2.6335 S.2       1 <0>        -0.6448
     15 N4          0.1353    7.8672    0.1288 N.pl3     1 <0>        -0.6833
     16 C10        -0.4165    9.1473    0.5793 C.3       1 <0>         0.1411
     17 C11         0.6546   10.2336    0.4630 C.3       1 <0>        -0.1255
     18 C12         0.0782   11.5706    0.9334 C.3       1 <0>        -0.1151
     19 C13        -1.1227   11.9432    0.0618 C.3       1 <0>        -0.1235
     20 C14        -2.1939   10.8569    0.1780 C.3       1 <0>        -0.1145
     21 C15        -1.6175    9.5199   -0.2924 C.3       1 <0>        -0.1270
     22 H2         -0.8953    1.9560    0.0395 H         1 <0>         0.1658
     23 H3          1.5656   -1.4503   -0.0084 H         1 <0>         0.2090
     24 H4          2.7125    3.2693   -0.4414 H         1 <0>         0.0804
     25 H5          0.7802    3.6835    1.8852 H         1 <0>         0.0788
     26 H6          2.4579    3.1048    2.0286 H         1 <0>         0.0820
     27 H7          2.2241    5.5781    2.4528 H         1 <0>         0.1325
     28 H8          3.3062    5.2026    1.0871 H         1 <0>         0.0770
     29 H9          0.4829    6.1318   -1.3255 H         1 <0>         0.0822
     30 H10         2.1716    5.5633   -1.3749 H         1 <0>         0.0854
     31 H11         0.6824    3.6694   -1.8242 H         1 <0>         0.0876
     32 H12        -0.2473    4.0102   -0.3444 H         1 <0>         0.0791
     33 H13         0.0012    7.5765   -0.7868 H         1 <0>         0.3942
     34 H14        -0.7346    9.0604    1.6182 H         1 <0>         0.1194
     35 H15         1.5102    9.9682    1.0840 H         1 <0>         0.0770
     36 H16         0.9727   10.3205   -0.5759 H         1 <0>         0.0577
     37 H17        -0.2399   11.4837    1.9723 H         1 <0>         0.0698
     38 H18         0.8413   12.3445    0.8506 H         1 <0>         0.0664
     39 H19        -1.5333   12.8957    0.3969 H         1 <0>         0.0661
     40 H20        -0.8046   12.0301   -0.9771 H         1 <0>         0.0612
     41 H21        -2.5120   10.7700    1.2170 H         1 <0>         0.0693
     42 H22        -3.0495   11.1223   -0.4429 H         1 <0>         0.0688
     43 H23        -1.2994    9.6068   -1.3313 H         1 <0>         0.0653
     44 H24        -2.3806    8.7460   -0.2096 H         1 <0>         0.0691
@<TRIPOS>BOND
     1    1    6 1
     2    1    2 2
     3    1   22 1
     4    2    3 1
     5    2    7 1
     6    3    4 1
     7    3    5 1
     8    5    6 2
     9    5   23 1
    10    7   12 1
    11    7    8 1
    12    7   24 1
    13    8    9 1
    14    8   25 1
    15    8   26 1
    16    9   10 1
    17    9   27 1
    18    9   28 1
    19   10   11 1
    20   10   13 1
    21   11   12 1
    22   11   29 1
    23   11   30 1
    24   12   31 1
    25   12   32 1
    26   13   14 2
    27   13   15 1
    28   15   16 1
    29   15   33 1
    30   16   21 1
    31   16   17 1
    32   16   34 1
    33   17   18 1
    34   17   35 1
    35   17   36 1
    36   18   19 1
    37   18   37 1
    38   18   38 1
    39   19   20 1
    40   19   39 1
    41   19   40 1
    42   20   21 1
    43   20   41 1
    44   20   42 1
    45   21   43 1
    46   21   44 1
@<TRIPOS>MOLECULE
ZINC22112721
   21    21     0     0     0
SMALL
USER_CHARGES

@<TRIPOS>ATOM
      1 C1         -0.0187    1.5258    0.0104 C.3       1 <0>        -0.1842
      2 C2          0.0021   -0.0041    0.0020 C.3       1 <0>         0.0346
      3 H1          0.5123   -0.3556   -0.8948 H         1 <0>         0.1477
      4 C3         -1.4333   -0.5336    0.0129 C.3       1 <0>        -0.0503
      5 C4         -1.4159   -2.0348   -0.1192 C.2       1 <0>        -0.0556
      6 C5         -2.0004   -2.9099    0.7211 C.2       1 <0>        -0.0335
      7 N1         -1.7413   -4.1619    0.2321 N.pl3     1 <0>        -0.5621
      8 H2         -2.0310   -5.0025    0.6197 H         1 <0>         0.4316
      9 C6         -1.0070   -4.0081   -0.8908 C.2       1 <0>         0.2070
     10 N2         -0.8206   -2.7331   -1.0974 N.2       1 <0>        -0.4911
     11 N3          0.7126   -0.4907    1.1921 N.4       1 <0>        -0.6344
     12 H3          1.0039    1.9031    0.0027 H         1 <0>         0.0834
     13 H4         -0.5459    1.8868   -0.8726 H         1 <0>         0.1076
     14 H5         -0.5289    1.8773    0.9072 H         1 <0>         0.0819
     15 H6         -1.9156   -0.2570    0.9504 H         1 <0>         0.0992
     16 H7         -1.9862   -0.1019   -0.8214 H         1 <0>         0.1207
     17 H8         -2.5648   -2.6701    1.6101 H         1 <0>         0.1825
     18 H9         -0.6386   -4.8076   -1.5164 H         1 <0>         0.2170
     19 H10         0.2403   -0.1653    2.0223 H         1 <0>         0.4299
     20 H11         0.7262   -1.4996    1.1866 H         1 <0>         0.4331
     21 H12         1.6592   -0.1415    1.1850 H         1 <0>         0.4350
@<TRIPOS>BOND
     1    1    2 1
     2    1   12 1
     3    1   13 1
     4    1   14 1
     5    2    3 1
     6    2    4 1
     7    2   11 1
     8    4    5 1
     9    4   15 1
    10    4   16 1
    11    5   10 1
    12    5    6 2
    13    6    7 1
    14    6   17 1
    15    7    8 1
    16    7    9 1
    17    9   10 2
    18    9   18 1
    19   11   19 1
    20   11   20 1
    21   11   21 1
@<TRIPOS>MOLECULE
ZINC02559937
   21    21     0     0     0
SMALL
USER_CHARGES

@<TRIPOS>ATOM
      1 C1         -0.0178    1.4648    0.0101 C.3       1 <0>        -0.0463
      2 N1          0.0021   -0.0041    0.0020 N.4       1 <0>        -0.5100
      3 C2          0.6897   -0.4778   -1.2066 C.3       1 <0>        -0.0042
      4 C3          0.7104   -2.0077   -1.2150 C.3       1 <0>        -0.0508
      5 C4          1.4158   -2.4937   -2.4549 C.2       1 <0>        -0.0285
      6 C5          2.4655   -3.3365   -2.4892 C.2       1 <0>        -0.0274
      7 N2          2.7899   -3.5117   -3.8074 N.pl3     1 <0>        -0.5631
      8 H1          3.5062   -4.0657   -4.1552 H         1 <0>         0.4303
      9 C6          1.9265   -2.7692   -4.5333 C.2       1 <0>         0.2054
     10 N3          1.1044   -2.1671   -3.7180 N.2       1 <0>        -0.4942
     11 H2          1.0047    1.8421    0.0024 H         1 <0>         0.1224
     12 H3         -0.5450    1.8259   -0.8730 H         1 <0>         0.1238
     13 H4         -0.5280    1.8163    0.9069 H         1 <0>         0.1261
     14 H5          0.4901   -0.3383    0.8195 H         1 <0>         0.4288
     15 H6          0.1625   -0.1167   -2.0897 H         1 <0>         0.1383
     16 H7          1.7123   -0.1005   -1.2143 H         1 <0>         0.1297
     17 H8          1.2376   -2.3687   -0.3319 H         1 <0>         0.0965
     18 H9         -0.3122   -2.3849   -1.2073 H         1 <0>         0.0961
     19 H10         2.9572   -3.7874   -1.6398 H         1 <0>         0.1810
     20 H11         1.9155   -2.6901   -5.6103 H         1 <0>         0.2155
     21 H12        -0.9445   -0.3533    0.0092 H         1 <0>         0.4307
@<TRIPOS>BOND
     1    1    2 1
     2    1   11 1
     3    1   12 1
     4    1   13 1
     5    2    3 1
     6    2   14 1
     7    2   21 1
     8    3    4 1
     9    3   15 1
    10    3   16 1
    11    4    5 1
    12    4   17 1
    13    4   18 1
    14    5   10 1
    15    5    6 2
    16    6    7 1
    17    6   19 1
    18    7    8 1
    19    7    9 1
    20    9   10 2
    21    9   20 1
@<TRIPOS>MOLECULE
ZINC13209604
   21    21     0     0     0
SMALL
USER_CHARGES

@<TRIPOS>ATOM
      1 C1         -0.0184    1.5028    0.0103 C.3       1 <0>        -0.0894
      2 C2          0.0021   -0.0041    0.0020 C.2       1 <0>        -0.0009
      3 C3          0.0081   -0.8009   -1.0836 C.2       1 <0>        -0.0270
      4 N1          0.0272   -2.0745   -0.6635 N.2       1 <0>        -0.4861
      5 C4          0.0333   -2.0972    0.6413 C.2       1 <0>         0.2050
      6 N2          0.0241   -0.8258    1.0965 N.pl3     1 <0>        -0.5619
      7 H1          0.0299   -0.5470    2.0255 H         1 <0>         0.4283
      8 C5         -0.0046   -0.3419   -2.5190 C.3       1 <0>        -0.0544
      9 C6          1.4335   -0.1671   -3.0112 C.3       1 <0>        -0.0045
     10 N3          1.4212    0.2803   -4.4104 N.4       1 <0>        -0.6372
     11 H2          1.0042    1.8801    0.0026 H         1 <0>         0.0782
     12 H3         -0.5455    1.8639   -0.8728 H         1 <0>         0.0832
     13 H4         -0.5286    1.8543    0.9071 H         1 <0>         0.0754
     14 H5          0.0476   -2.9856    1.2553 H         1 <0>         0.2166
     15 H6         -0.5111   -1.0859   -3.1339 H         1 <0>         0.1005
     16 H7         -0.5317    0.6093   -2.5917 H         1 <0>         0.0962
     17 H8          1.9400    0.5769   -2.3963 H         1 <0>         0.1320
     18 H9          1.9606   -1.1183   -2.9385 H         1 <0>         0.1363
     19 H10         0.9523   -0.4084   -4.9796 H         1 <0>         0.4366
     20 H11         0.9332    1.1609   -4.4777 H         1 <0>         0.4344
     21 H12         2.3696    0.3956   -4.7350 H         1 <0>         0.4389
@<TRIPOS>BOND
     1    1    2 1
     2    1   11 1
     3    1   12 1
     4    1   13 1
     5    2    6 1
     6    2    3 2
     7    3    4 1
     8    3    8 1
     9    4    5 2
    10    5    6 1
    11    5   14 1
    12    6    7 1
    13    8    9 1
    14    8   15 1
    15    8   16 1
    16    9   10 1
    17    9   17 1
    18    9   18 1
    19   10   19 1
    20   10   20 1
    21   10   21 1
@<TRIPOS>MOLECULE
ZINC13209604
   22    22     0     0     0
SMALL
USER_CHARGES

@<TRIPOS>ATOM
      1 C1         -0.0184    1.5028    0.0103 C.3       1 <0>        -0.1139
      2 C2          0.0021   -0.0041    0.0020 C.2       1 <0>         0.0951
      3 C3          0.0081   -0.8009   -1.0836 C.2       1 <0>        -0.0074
      4 N1          0.0272   -2.0745   -0.6635 N.pl3     1 <0>        -0.4730
      5 C4          0.0333   -2.0972    0.6413 C.cat     1 <0>         0.3351
      6 N2          0.0241   -0.8258    1.0965 N.pl3     1 <0>        -0.5099
      7 H1          0.0299   -0.5470    2.0255 H         1 <0>         0.4730
      8 C5         -0.0046   -0.3419   -2.5190 C.3       1 <0>        -0.0839
      9 C6          1.4265   -0.0474   -2.9729 C.3       1 <0>        -0.0089
     10 N3          1.4142    0.4000   -4.3721 N.4       1 <0>        -0.6373
     11 H2          1.0042    1.8801    0.0026 H         1 <0>         0.1092
     12 H3         -0.5455    1.8639   -0.8728 H         1 <0>         0.1082
     13 H4         -0.5286    1.8543    0.9071 H         1 <0>         0.1050
     14 H5          0.0476   -2.9856    1.2553 H         1 <0>         0.2746
     15 H6         -0.4311   -1.1243   -3.1468 H         1 <0>         0.1201
     16 H7         -0.6068    0.5624   -2.6060 H         1 <0>         0.1322
     17 H8          1.8531    0.7349   -2.3451 H         1 <0>         0.1434
     18 H9          2.0287   -0.9518   -2.8859 H         1 <0>         0.1385
     19 H10         1.0194   -0.3242   -4.9532 H         1 <0>         0.4408
     20 H11         0.8568    1.2371   -4.4526 H         1 <0>         0.4418
     21 H12         2.3580    0.5942   -4.6714 H         1 <0>         0.4497
     22 H13         0.0350   -2.8555   -1.2387 H         1 <0>         0.4676
@<TRIPOS>BOND
     1    1    2 1
     2    1   11 1
     3    1   12 1
     4    1   13 1
     5    2    6 1
     6    2    3 2
     7    3    4 1
     8    3    8 1
     9    4    5 2
    10    4   22 1
    11    5    6 1
    12    5   14 1
    13    6    7 1
    14    8    9 1
    15    8   15 1
    16    8   16 1
    17    9   10 1
    18    9   17 1
    19    9   18 1
    20   10   19 1
    21   10   20 1
    22   10   21 1
@<TRIPOS>MOLECULE
ZINC13472648
   42    44     0     0     0
SMALL
USER_CHARGES
N-[2-(1-piperidyl)ethyl]quinolin-4-amine
@<TRIPOS>ATOM
      1 C1          0.0725   -2.7802   -0.0154 C.ar      1 <0>        -0.0997
      2 C2         -1.1453   -2.1045    0.0004 C.ar      1 <0>        -0.0251
      3 C3         -1.1930   -0.7441    0.0090 C.ar      1 <0>        -0.1446
      4 C4          0.0021   -0.0041    0.0020 C.ar      1 <0>         0.1723
      5 C5          1.2377   -0.6941   -0.0135 C.ar      1 <0>        -0.1254
      6 C6          1.2506   -2.0957   -0.0220 C.ar      1 <0>        -0.0674
      7 C7          2.4393    0.0538   -0.0205 C.ar      1 <0>         0.3604
      8 C8          2.3424    1.4366   -0.0117 C.ar      1 <0>        -0.2640
      9 C9          1.0918    2.0381    0.0026 C.ar      1 <0>         0.2467
     10 N1          3.6741   -0.5766   -0.0351 N.pl3     1 <0>        -0.6890
     11 C10         4.9033    0.2203   -0.0421 C.3       1 <0>         0.0768
     12 C11         6.1158   -0.7127   -0.0582 C.3       1 <0>        -0.0198
     13 C12         7.4729    0.8511   -1.3126 C.3       1 <0>        -0.0087
     14 C13         8.6870    1.7786   -1.2251 C.3       1 <0>        -0.1475
     15 C14         9.9471    0.9411   -0.9901 C.3       1 <0>        -0.1421
     16 C15         9.7721    0.1179    0.2890 C.3       1 <0>        -0.1485
     17 C16         8.5266   -0.7615    0.1576 C.3       1 <0>        -0.0010
     18 H1          0.0831   -3.8601   -0.0220 H         1 <0>         0.1552
     19 H2         -2.0662   -2.6687    0.0058 H         1 <0>         0.1588
     20 H3         -2.1455   -0.2352    0.0211 H         1 <0>         0.1599
     21 H4          2.1890   -2.6301   -0.0342 H         1 <0>         0.1446
     22 H5          3.2361    2.0431   -0.0163 H         1 <0>         0.1764
     23 H6          1.0281    3.1162    0.0086 H         1 <0>         0.1987
     24 H7          3.7240   -1.5453   -0.0408 H         1 <0>         0.4249
     25 H8          4.9206    0.8538   -0.9289 H         1 <0>         0.1058
     26 H9          4.9369    0.8443    0.8510 H         1 <0>         0.1062
     27 H10         6.0986   -1.3463    0.8286 H         1 <0>         0.1424
     28 H11         6.0823   -1.3367   -0.9513 H         1 <0>         0.1439
     29 H12         7.6006    0.1636   -2.1488 H         1 <0>         0.1350
     30 H13         6.5720    1.4454   -1.4656 H         1 <0>         0.1260
     31 H14         8.5536    2.4754   -0.3976 H         1 <0>         0.0896
     32 H15         8.7884    2.3352   -2.1568 H         1 <0>         0.1162
     33 H16        10.8083    1.6007   -0.8839 H         1 <0>         0.0988
     34 H17        10.1034    0.2713   -1.8358 H         1 <0>         0.0840
     35 H18         9.6559    0.7886    1.1404 H         1 <0>         0.0898
     36 H19        10.6486   -0.5126    0.4388 H         1 <0>         0.1176
     37 H20         8.3911   -1.3384    1.0724 H         1 <0>         0.1317
     38 H21         8.6495   -1.4413   -0.6856 H         1 <0>         0.1342
     39 N2         -0.0859    1.3717    0.0103 N.ar      1 <0>        -0.5280
     40 H22        -0.9889    1.8604    0.0216 H         1 <0>         0.4756
     41 N3          7.3460    0.1055   -0.0422 N.4       1 <0>        -0.3904
     42 H23         7.2903    0.7761    0.7334 H         1 <0>         0.4299
@<TRIPOS>BOND
     1    1    6 ar
     2    1    2 ar
     3    1   18 1
     4    2    3 ar
     5    2   19 1
     6    3    4 ar
     7    3   20 1
     8    4    5 ar
     9    4   39 ar
    10    5    6 ar
    11    5    7 ar
    12    6   21 1
    13    7    8 ar
    14    7   10 1
    15    8    9 ar
    16    8   22 1
    17    9   23 1
    18    9   39 ar
    19   10   11 1
    20   10   24 1
    21   11   12 1
    22   11   25 1
    23   11   26 1
    24   12   27 1
    25   12   28 1
    26   12   41 1
    27   13   14 1
    28   13   29 1
    29   13   30 1
    30   13   41 1
    31   14   15 1
    32   14   31 1
    33   14   32 1
    34   15   16 1
    35   15   33 1
    36   15   34 1
    37   16   17 1
    38   16   35 1
    39   16   36 1
    40   17   37 1
    41   17   38 1
    42   17   41 1
    43   39   40 1
    44   41   42 1
@<TRIPOS>MOLECULE
ZINC14979641
   26    26     0     0     0
SMALL
USER_CHARGES
3-(1H-imidazol-4-yl)propylsulfanylformamidine
@<TRIPOS>ATOM
      1 C1          0.0021   -0.0041    0.0020 C.2       1 <0>         0.0296
      2 C2          1.2963   -0.3761   -0.0123 C.2       1 <0>         0.0069
      3 N1          2.0475    0.7351   -0.0135 N.pl3     1 <0>        -0.4994
      4 C3          1.2679    1.7816   -0.0005 C.cat     1 <0>         0.3318
      5 N2         -0.0165    1.3646    0.0095 N.pl3     1 <0>        -0.5288
      6 H1         -0.9765    1.9015    0.0215 H         1 <0>         0.5117
      7 C4          1.8104   -1.7926   -0.0249 C.3       1 <0>        -0.0564
      8 C5          2.7508   -1.9833   -1.2166 C.3       1 <0>        -0.1129
      9 C6          3.2728   -3.4215   -1.2293 C.3       1 <0>        -0.1627
     10 S1          4.3853   -3.6471   -2.6390 S.3       1 <0>         0.0699
     11 C7          4.8242   -5.3388   -2.4148 C.cat     1 <0>         0.4834
     12 N3          4.3313   -6.0131   -1.4131 N.pl3     1 <0>        -0.7874
     13 N4          5.6868   -5.9483   -3.2963 N.pl3     1 <0>        -0.7970
     14 H2         -0.8562   -0.6596    0.0072 H         1 <0>         0.2222
     15 H3          1.5957    2.8106    0.0019 H         1 <0>         0.2631
     16 H4          2.3564   -1.9928    0.9088 H         1 <0>         0.1081
     17 H5          0.9635   -2.4893   -0.1110 H         1 <0>         0.1184
     18 H6          2.2047   -1.7831   -2.1503 H         1 <0>         0.0981
     19 H7          3.5977   -1.2866   -1.1306 H         1 <0>         0.0856
     20 H8          3.8188   -3.6216   -0.2956 H         1 <0>         0.1206
     21 H9          2.4259   -4.1182   -1.3153 H         1 <0>         0.1222
     22 H10         4.6053   -7.0692   -1.2731 H         1 <0>         0.4662
     23 H11         5.9608   -7.0044   -3.1563 H         1 <0>         0.4623
     24 H12         6.1025   -5.3795   -4.1411 H         1 <0>         0.4775
     25 H13         3.6416   -5.5257   -0.7083 H         1 <0>         0.4663
     26 H14         3.1447    0.6572   -0.0243 H         1 <0>         0.5007
@<TRIPOS>BOND
     1    1    5 1
     2    1    2 2
     3    1   14 1
     4    2    3 1
     5    2    7 1
     6    3    4 2
     7    3   26 1
     8    4    5 1
     9    4   15 1
    10    5    6 1
    11    7    8 1
    12    7   16 1
    13    7   17 1
    14    8    9 1
    15    8   18 1
    16    8   19 1
    17    9   10 1
    18    9   20 1
    19    9   21 1
    20   10   11 1
    21   11   12 2
    22   11   13 1
    23   12   22 1
    24   12   25 1
    25   13   23 1
    26   13   24 1
@<TRIPOS>MOLECULE
ZINC14979641
   24    24     0     0     0
SMALL
USER_CHARGES
3-(1H-imidazol-4-yl)propylsulfanylformamidine
@<TRIPOS>ATOM
      1 C1          0.0021   -0.0041    0.0020 C.2       1 <0>        -0.0192
      2 C2          1.2963   -0.3761   -0.0123 C.2       1 <0>        -0.0440
      3 N1          2.0475    0.7351   -0.0135 N.pl3     1 <0>        -0.5253
      4 C3          1.2679    1.7816   -0.0005 C.2       1 <0>         0.1615
      5 N2         -0.0165    1.3646    0.0095 N.2       1 <0>        -0.4974
      6 H1          3.0472    0.7580   -0.0229 H         1 <0>         0.4237
      7 C4          1.8104   -1.7926   -0.0249 C.3       1 <0>        -0.0385
      8 C5          2.7508   -1.9833   -1.2166 C.3       1 <0>        -0.1082
      9 C6          3.2728   -3.4215   -1.2293 C.3       1 <0>        -0.0867
     10 S1          4.3853   -3.6471   -2.6390 S.3       1 <0>        -0.0571
     11 C7          4.8242   -5.3388   -2.4148 C.2       1 <0>         0.4030
     12 N3          4.3313   -6.0131   -1.4131 N.2       1 <0>        -0.7690
     13 N4          5.6868   -5.9483   -3.2963 N.pl3     1 <0>        -0.8729
     14 H2         -0.8562   -0.6596    0.0072 H         1 <0>         0.1724
     15 H3          1.5957    2.8106    0.0019 H         1 <0>         0.2068
     16 H4          2.3515   -1.9910    0.9003 H         1 <0>         0.0784
     17 H5          0.9712   -2.4830   -0.1101 H         1 <0>         0.0940
     18 H6          2.2098   -1.7850   -2.1418 H         1 <0>         0.0784
     19 H7          3.5900   -1.2930   -1.1313 H         1 <0>         0.0669
     20 H8          3.8139   -3.6198   -0.3041 H         1 <0>         0.0980
     21 H9          2.4336   -4.1119   -1.3145 H         1 <0>         0.1004
     22 H10         4.5729   -6.9444   -1.2897 H         1 <0>         0.3356
     23 H11         6.0534   -5.4467   -4.0412 H         1 <0>         0.3993
     24 H12         5.9284   -6.8795   -3.1728 H         1 <0>         0.3999
@<TRIPOS>BOND
     1    1    5 1
     2    1    2 2
     3    1   14 1
     4    2    3 1
     5    2    7 1
     6    3    4 1
     7    3    6 1
     8    4   15 1
     9    4    5 2
    10    7    8 1
    11    7   16 1
    12    7   17 1
    13    8    9 1
    14    8   18 1
    15    8   19 1
    16    9   10 1
    17    9   20 1
    18    9   21 1
    19   10   11 1
    20   11   12 2
    21   11   13 1
    22   12   22 1
    23   13   23 1
    24   13   24 1
@<TRIPOS>MOLECULE
ZINC14979641
   25    25     0     0     0
SMALL
USER_CHARGES
3-(1H-imidazol-4-yl)propylsulfanylformamidine
@<TRIPOS>ATOM
      1 C1          0.0021   -0.0041    0.0020 C.2       1 <0>         0.0320
      2 C2          1.2963   -0.3761   -0.0123 C.2       1 <0>         0.0366
      3 C3          1.2679    1.7816   -0.0005 C.cat     1 <0>         0.3042
      4 N1         -0.0165    1.3646    0.0095 N.pl3     1 <0>        -0.5151
      5 H1         -0.8294    1.9469    0.0204 H         1 <0>         0.4755
      6 C4          1.8104   -1.7926   -0.0249 C.3       1 <0>        -0.0589
      7 C5          2.7508   -1.9833   -1.2166 C.3       1 <0>        -0.1123
      8 C6          3.2728   -3.4215   -1.2293 C.3       1 <0>        -0.0952
      9 S1          4.3853   -3.6471   -2.6390 S.3       1 <0>        -0.0502
     10 C7          4.8242   -5.3388   -2.4148 C.2       1 <0>         0.4039
     11 N2          4.3313   -6.0131   -1.4131 N.2       1 <0>        -0.7703
     12 N3          5.6868   -5.9483   -3.2963 N.pl3     1 <0>        -0.8702
     13 H2         -0.8562   -0.6596    0.0072 H         1 <0>         0.2254
     14 H3          1.5957    2.8106    0.0019 H         1 <0>         0.2644
     15 H4          2.3515   -1.9910    0.9003 H         1 <0>         0.1069
     16 H5          0.9712   -2.4830   -0.1101 H         1 <0>         0.1169
     17 H6          2.2098   -1.7850   -2.1418 H         1 <0>         0.0845
     18 H7          3.5900   -1.2930   -1.1313 H         1 <0>         0.0730
     19 H8          3.8139   -3.6198   -0.3041 H         1 <0>         0.1027
     20 H9          2.4336   -4.1119   -1.3145 H         1 <0>         0.1044
     21 H10         4.5729   -6.9444   -1.2897 H         1 <0>         0.3406
     22 H11         6.0534   -5.4467   -4.0412 H         1 <0>         0.4008
     23 H12         5.9284   -6.8795   -3.1728 H         1 <0>         0.4036
     24 N4          2.0461    0.7351   -0.0135 N.pl3     1 <0>        -0.4835
     25 H13         3.0726    0.7586   -0.0231 H         1 <0>         0.4802
@<TRIPOS>BOND
     1    1    4 1
     2    1    2 2
     3    1   13 1
     4    2    6 1
     5    2   24 1
     6    3    4 1
     7    3   14 1
     8    3   24 2
     9    4    5 1
    10    6    7 1
    11    6   15 1
    12    6   16 1
    13    7    8 1
    14    7   17 1
    15    7   18 1
    16    8    9 1
    17    8   19 1
    18    8   20 1
    19    9   10 1
    20   10   11 2
    21   10   12 1
    22   11   21 1
    23   12   22 1
    24   12   23 1
    25   24   25 1
@<TRIPOS>MOLECULE
ZINC14979641
   25    25     0     0     0
SMALL
USER_CHARGES
3-(1H-imidazol-4-yl)propylsulfanylformamidine
@<TRIPOS>ATOM
      1 C1          0.0021   -0.0041    0.0020 C.2       1 <0>        -0.0553
      2 C2          1.2963   -0.3761   -0.0123 C.2       1 <0>        -0.0179
      3 N1          2.0475    0.7351   -0.0135 N.2       1 <0>        -0.4946
      4 C3          1.2679    1.7816   -0.0005 C.2       1 <0>         0.2037
      5 N2         -0.0165    1.3646    0.0095 N.pl3     1 <0>        -0.5792
      6 H1         -0.9765    1.9015    0.0215 H         1 <0>         0.4538
      7 C4          1.8104   -1.7926   -0.0249 C.3       1 <0>        -0.0230
      8 C5          2.7508   -1.9833   -1.2166 C.3       1 <0>        -0.1009
      9 C6          3.2728   -3.4215   -1.2293 C.3       1 <0>        -0.1536
     10 S1          4.3853   -3.6471   -2.6390 S.3       1 <0>         0.0694
     11 C7          4.8242   -5.3388   -2.4148 C.cat     1 <0>         0.4795
     12 N3          4.3313   -6.0131   -1.4131 N.pl3     1 <0>        -0.7889
     13 N4          5.6868   -5.9483   -3.2963 N.pl3     1 <0>        -0.8046
     14 H2         -0.8562   -0.6596    0.0072 H         1 <0>         0.1750
     15 H3          1.5957    2.8106    0.0019 H         1 <0>         0.2086
     16 H4          2.3564   -1.9928    0.9088 H         1 <0>         0.0802
     17 H5          0.9635   -2.4893   -0.1110 H         1 <0>         0.0803
     18 H6          2.2047   -1.7831   -2.1503 H         1 <0>         0.0838
     19 H7          3.5977   -1.2866   -1.1306 H         1 <0>         0.0945
     20 H8          3.8188   -3.6216   -0.2956 H         1 <0>         0.1157
     21 H9          2.4259   -4.1182   -1.3153 H         1 <0>         0.1144
     22 H10         4.6053   -7.0692   -1.2731 H         1 <0>         0.4595
     23 H11         5.9608   -7.0044   -3.1563 H         1 <0>         0.4555
     24 H12         6.1025   -5.3795   -4.1411 H         1 <0>         0.4747
     25 H13         3.6416   -5.5257   -0.7083 H         1 <0>         0.4693
@<TRIPOS>BOND
     1    1    5 1
     2    1    2 2
     3    1   14 1
     4    2    3 1
     5    2    7 1
     6    3    4 2
     7    4    5 1
     8    4   15 1
     9    5    6 1
    10    7    8 1
    11    7   16 1
    12    7   17 1
    13    8    9 1
    14    8   18 1
    15    8   19 1
    16    9   10 1
    17    9   20 1
    18    9   21 1
    19   10   11 1
    20   11   12 2
    21   11   13 1
    22   12   22 1
    23   12   25 1
    24   13   23 1
    25   13   24 1
@<TRIPOS>MOLECULE
ZINC13530245
   23    24     0     0     0
SMALL
USER_CHARGES
[(1R,2S)-2-(1H-imidazol-4-yl)cyclopropyl]methanamine
@<TRIPOS>ATOM
      1 C1          2.0751    0.6534   -0.0142 C.2       1 <0>         0.0160
      2 C2          1.2741   -0.4291   -0.0124 C.2       1 <0>         0.0007
      3 N1          0.0021   -0.0041    0.0020 N.pl3     1 <0>        -0.5005
      4 C3         -0.0156    1.3008    0.0092 C.cat     1 <0>         0.3368
      5 N2          1.2575    1.7511   -0.0005 N.pl3     1 <0>        -0.5276
      6 H1          1.6929    2.7612    0.0008 H         1 <0>         0.5130
      7 C4          1.7275   -1.8663   -0.0249 C.3       1 <0>        -0.1033
      8 H2          1.0692   -2.1151   -0.8703 H         1 <0>         0.1554
      9 C5          3.1854   -2.1503    0.3422 C.3       1 <0>        -0.1172
     10 C6          2.0659   -2.5120    1.3202 C.3       1 <0>        -0.1188
     11 H3          1.7556   -3.4284    1.8436 H         1 <0>         0.1394
     12 C7          1.9180   -1.6493    2.5751 C.3       1 <0>        -0.0062
     13 N3          2.1695   -2.4709    3.7666 N.4       1 <0>        -0.6885
     14 H4          3.1551    0.6552   -0.0242 H         1 <0>         0.2205
     15 H5         -0.9017    1.9182    0.0169 H         1 <0>         0.2653
     16 H6          3.6234   -2.8350   -0.3989 H         1 <0>         0.1389
     17 H7          3.7519   -1.2074    0.3501 H         1 <0>         0.1247
     18 H8          2.6434   -0.8231    2.5396 H         1 <0>         0.1277
     19 H9          0.8980   -1.2400    2.6206 H         1 <0>         0.1234
     20 H10         2.0632   -1.8506    4.6688 H         1 <0>         0.4681
     21 H11         3.1895   -2.8802    3.7211 H         1 <0>         0.4662
     22 H12         1.4441   -3.2971    3.8020 H         1 <0>         0.4605
     23 H13        -0.8214   -0.7333    0.0059 H         1 <0>         0.5057
@<TRIPOS>BOND
     1    1    5 1
     2    1    2 2
     3    1   14 1
     4    2    3 1
     5    2    7 1
     6    3    4 2
     7    3   23 1
     8    4    5 1
     9    4   15 1
    10    5    6 1
    11    7    8 1
    12    7   10 1
    13    7    9 1
    14    9   10 1
    15    9   16 1
    16    9   17 1
    17   10   11 1
    18   10   12 1
    19   12   13 1
    20   12   18 1
    21   12   19 1
    22   13   20 1
    23   13   21 1
    24   13   22 1
@<TRIPOS>MOLECULE
ZINC13530245
   22    23     0     0     0
SMALL
USER_CHARGES
[(1R,2S)-2-(1H-imidazol-4-yl)cyclopropyl]methanamine
@<TRIPOS>ATOM
      1 C1          2.0751    0.6534   -0.0142 C.2       1 <0>        -0.0658
      2 C2          1.2741   -0.4291   -0.0124 C.2       1 <0>        -0.0160
      3 N1          0.0021   -0.0041    0.0020 N.2       1 <0>        -0.4939
      4 C3         -0.0156    1.3008    0.0092 C.2       1 <0>         0.2090
      5 N2          1.2575    1.7511   -0.0005 N.pl3     1 <0>        -0.5776
      6 H1          1.6929    2.7612    0.0008 H         1 <0>         0.4558
      7 C4          1.7275   -1.8663   -0.0249 C.3       1 <0>        -0.0790
      8 H2          1.0692   -2.1151   -0.8703 H         1 <0>         0.1541
      9 C5          3.1854   -2.1503    0.3422 C.3       1 <0>        -0.1450
     10 C6          2.0659   -2.5120    1.3202 C.3       1 <0>        -0.1220
     11 H3          1.7556   -3.4284    1.8436 H         1 <0>         0.1213
     12 C7          1.9180   -1.6493    2.5751 C.3       1 <0>        -0.0029
     13 N3          2.1695   -2.4709    3.7666 N.4       1 <0>        -0.6852
     14 H4          3.1551    0.6552   -0.0242 H         1 <0>         0.1739
     15 H5         -0.9017    1.9182    0.0169 H         1 <0>         0.2110
     16 H6          3.6234   -2.8350   -0.3989 H         1 <0>         0.1219
     17 H7          3.7519   -1.2074    0.3501 H         1 <0>         0.1155
     18 H8          2.6434   -0.8231    2.5396 H         1 <0>         0.1228
     19 H9          0.8980   -1.2400    2.6206 H         1 <0>         0.1306
     20 H10         2.0632   -1.8506    4.6688 H         1 <0>         0.4597
     21 H11         3.1895   -2.8802    3.7211 H         1 <0>         0.4570
     22 H12         1.4441   -3.2971    3.8020 H         1 <0>         0.4550
@<TRIPOS>BOND
     1    1    5 1
     2    1    2 2
     3    1   14 1
     4    2    3 1
     5    2    7 1
     6    3    4 2
     7    4    5 1
     8    4   15 1
     9    5    6 1
    10    7    8 1
    11    7   10 1
    12    7    9 1
    13    9   10 1
    14    9   16 1
    15    9   17 1
    16   10   11 1
    17   10   12 1
    18   12   13 1
    19   12   18 1
    20   12   19 1
    21   13   20 1
    22   13   21 1
    23   13   22 1
@<TRIPOS>MOLECULE
ZINC00016616
   25    26     0     0     0
SMALL
USER_CHARGES
4-[(3R,4R)-4-methylpyrrolidin-3-yl]-1H-imidazole
@<TRIPOS>ATOM
      1 C1          4.1668    2.0772   -1.8043 C.3       1 <0>        -0.1586
      2 C2          2.9655    1.1945   -1.4599 C.3       1 <0>        -0.1071
      3 H1          2.1490    1.3755   -2.1589 H         1 <0>         0.1163
      4 C3          3.3706   -0.2950   -1.4826 C.3       1 <0>        -0.0077
      5 C4          2.6652    0.1111    0.7165 C.3       1 <0>        -0.0054
      6 C5          2.5015    1.4617   -0.0132 C.3       1 <0>        -0.0177
      7 H2          3.1284    2.2230    0.4510 H         1 <0>         0.1206
      8 C6          1.0577    1.8932    0.0021 C.2       1 <0>        -0.0103
      9 C7         -0.0126    1.0758    0.0080 C.2       1 <0>        -0.0504
     10 N1         -1.1226    1.8767    0.0168 N.pl3     1 <0>        -0.5647
     11 H3         -2.0748    1.5712    0.0175 H         1 <0>         0.4361
     12 C8         -0.6916    3.1566    0.0243 C.2       1 <0>         0.2090
     13 N2          0.6133    3.1587    0.0124 N.2       1 <0>        -0.4830
     14 H4          4.9872    1.8570   -1.1212 H         1 <0>         0.0597
     15 H5          4.4829    1.8774   -2.8281 H         1 <0>         0.0738
     16 H6          3.8862    3.1261   -1.7088 H         1 <0>         0.0811
     17 H7          2.5404   -0.9095   -1.8310 H         1 <0>         0.1334
     18 H8          4.2440   -0.4418   -2.1179 H         1 <0>         0.1425
     19 H9          3.0089    0.2705    1.7386 H         1 <0>         0.1456
     20 H10         1.7247   -0.4398    0.7122 H         1 <0>         0.1334
     21 H11         0.0021   -0.0041    0.0020 H         1 <0>         0.1733
     22 H12        -1.3225    4.0331    0.0338 H         1 <0>         0.2165
     23 N3          3.6683   -0.5953   -0.0814 N.4       1 <0>        -0.5102
     24 H13         4.6102   -0.2653    0.1598 H         1 <0>         0.4364
     25 H14         3.6066   -1.6065    0.0855 H         1 <0>         0.4375
@<TRIPOS>BOND
     1    1    2 1
     2    1   14 1
     3    1   15 1
     4    1   16 1
     5    2    3 1
     6    2    6 1
     7    2    4 1
     8    4   17 1
     9    4   18 1
    10    4   23 1
    11    5    6 1
    12    5   19 1
    13    5   20 1
    14    5   23 1
    15    6    7 1
    16    6    8 1
    17    8   13 1
    18    8    9 2
    19    9   10 1
    20    9   21 1
    21   10   11 1
    22   10   12 1
    23   12   13 2
    24   12   22 1
    25   23   24 1
    26   23   25 1
@<TRIPOS>MOLECULE
ZINC00016616
   26    27     0     0     0
SMALL
USER_CHARGES
4-[(3R,4R)-4-methylpyrrolidin-3-yl]-1H-imidazole
@<TRIPOS>ATOM
      1 C1          4.1668    2.0772   -1.8043 C.3       1 <0>        -0.1669
      2 C2          2.9655    1.1945   -1.4599 C.3       1 <0>        -0.1114
      3 H1          2.1490    1.3755   -2.1589 H         1 <0>         0.1217
      4 C3          3.3706   -0.2950   -1.4826 C.3       1 <0>        -0.0081
      5 C4          2.6652    0.1111    0.7165 C.3       1 <0>        -0.0003
      6 C5          2.5015    1.4617   -0.0132 C.3       1 <0>        -0.0478
      7 H2          3.1284    2.2230    0.4510 H         1 <0>         0.1390
      8 C6          1.0577    1.8932    0.0021 C.2       1 <0>         0.0171
      9 C7         -0.0126    1.0758    0.0080 C.2       1 <0>         0.0398
     10 N1         -1.1226    1.8767    0.0168 N.pl3     1 <0>        -0.5111
     11 H3         -2.0748    1.5712    0.0175 H         1 <0>         0.4837
     12 C8         -0.6916    3.1566    0.0243 C.cat     1 <0>         0.3358
     13 H4          4.9872    1.8570   -1.1212 H         1 <0>         0.0697
     14 H5          4.4829    1.8774   -2.8281 H         1 <0>         0.0875
     15 H6          3.8862    3.1261   -1.7088 H         1 <0>         0.0781
     16 H7          2.5404   -0.9095   -1.8310 H         1 <0>         0.1411
     17 H8          4.2440   -0.4418   -2.1179 H         1 <0>         0.1533
     18 H9          3.0089    0.2705    1.7386 H         1 <0>         0.1580
     19 H10         1.7247   -0.4398    0.7122 H         1 <0>         0.1381
     20 H11         0.0021   -0.0041    0.0020 H         1 <0>         0.2234
     21 H12        -1.3225    4.0331    0.0338 H         1 <0>         0.2737
     22 N2          3.6683   -0.5953   -0.0814 N.4       1 <0>        -0.5128
     23 H13         4.6102   -0.2653    0.1598 H         1 <0>         0.4439
     24 H14         3.6066   -1.6065    0.0855 H         1 <0>         0.4491
     25 N3          0.6125    3.1576    0.0124 N.pl3     1 <0>        -0.4809
     26 H15         1.2056    3.9958    0.0111 H         1 <0>         0.4864
@<TRIPOS>BOND
     1    1    2 1
     2    1   13 1
     3    1   14 1
     4    1   15 1
     5    2    3 1
     6    2    6 1
     7    2    4 1
     8    4   16 1
     9    4   17 1
    10    4   22 1
    11    5    6 1
    12    5   18 1
    13    5   19 1
    14    5   22 1
    15    6    7 1
    16    6    8 1
    17    8    9 2
    18    8   25 1
    19    9   10 1
    20    9   20 1
    21   10   11 1
    22   10   12 1
    23   12   21 1
    24   12   25 2
    25   22   23 1
    26   22   24 1
    27   25   26 1
@<TRIPOS>MOLECULE
ZINC22452295
   54    56     0     0     0
SMALL
USER_CHARGES

@<TRIPOS>ATOM
      1 C1         -0.0178    1.4648    0.0101 C.3       1 <0>        -0.0497
      2 N1          0.0021   -0.0041    0.0020 N.4       1 <0>        -0.3810
      3 C2          0.7126   -0.4907    1.1921 C.3       1 <0>        -0.0482
      4 C3         -1.3761   -0.5125    0.0124 C.3       1 <0>         0.0079
      5 H1         -1.9045   -0.1842    0.9075 H         1 <0>         0.1557
      6 C4         -1.3989   -2.0589   -0.1105 C.3       1 <0>        -0.1563
      7 C5         -2.7759   -2.3366   -0.7493 C.3       1 <0>         0.0369
      8 N2         -3.1965   -1.1009   -1.4349 N.3       1 <0>        -0.5170
      9 C6         -2.1351   -0.0847   -1.2684 C.3       1 <0>         0.0309
     10 C7         -3.4658   -1.3534   -2.8568 C.3       1 <0>         0.0520
     11 C8         -4.7353   -2.1963   -2.9936 C.3       1 <0>        -0.1175
     12 C9         -5.0157   -2.4593   -4.4746 C.3       1 <0>         0.0602
     13 O1         -6.2014   -3.2465   -4.6024 O.3       1 <0>        -0.3116
     14 C10        -6.5934   -3.5712   -5.8619 C.ar      1 <0>         0.1348
     15 C11        -5.8463   -3.1440   -6.9518 C.ar      1 <0>        -0.2078
     16 C12        -6.2411   -3.4721   -8.2313 C.ar      1 <0>        -0.0632
     17 C13        -7.3921   -4.2340   -8.4304 C.ar      1 <0>        -0.0894
     18 C14        -8.1402   -4.6614   -7.3338 C.ar      1 <0>        -0.0620
     19 C15        -7.7371   -4.3344   -6.0566 C.ar      1 <0>        -0.1472
     20 C16        -7.8198   -4.5882   -9.8046 C.ar      1 <0>        -0.0089
     21 C17        -7.0668   -4.1638  -10.9001 C.ar      1 <0>        -0.1176
     22 C18        -7.4631   -4.4916  -12.1767 C.ar      1 <0>        -0.0637
     23 C19        -8.6200   -5.2504  -12.3756 C.ar      1 <0>        -0.0285
     24 C20        -9.3731   -5.6753  -11.2773 C.ar      1 <0>        -0.0626
     25 C21        -8.9718   -5.3505  -10.0015 C.ar      1 <0>        -0.1161
     26 C22        -9.0337   -5.5918  -13.7034 C.1       1 <0>         0.2469
     27 N3         -9.3619   -5.8627  -14.7567 N.1       1 <0>        -0.4079
     28 H2          1.0047    1.8421    0.0024 H         1 <0>         0.1265
     29 H3         -0.5450    1.8259   -0.8730 H         1 <0>         0.1230
     30 H4         -0.5280    1.8163    0.9069 H         1 <0>         0.1249
     31 H5          0.2024   -0.1392    2.0889 H         1 <0>         0.1242
     32 H6          0.7273   -1.5806    1.1861 H         1 <0>         0.1228
     33 H7          1.7352   -0.1134    1.1844 H         1 <0>         0.1265
     34 H8         -0.5955   -2.4057   -0.7604 H         1 <0>         0.0891
     35 H9         -1.3290   -2.5247    0.8725 H         1 <0>         0.1071
     36 H10        -2.6931   -3.1505   -1.4695 H         1 <0>         0.0795
     37 H11        -3.4983   -2.5955    0.0248 H         1 <0>         0.0999
     38 H12        -2.5733    0.9047   -1.1372 H         1 <0>         0.1104
     39 H13        -1.4643   -0.0928   -2.1275 H         1 <0>         0.0666
     40 H14        -3.6023   -0.4041   -3.3748 H         1 <0>         0.0867
     41 H15        -2.6246   -1.8894   -3.2963 H         1 <0>         0.0468
     42 H16        -4.5987   -3.1456   -2.4756 H         1 <0>         0.0772
     43 H17        -5.5765   -1.6603   -2.5542 H         1 <0>         0.0891
     44 H18        -5.1523   -1.5100   -4.9926 H         1 <0>         0.0657
     45 H19        -4.1745   -2.9953   -4.9141 H         1 <0>         0.0621
     46 H20        -4.9552   -2.5537   -6.7969 H         1 <0>         0.1286
     47 H21        -5.6598   -3.1393   -9.0785 H         1 <0>         0.1318
     48 H22        -9.0320   -5.2516   -7.4847 H         1 <0>         0.1377
     49 H23        -8.3134   -4.6688   -5.2067 H         1 <0>         0.1360
     50 H24        -6.1730   -3.5775  -10.7462 H         1 <0>         0.1349
     51 H25        -6.8805   -4.1625  -13.0245 H         1 <0>         0.1360
     52 H26       -10.2674   -6.2613  -11.4296 H         1 <0>         0.1370
     53 H27        -9.5510   -5.6824   -9.1525 H         1 <0>         0.1371
     54 H28         0.4743   -0.3295   -0.8281 H         1 <0>         0.4236
@<TRIPOS>BOND
     1    1    2 1
     2    1   28 1
     3    1   29 1
     4    1   30 1
     5    2    3 1
     6    2    4 1
     7    2   54 1
     8    3   31 1
     9    3   32 1
    10    3   33 1
    11    4    5 1
    12    4    9 1
    13    4    6 1
    14    6    7 1
    15    6   34 1
    16    6   35 1
    17    7    8 1
    18    7   36 1
    19    7   37 1
    20    8    9 1
    21    8   10 1
    22    9   38 1
    23    9   39 1
    24   10   11 1
    25   10   40 1
    26   10   41 1
    27   11   12 1
    28   11   42 1
    29   11   43 1
    30   12   13 1
    31   12   44 1
    32   12   45 1
    33   13   14 1
    34   14   19 ar
    35   14   15 ar
    36   15   16 ar
    37   15   46 1
    38   16   17 ar
    39   16   47 1
    40   17   18 ar
    41   17   20 1
    42   18   19 ar
    43   18   48 1
    44   19   49 1
    45   20   25 ar
    46   20   21 ar
    47   21   22 ar
    48   21   50 1
    49   22   23 ar
    50   22   51 1
    51   23   24 ar
    52   23   26 1
    53   24   25 ar
    54   24   52 1
    55   25   53 1
    56   26   27 3
@<TRIPOS>MOLECULE
ZINC00163336
   30    31     0     0     0
SMALL
USER_CHARGES

@<TRIPOS>ATOM
      1 C1         -0.0167    1.3823    0.0096 C.ar      1 <0>        -0.1664
      2 C2          1.1808    2.0721    0.0019 C.ar      1 <0>         0.1105
      3 N1          2.3308    1.4269   -0.0130 N.ar      1 <0>        -0.4734
      4 C3          2.3867    0.1094   -0.0206 C.ar      1 <0>         0.1108
      5 C4          1.2303   -0.6473   -0.0132 C.ar      1 <0>        -0.1661
      6 C5          0.0021   -0.0041    0.0020 C.ar      1 <0>        -0.0606
      7 C6         -1.2819   -0.7930    0.0105 C.3       1 <0>        -0.1017
      8 C7         -1.7307   -1.0523   -1.4290 C.3       1 <0>        -0.0007
      9 N2         -2.9823   -1.8214   -1.4207 N.4       1 <0>        -0.3949
     10 C8         -4.0932   -0.9861   -0.8968 C.3       1 <0>        -0.0088
     11 C9         -5.3568   -1.6815   -1.4626 C.3       1 <0>        -0.1457
     12 C10        -4.9045   -2.1269   -2.8722 C.3       1 <0>        -0.1455
     13 C11        -3.3672   -2.1840   -2.8019 C.3       1 <0>        -0.0086
     14 H1         -0.9553    1.9163    0.0259 H         1 <0>         0.1378
     15 H2          1.1748    3.1521    0.0078 H         1 <0>         0.1633
     16 H3          3.3473   -0.3840   -0.0331 H         1 <0>         0.1635
     17 H4          1.2825   -1.7260   -0.0195 H         1 <0>         0.1384
     18 H5         -1.1205   -1.7443    0.5177 H         1 <0>         0.0997
     19 H6         -2.0522   -0.2277    0.5351 H         1 <0>         0.0992
     20 H7         -1.8921   -0.1011   -1.9362 H         1 <0>         0.1315
     21 H8         -0.9604   -1.6176   -1.9535 H         1 <0>         0.1320
     22 H9         -4.1028   -0.9983    0.1931 H         1 <0>         0.1357
     23 H10        -4.0161    0.0349   -1.2705 H         1 <0>         0.1341
     24 H11        -5.6276   -2.5442   -0.8539 H         1 <0>         0.0985
     25 H12        -6.1873   -0.9785   -1.5282 H         1 <0>         0.1171
     26 H13        -5.3093   -3.1115   -3.1060 H         1 <0>         0.1057
     27 H14        -5.2222   -1.3993   -3.6190 H         1 <0>         0.1040
     28 H15        -2.9365   -1.4724   -3.5064 H         1 <0>         0.1305
     29 H16        -3.0222   -3.1923   -3.0309 H         1 <0>         0.1328
     30 H17        -2.8764   -2.6530   -0.8593 H         1 <0>         0.4273
@<TRIPOS>BOND
     1    1    6 ar
     2    1    2 ar
     3    1   14 1
     4    2    3 ar
     5    2   15 1
     6    3    4 ar
     7    4    5 ar
     8    4   16 1
     9    5    6 ar
    10    5   17 1
    11    6    7 1
    12    7    8 1
    13    7   18 1
    14    7   19 1
    15    8    9 1
    16    8   20 1
    17    8   21 1
    18    9   13 1
    19    9   10 1
    20    9   30 1
    21   10   11 1
    22   10   22 1
    23   10   23 1
    24   11   12 1
    25   11   24 1
    26   11   25 1
    27   12   13 1
    28   12   26 1
    29   12   27 1
    30   13   28 1
    31   13   29 1
@<TRIPOS>MOLECULE
ZINC01530637
   41    42     0     0     0
SMALL
USER_CHARGES

@<TRIPOS>ATOM
      1 C1         -0.4120    1.0349    0.3013 C.3       1 <0>        -0.0488
      2 N1         -0.2330   -0.4168    0.1652 N.4       1 <0>        -0.5073
      3 C2          0.5049   -0.7054   -1.0718 C.3       1 <0>        -0.0229
      4 C3          0.6913   -2.2174   -1.2135 C.3       1 <0>        -0.1675
      5 C4          1.4598   -2.5179   -2.5019 C.3       1 <0>         0.1351
      6 H1          2.3976   -1.9623   -2.5036 H         1 <0>         0.0995
      7 C5          1.7506   -3.9945   -2.5806 C.ar      1 <0>        -0.1149
      8 C6          0.8070   -4.8578   -3.1052 C.ar      1 <0>        -0.0895
      9 C7          1.0737   -6.2123   -3.1773 C.ar      1 <0>        -0.1179
     10 C8          2.2842   -6.7034   -2.7252 C.ar      1 <0>        -0.1006
     11 C9          3.2282   -5.8399   -2.2014 C.ar      1 <0>        -0.1161
     12 C10         2.9632   -4.4849   -2.1333 C.ar      1 <0>        -0.1045
     13 O1          0.6724   -2.1269   -3.6285 O.3       1 <0>        -0.2928
     14 C11         0.8838   -0.8800   -4.1260 C.ar      1 <0>         0.1505
     15 C12         1.8748   -0.0745   -3.5841 C.ar      1 <0>        -0.2338
     16 C13         2.0880    1.1924   -4.0920 C.ar      1 <0>        -0.0253
     17 C14         1.3144    1.6580   -5.1391 C.ar      1 <0>        -0.2127
     18 C15         0.3257    0.8573   -5.6806 C.ar      1 <0>        -0.0216
     19 C16         0.1127   -0.4127   -5.1804 C.ar      1 <0>        -0.1468
     20 C17         1.5488    3.0406   -5.6908 C.3       1 <0>         0.5091
     21 F1          2.4914    2.9774   -6.7227 F         1 <0>        -0.1716
     22 F2          0.3464    3.5542   -6.1884 F         1 <0>        -0.1742
     23 F3          2.0262    3.8739   -4.6735 F         1 <0>        -0.1775
     24 H2          0.5637    1.5193    0.3388 H         1 <0>         0.1248
     25 H3         -0.9730    1.4134   -0.5531 H         1 <0>         0.1241
     26 H4         -0.9595    1.2490    1.2192 H         1 <0>         0.1296
     27 H5          0.2863   -0.7673    0.9561 H         1 <0>         0.4310
     28 H6         -0.0562   -0.3268   -1.9262 H         1 <0>         0.1339
     29 H7          1.4806   -0.2209   -1.0343 H         1 <0>         0.1355
     30 H8          1.2523   -2.5959   -0.3591 H         1 <0>         0.1101
     31 H9         -0.2844   -2.7018   -1.2511 H         1 <0>         0.1053
     32 H10        -0.1388   -4.4741   -3.4583 H         1 <0>         0.1283
     33 H11         0.3362   -6.8868   -3.5865 H         1 <0>         0.1298
     34 H12         2.4924   -7.7616   -2.7809 H         1 <0>         0.1301
     35 H13         4.1738   -6.2237   -1.8480 H         1 <0>         0.1308
     36 H14         3.7021   -3.8099   -1.7275 H         1 <0>         0.1243
     37 H15         2.4789   -0.4374   -2.7657 H         1 <0>         0.1409
     38 H16         2.8594    1.8199   -3.6705 H         1 <0>         0.1434
     39 H17        -0.2775    1.2233   -6.4983 H         1 <0>         0.1498
     40 H18        -0.6567   -1.0394   -5.6066 H         1 <0>         0.1488
     41 H19        -1.1362   -0.8653    0.1305 H         1 <0>         0.4318
@<TRIPOS>BOND
     1    1    2 1
     2    1   24 1
     3    1   25 1
     4    1   26 1
     5    2    3 1
     6    2   27 1
     7    2   41 1
     8    3    4 1
     9    3   28 1
    10    3   29 1
    11    4    5 1
    12    4   30 1
    13    4   31 1
    14    5    6 1
    15    5    7 1
    16    5   13 1
    17    7   12 ar
    18    7    8 ar
    19    8    9 ar
    20    8   32 1
    21    9   10 ar
    22    9   33 1
    23   10   11 ar
    24   10   34 1
    25   11   12 ar
    26   11   35 1
    27   12   36 1
    28   13   14 1
    29   14   19 ar
    30   14   15 ar
    31   15   16 ar
    32   15   37 1
    33   16   17 ar
    34   16   38 1
    35   17   18 ar
    36   17   20 1
    37   18   19 ar
    38   18   39 1
    39   19   40 1
    40   20   21 1
    41   20   22 1
    42   20   23 1
@<TRIPOS>MOLECULE
ZINC01530638
   41    42     0     0     0
SMALL
USER_CHARGES

@<TRIPOS>ATOM
      1 C1         -0.0117    1.2584    0.2941 C.3       1 <0>        -0.0489
      2 N1          0.0187   -0.2059    0.1807 N.4       1 <0>        -0.5073
      3 C2          0.6940   -0.5864   -1.0672 C.3       1 <0>        -0.0223
      4 C3          0.7257   -2.1115   -1.1853 C.3       1 <0>        -0.1659
      5 C4          1.4290   -2.5079   -2.4850 C.3       1 <0>         0.1346
      6 H1          0.9406   -2.0169   -3.3267 H         1 <0>         0.0995
      7 C5          1.3524   -4.0025   -2.6620 C.ar      1 <0>        -0.1166
      8 C6          2.2239   -4.8256   -1.9736 C.ar      1 <0>        -0.0896
      9 C7          2.1536   -6.1966   -2.1360 C.ar      1 <0>        -0.1183
     10 C8          1.2115   -6.7445   -2.9863 C.ar      1 <0>        -0.1002
     11 C9          0.3394   -5.9215   -3.6740 C.ar      1 <0>        -0.1161
     12 C10         0.4069   -4.5507   -3.5084 C.ar      1 <0>        -0.1036
     13 O1          2.7987   -2.1046   -2.4276 O.3       1 <0>        -0.2939
     14 C11         3.1290   -0.9498   -3.0632 C.ar      1 <0>         0.1513
     15 C12         4.4578   -0.5614   -3.1526 C.ar      1 <0>        -0.1453
     16 C13         4.7911    0.6128   -3.7997 C.ar      1 <0>        -0.0215
     17 C14         3.8014    1.4009   -4.3576 C.ar      1 <0>        -0.2121
     18 C15         2.4763    1.0162   -4.2695 C.ar      1 <0>        -0.0254
     19 C16         2.1384   -0.1601   -3.6288 C.ar      1 <0>        -0.2331
     20 C17         4.1677    2.6815   -5.0625 C.3       1 <0>         0.5092
     21 F1          4.3972    2.4189   -6.4174 F         1 <0>        -0.1720
     22 F2          3.1196    3.5994   -4.9365 F         1 <0>        -0.1774
     23 F3          5.3265    3.2150   -4.4881 F         1 <0>        -0.1740
     24 H2          1.0080    1.6436    0.3006 H         1 <0>         0.1243
     25 H3         -0.5529    1.6774   -0.5543 H         1 <0>         0.1247
     26 H4         -0.5127    1.5408    1.2200 H         1 <0>         0.1295
     27 H5          0.5197   -0.5937    0.9660 H         1 <0>         0.4319
     28 H6          0.1528   -0.1675   -1.9155 H         1 <0>         0.1348
     29 H7          1.7136   -0.2013   -1.0606 H         1 <0>         0.1349
     30 H8          1.2669   -2.5305   -0.3370 H         1 <0>         0.1053
     31 H9         -0.2940   -2.4967   -1.1919 H         1 <0>         0.1101
     32 H10         2.9600   -4.3975   -1.3092 H         1 <0>         0.1272
     33 H11         2.8350   -6.8396   -1.5987 H         1 <0>         0.1297
     34 H12         1.1571   -7.8156   -3.1137 H         1 <0>         0.1301
     35 H13        -0.3964   -6.3495   -4.3386 H         1 <0>         0.1308
     36 H14        -0.2770   -3.9079   -4.0428 H         1 <0>         0.1243
     37 H15         5.2311   -1.1763   -2.7163 H         1 <0>         0.1487
     38 H16         5.8254    0.9155   -3.8695 H         1 <0>         0.1498
     39 H17         1.7051    1.6337   -4.7058 H         1 <0>         0.1430
     40 H18         1.1036   -0.4624   -3.5641 H         1 <0>         0.1387
     41 H19        -0.9251   -0.5624    0.1746 H         1 <0>         0.4310
@<TRIPOS>BOND
     1    1    2 1
     2    1   24 1
     3    1   25 1
     4    1   26 1
     5    2    3 1
     6    2   27 1
     7    2   41 1
     8    3    4 1
     9    3   28 1
    10    3   29 1
    11    4    5 1
    12    4   30 1
    13    4   31 1
    14    5    6 1
    15    5    7 1
    16    5   13 1
    17    7   12 ar
    18    7    8 ar
    19    8    9 ar
    20    8   32 1
    21    9   10 ar
    22    9   33 1
    23   10   11 ar
    24   10   34 1
    25   11   12 ar
    26   11   35 1
    27   12   36 1
    28   13   14 1
    29   14   19 ar
    30   14   15 ar
    31   15   16 ar
    32   15   37 1
    33   16   17 ar
    34   16   38 1
    35   17   18 ar
    36   17   20 1
    37   18   19 ar
    38   18   39 1
    39   19   40 1
    40   20   21 1
    41   20   22 1
    42   20   23 1
@<TRIPOS>MOLECULE
ZINC13813271
   28    28     0     0     0
SMALL
USER_CHARGES

@<TRIPOS>ATOM
      1 C1         -0.0165    1.3646    0.0095 C.2       1 <0>         0.0361
      2 C2          1.2671    1.7717   -0.0005 C.2       1 <0>         0.0254
      3 N1          2.0482    0.6814   -0.0138 N.pl3     1 <0>        -0.4769
      4 H1         -0.7708   -0.5902    0.0060 H         1 <0>         0.4704
      5 C3          1.2973   -0.3859   -0.0124 C.cat     1 <0>         0.3130
      6 N2          0.0021   -0.0041    0.0020 N.pl3     1 <0>        -0.5083
      7 C4          1.7427    3.2017    0.0026 C.3       1 <0>        -0.0639
      8 C5          1.7980    3.7176    1.4420 C.3       1 <0>        -0.1209
      9 C6          2.2808    5.1695    1.4451 C.3       1 <0>        -0.1219
     10 C7          2.3362    5.6853    2.8845 C.3       1 <0>        -0.1536
     11 C8          2.8190    7.1372    2.8877 C.3       1 <0>        -0.0103
     12 N3          2.8721    7.6325    4.2696 N.4       1 <0>        -0.6393
     13 H2         -0.8922    1.9965    0.0253 H         1 <0>         0.2260
     14 H3          1.6529   -1.4057   -0.0218 H         1 <0>         0.2686
     15 H4          2.7369    3.2550   -0.4409 H         1 <0>         0.0984
     16 H5          1.0529    3.8153   -0.5770 H         1 <0>         0.1144
     17 H6          0.8038    3.6644    1.8855 H         1 <0>         0.0786
     18 H7          2.4878    3.1041    2.0215 H         1 <0>         0.0714
     19 H8          3.2751    5.2227    1.0016 H         1 <0>         0.0807
     20 H9          1.5911    5.7830    0.8655 H         1 <0>         0.0832
     21 H10         1.3419    5.6321    3.3280 H         1 <0>         0.0900
     22 H11         3.0259    5.0718    3.4641 H         1 <0>         0.0885
     23 H12         3.8132    7.1904    2.4441 H         1 <0>         0.1348
     24 H13         2.1292    7.7507    2.3081 H         1 <0>         0.1355
     25 H14         1.9518    7.5832    4.6802 H         1 <0>         0.4365
     26 H15         3.5106    7.0646    4.8061 H         1 <0>         0.4362
     27 H16         3.1905    8.5899    4.2717 H         1 <0>         0.4425
     28 H17         3.0181    0.6856   -0.0234 H         1 <0>         0.4650
@<TRIPOS>BOND
     1    1    6 1
     2    1    2 2
     3    1   13 1
     4    2    3 1
     5    2    7 1
     6    3    5 2
     7    3   28 1
     8    4    6 1
     9    5   14 1
    10    5    6 1
    11    7    8 1
    12    7   15 1
    13    7   16 1
    14    8    9 1
    15    8   17 1
    16    8   18 1
    17    9   10 1
    18    9   19 1
    19    9   20 1
    20   10   11 1
    21   10   21 1
    22   10   22 1
    23   11   12 1
    24   11   23 1
    25   11   24 1
    26   12   25 1
    27   12   26 1
    28   12   27 1
@<TRIPOS>MOLECULE
ZINC13813271
   27    27     0     0     0
SMALL
USER_CHARGES

@<TRIPOS>ATOM
      1 C1         -0.0161    1.3371    0.0094 C.2       1 <0>        -0.0180
      2 C2          1.2587    1.7711   -0.0004 C.2       1 <0>        -0.0368
      3 N1          2.0558    0.6583   -0.0140 N.pl3     1 <0>        -0.5686
      4 C3          1.2397   -0.4176   -0.0120 C.2       1 <0>         0.1914
      5 N2          0.0021   -0.0041    0.0020 N.2       1 <0>        -0.4921
      6 C4          1.7192    3.2060    0.0024 C.3       1 <0>        -0.0423
      7 C5          1.7695    3.7226    1.4417 C.3       1 <0>        -0.1163
      8 C6          2.2370    5.1794    1.4446 C.3       1 <0>        -0.1197
      9 C7          2.2873    5.6960    2.8839 C.3       1 <0>        -0.1530
     10 C8          2.7548    7.1528    2.8868 C.3       1 <0>        -0.0099
     11 N3          2.8031    7.6488    4.2687 N.4       1 <0>        -0.6387
     12 H1         -0.8984    1.9597    0.0252 H         1 <0>         0.1681
     13 H2          1.5585   -1.4495   -0.0206 H         1 <0>         0.2108
     14 H3          2.7127    3.2696   -0.4414 H         1 <0>         0.0716
     15 H4          1.0229    3.8122   -0.5771 H         1 <0>         0.0899
     16 H5          0.7759    3.6590    1.8855 H         1 <0>         0.0735
     17 H6          2.4657    3.1164    2.0212 H         1 <0>         0.0645
     18 H7          3.2305    5.2430    1.0008 H         1 <0>         0.0748
     19 H8          1.5407    5.7856    0.8651 H         1 <0>         0.0782
     20 H9          1.2937    5.6324    3.3276 H         1 <0>         0.0892
     21 H10         2.9835    5.0898    3.4634 H         1 <0>         0.0870
     22 H11         3.7483    7.2164    2.4430 H         1 <0>         0.1333
     23 H12         2.0585    7.7590    2.3073 H         1 <0>         0.1344
     24 H13         1.8834    7.5899    4.6795 H         1 <0>         0.4358
     25 H14         3.4476    7.0877    4.8051 H         1 <0>         0.4353
     26 H15         3.1114    8.6096    4.2706 H         1 <0>         0.4388
     27 H16         3.0256    0.6452   -0.0234 H         1 <0>         0.4190
@<TRIPOS>BOND
     1    1    5 1
     2    1    2 2
     3    1   12 1
     4    2    3 1
     5    2    6 1
     6    3    4 1
     7    3   27 1
     8    4   13 1
     9    4    5 2
    10    6    7 1
    11    6   14 1
    12    6   15 1
    13    7    8 1
    14    7   16 1
    15    7   17 1
    16    8    9 1
    17    8   18 1
    18    8   19 1
    19    9   10 1
    20    9   20 1
    21    9   21 1
    22   10   11 1
    23   10   22 1
    24   10   23 1
    25   11   24 1
    26   11   25 1
    27   11   26 1
@<TRIPOS>MOLECULE
ZINC13519013
   25    26     0     0     0
SMALL
USER_CHARGES
2-[(1R,2R)-2-(1H-imidazol-4-yl)cyclopropyl]ethanamine
@<TRIPOS>ATOM
      1 C1          1.9721    1.6218    2.3022 C.2       1 <0>        -0.0510
      2 C2          2.1321    0.7830    1.2609 C.2       1 <0>         0.0221
      3 N1          3.1482   -0.0445    1.5470 N.2       1 <0>        -0.4875
      4 C3          3.6204    0.2461    2.7283 C.2       1 <0>         0.1926
      5 N2          2.9122    1.2779    3.2358 N.pl3     1 <0>        -0.5712
      6 H1          3.0490    1.7100    4.1272 H         1 <0>         0.4315
      7 C4          1.3165    0.7789   -0.0063 C.3       1 <0>        -0.0519
      8 H2          1.8888    0.7918   -0.9339 H         1 <0>         0.1233
      9 C5         -0.0187    1.5258    0.0104 C.3       1 <0>        -0.1634
     10 C6          0.0021   -0.0041    0.0020 C.3       1 <0>        -0.1513
     11 H3         -0.2904   -0.5063   -0.9201 H         1 <0>         0.1189
     12 C7         -0.3843   -0.7229    1.2962 C.3       1 <0>        -0.1153
     13 C8         -1.6548   -1.5432    1.0641 C.3       1 <0>        -0.0023
     14 H4          1.2412    2.4126    2.3856 H         1 <0>         0.1748
     15 H5          4.4413   -0.2557    3.2190 H         1 <0>         0.2114
     16 H6         -0.3248    2.0300   -0.9061 H         1 <0>         0.1090
     17 H7         -0.3072    2.0201    0.9381 H         1 <0>         0.0988
     18 H8          0.4259   -1.3860    1.5993 H         1 <0>         0.0903
     19 H9         -0.5647    0.0124    2.0803 H         1 <0>         0.0845
     20 H10        -2.4651   -0.8802    0.7610 H         1 <0>         0.1361
     21 H11        -1.4744   -2.2785    0.2800 H         1 <0>         0.1330
     22 H12        -2.1356   -1.5777    3.0656 H         1 <0>         0.4356
     23 H13        -2.8627   -2.7825    2.1793 H         1 <0>         0.4404
     24 N3         -2.0054   -2.2480    2.3098 N.4       1 <0>        -0.6476
     25 H14        -1.2446   -2.8908    2.5595 H         1 <0>         0.4395
@<TRIPOS>BOND
     1    1    5 1
     2    1    2 2
     3    1   14 1
     4    2    3 1
     5    2    7 1
     6    3    4 2
     7    4    5 1
     8    4   15 1
     9    5    6 1
    10    7    8 1
    11    7   10 1
    12    7    9 1
    13    9   10 1
    14    9   16 1
    15    9   17 1
    16   10   11 1
    17   10   12 1
    18   12   13 1
    19   12   18 1
    20   12   19 1
    21   13   20 1
    22   13   21 1
    23   13   24 1
    24   22   24 1
    25   23   24 1
    26   24   25 1
@<TRIPOS>MOLECULE
ZINC13519013
   26    27     0     0     0
SMALL
USER_CHARGES
2-[(1R,2R)-2-(1H-imidazol-4-yl)cyclopropyl]ethanamine
@<TRIPOS>ATOM
      1 C1          1.9721    1.6218    2.3022 C.2       1 <0>         0.0315
      2 C2          2.1321    0.7830    1.2609 C.2       1 <0>         0.0559
      3 C3          3.6204    0.2461    2.7283 C.cat     1 <0>         0.3136
      4 N1          2.9122    1.2779    3.2358 N.pl3     1 <0>        -0.5133
      5 H1          3.0490    1.7100    4.1272 H         1 <0>         0.4796
      6 C4          1.3165    0.7789   -0.0063 C.3       1 <0>        -0.1066
      7 H2          1.8888    0.7918   -0.9339 H         1 <0>         0.1480
      8 C5         -0.0187    1.5258    0.0104 C.3       1 <0>        -0.1382
      9 C6          0.0021   -0.0041    0.0020 C.3       1 <0>        -0.1403
     10 H3         -0.2904   -0.5063   -0.9201 H         1 <0>         0.1364
     11 C7         -0.3843   -0.7229    1.2962 C.3       1 <0>        -0.1242
     12 C8         -1.6548   -1.5432    1.0641 C.3       1 <0>        -0.0031
     13 H4          1.2412    2.4126    2.3856 H         1 <0>         0.2241
     14 H5          4.4413   -0.2557    3.2190 H         1 <0>         0.2687
     15 H6         -0.3248    2.0300   -0.9061 H         1 <0>         0.1277
     16 H7         -0.3072    2.0201    0.9381 H         1 <0>         0.1104
     17 H8          0.4259   -1.3860    1.5993 H         1 <0>         0.0836
     18 H9         -0.5647    0.0124    2.0803 H         1 <0>         0.0903
     19 H10        -2.4651   -0.8802    0.7610 H         1 <0>         0.1430
     20 H11        -1.4744   -2.2785    0.2800 H         1 <0>         0.1378
     21 H12        -2.1356   -1.5777    3.0656 H         1 <0>         0.4374
     22 H13        -2.8627   -2.7825    2.1793 H         1 <0>         0.4484
     23 N2         -2.0054   -2.2480    2.3098 N.4       1 <0>        -0.6489
     24 H14        -1.2446   -2.8908    2.5595 H         1 <0>         0.4387
     25 N3          3.1477   -0.0435    1.5478 N.pl3     1 <0>        -0.4834
     26 H15         3.4987   -0.7882    0.9341 H         1 <0>         0.4831
@<TRIPOS>BOND
     1    1    4 1
     2    1    2 2
     3    1   13 1
     4    2    6 1
     5    2   25 1
     6    3    4 1
     7    3   14 1
     8    3   25 2
     9    4    5 1
    10    6    7 1
    11    6    9 1
    12    6    8 1
    13    8    9 1
    14    8   15 1
    15    8   16 1
    16    9   10 1
    17    9   11 1
    18   11   12 1
    19   11   17 1
    20   11   18 1
    21   12   19 1
    22   12   20 1
    23   12   23 1
    24   21   23 1
    25   22   23 1
    26   23   24 1
    27   25   26 1
@<TRIPOS>MOLECULE
ZINC13519013
   25    26     0     0     0
SMALL
USER_CHARGES

@<TRIPOS>ATOM
      1 C1          0.1142    1.3852    0.9525 C.2       1 <0>        -0.0153
      2 C2          1.1199    1.8238    0.1717 C.2       1 <0>        -0.0084
      3 N1          1.5717    0.7431   -0.5365 N.pl3     1 <0>        -0.5663
      4 C3          0.8257   -0.3190   -0.1636 C.2       1 <0>         0.1941
      5 N2         -0.0439    0.0725    0.7272 N.2       1 <0>        -0.4896
      6 C4          1.6465    3.2336    0.0926 C.3       1 <0>        -0.0735
      7 H1          2.7258    3.3392    0.2030 H         1 <0>         0.1226
      8 C5          0.7659    4.3495    0.6585 C.3       1 <0>        -0.1479
      9 C6          0.9354    4.2012   -0.8556 C.3       1 <0>        -0.1544
     10 H2          1.5467    4.9436   -1.3686 H         1 <0>         0.1208
     11 C7         -0.2560    3.6634   -1.6508 C.3       1 <0>        -0.1168
     12 C8         -0.7466    4.7376   -2.6235 C.3       1 <0>        -0.0061
     13 N3         -1.8905    4.2213   -3.3870 N.4       1 <0>        -0.6386
     14 H3         -0.4612    1.9845    1.6426 H         1 <0>         0.1683
     15 H4          0.9313   -1.3257   -0.5402 H         1 <0>         0.2123
     16 H5         -0.1943    4.0639    1.0881 H         1 <0>         0.1066
     17 H6          1.2658    5.1894    1.1409 H         1 <0>         0.1125
     18 H7          0.0499    2.7792   -2.2101 H         1 <0>         0.0850
     19 H8         -1.0610    3.3991   -0.9651 H         1 <0>         0.0919
     20 H9         -1.0524    5.6218   -2.0642 H         1 <0>         0.1370
     21 H10         0.0584    5.0019   -3.3092 H         1 <0>         0.1338
     22 H11        -1.6073    3.4028   -3.9047 H         1 <0>         0.4348
     23 H12        -2.6357    3.9766   -2.7523 H         1 <0>         0.4363
     24 H13        -2.2140    4.9297   -4.0285 H         1 <0>         0.4394
     25 H14         2.2930    0.7406   -1.1851 H         1 <0>         0.4213
@<TRIPOS>BOND
     1    1    5 1
     2    1    2 2
     3    1   14 1
     4    2    3 1
     5    2    6 1
     6    3    4 1
     7    3   25 1
     8    4    5 2
     9    4   15 1
    10    6    7 1
    11    6    9 1
    12    6    8 1
    13    8    9 1
    14    8   16 1
    15    8   17 1
    16    9   10 1
    17    9   11 1
    18   11   12 1
    19   11   18 1
    20   11   19 1
    21   12   13 1
    22   12   20 1
    23   12   21 1
    24   13   22 1
    25   13   23 1
    26   13   24 1
@<TRIPOS>MOLECULE
ZINC14979066
   23    24     0     0     0
SMALL
USER_CHARGES
4-(1H-imidazol-4-ylmethyl)benzonitrile
@<TRIPOS>ATOM
      1 C1         -1.9793    2.4772   -2.3571 C.ar      1 <0>        -0.1171
      2 C2         -2.7840    2.1398   -3.4255 C.ar      1 <0>        -0.0709
      3 C3         -3.7629    1.1555   -3.2746 C.ar      1 <0>        -0.0355
      4 C4         -3.9168    0.5159   -2.0430 C.ar      1 <0>        -0.0690
      5 C5         -3.1020    0.8598   -0.9843 C.ar      1 <0>        -0.0993
      6 C6         -2.1337    1.8357   -1.1409 C.ar      1 <0>        -0.0401
      7 C7         -1.2473    2.2060    0.0202 C.3       1 <0>        -0.0013
      8 C8         -0.0161    1.3371    0.0094 C.2       1 <0>         0.0034
      9 C9          1.2587    1.7711   -0.0004 C.2       1 <0>        -0.0503
     10 N1          2.0558    0.6583   -0.0140 N.pl3     1 <0>        -0.5735
     11 H1          3.0557    0.6447   -0.0236 H         1 <0>         0.4274
     12 C10         1.2397   -0.4176   -0.0120 C.2       1 <0>         0.1867
     13 N2          0.0021   -0.0041    0.0020 N.2       1 <0>        -0.4842
     14 C11        -4.6055    0.8040   -4.3779 C.1       1 <0>         0.2534
     15 N3         -5.2739    0.5252   -5.2531 N.1       1 <0>        -0.4190
     16 H2         -1.2245    3.2412   -2.4712 H         1 <0>         0.1309
     17 H3         -2.6597    2.6384   -4.3754 H         1 <0>         0.1309
     18 H4         -4.6717   -0.2465   -1.9196 H         1 <0>         0.1319
     19 H5         -3.2199    0.3659   -0.0311 H         1 <0>         0.1345
     20 H6         -1.7898    2.0559    0.9537 H         1 <0>         0.0890
     21 H7         -0.9544    3.2523   -0.0656 H         1 <0>         0.0891
     22 H8          1.5887    2.7994    0.0014 H         1 <0>         0.1761
     23 H9          1.5585   -1.4495   -0.0203 H         1 <0>         0.2071
@<TRIPOS>BOND
     1    1    6 ar
     2    1    2 ar
     3    1   16 1
     4    2    3 ar
     5    2   17 1
     6    3    4 ar
     7    3   14 1
     8    4    5 ar
     9    4   18 1
    10    5    6 ar
    11    5   19 1
    12    6    7 1
    13    7    8 1
    14    7   20 1
    15    7   21 1
    16    8   13 1
    17    8    9 2
    18    9   10 1
    19    9   22 1
    20   10   11 1
    21   10   12 1
    22   12   13 2
    23   12   23 1
    24   14   15 3
@<TRIPOS>MOLECULE
ZINC14979066
   24    25     0     0     0
SMALL
USER_CHARGES
4-(1H-imidazol-4-ylmethyl)benzonitrile
@<TRIPOS>ATOM
      1 C1         -1.9793    2.4772   -2.3571 C.ar      1 <0>        -0.1032
      2 C2         -2.7840    2.1398   -3.4255 C.ar      1 <0>        -0.0645
      3 C3         -3.7629    1.1555   -3.2746 C.ar      1 <0>        -0.0043
      4 C4         -3.9168    0.5159   -2.0430 C.ar      1 <0>        -0.0651
      5 C5         -3.1020    0.8598   -0.9843 C.ar      1 <0>        -0.1236
      6 C6         -2.1337    1.8357   -1.1409 C.ar      1 <0>        -0.0890
      7 C7         -1.2473    2.2060    0.0202 C.3       1 <0>        -0.0221
      8 C8         -0.0161    1.3371    0.0094 C.2       1 <0>         0.0386
      9 C9          1.2587    1.7711   -0.0004 C.2       1 <0>         0.0341
     10 N1          2.0558    0.6583   -0.0140 N.pl3     1 <0>        -0.5147
     11 H1          3.0557    0.6447   -0.0236 H         1 <0>         0.4759
     12 C10         1.2397   -0.4176   -0.0120 C.cat     1 <0>         0.3058
     13 C11        -4.6055    0.8040   -4.3779 C.1       1 <0>         0.2320
     14 N2         -5.2739    0.5252   -5.2531 N.1       1 <0>        -0.3850
     15 H2         -1.2245    3.2412   -2.4712 H         1 <0>         0.1392
     16 H3         -2.6597    2.6384   -4.3754 H         1 <0>         0.1412
     17 H4         -4.6717   -0.2465   -1.9196 H         1 <0>         0.1412
     18 H5         -3.2199    0.3659   -0.0311 H         1 <0>         0.1358
     19 H6         -1.7898    2.0559    0.9537 H         1 <0>         0.1152
     20 H7         -0.9544    3.2523   -0.0656 H         1 <0>         0.1249
     21 H8          1.5887    2.7994    0.0014 H         1 <0>         0.2261
     22 H9          1.5585   -1.4495   -0.0203 H         1 <0>         0.2644
     23 N3          0.0032   -0.0033    0.0020 N.pl3     1 <0>        -0.4817
     24 H10        -0.8259   -0.6090    0.0066 H         1 <0>         0.4788
@<TRIPOS>BOND
     1    1    6 ar
     2    1    2 ar
     3    1   15 1
     4    2    3 ar
     5    2   16 1
     6    3    4 ar
     7    3   13 1
     8    4    5 ar
     9    4   17 1
    10    5    6 ar
    11    5   18 1
    12    6    7 1
    13    7    8 1
    14    7   19 1
    15    7   20 1
    16    8    9 2
    17    8   23 1
    18    9   10 1
    19    9   21 1
    20   10   11 1
    21   10   12 1
    22   12   22 1
    23   12   23 2
    24   13   14 3
    25   23   24 1
@<TRIPOS>MOLECULE
ZINC34349848
   22    22     0     0     0
SMALL
USER_CHARGES

@<TRIPOS>ATOM
      1 C1         -0.0187    1.5258    0.0104 C.3       1 <0>        -0.1581
      2 C2          0.0021   -0.0041    0.0020 C.3       1 <0>        -0.1269
      3 C3          0.7182   -0.4975   -1.2568 C.3       1 <0>        -0.1200
      4 C4          0.7390   -2.0273   -1.2652 C.3       1 <0>        -0.0664
      5 C5          1.4443   -2.5133   -2.5051 C.2       1 <0>         0.0369
      6 C6          0.8853   -2.6830   -3.7185 C.2       1 <0>         0.0302
      7 N1          1.8741   -3.1344   -4.5504 N.pl3     1 <0>        -0.5088
      8 H1          1.7808   -3.3492   -5.4917 H         1 <0>         0.4676
      9 C7          3.0037   -3.2250   -3.8160 C.cat     1 <0>         0.3035
     10 N2          2.7403   -2.8472   -2.5949 N.pl3     1 <0>        -0.4755
     11 H2          1.0039    1.9031    0.0027 H         1 <0>         0.0552
     12 H3         -0.5459    1.8868   -0.8726 H         1 <0>         0.0568
     13 H4         -0.5289    1.8773    0.9072 H         1 <0>         0.0623
     14 H5          0.5293   -0.3651    0.8851 H         1 <0>         0.0670
     15 H6         -1.0205   -0.3814    0.0098 H         1 <0>         0.0697
     16 H7          0.1910   -0.1364   -2.1398 H         1 <0>         0.0738
     17 H8          1.7408   -0.1202   -1.2645 H         1 <0>         0.0665
     18 H9          1.2661   -2.3884   -0.3821 H         1 <0>         0.0964
     19 H10        -0.2836   -2.4046   -1.2575 H         1 <0>         0.1129
     20 H11        -0.1452   -2.4986   -3.9840 H         1 <0>         0.2262
     21 H12         3.9666   -3.5520   -4.1798 H         1 <0>         0.2661
     22 H13         3.3803   -2.8148   -1.8668 H         1 <0>         0.4646
@<TRIPOS>BOND
     1    1    2 1
     2    1   11 1
     3    1   12 1
     4    1   13 1
     5    2    3 1
     6    2   14 1
     7    2   15 1
     8    3    4 1
     9    3   16 1
    10    3   17 1
    11    4    5 1
    12    4   18 1
    13    4   19 1
    14    5   10 1
    15    5    6 2
    16    6    7 1
    17    6   20 1
    18    7    8 1
    19    7    9 1
    20    9   10 2
    21    9   21 1
    22   10   22 1
@<TRIPOS>MOLECULE
ZINC34349848
   21    21     0     0     0
SMALL
USER_CHARGES

@<TRIPOS>ATOM
      1 C1         -0.0187    1.5258    0.0104 C.3       1 <0>        -0.1534
      2 C2          0.0021   -0.0041    0.0020 C.3       1 <0>        -0.1259
      3 C3          0.7421   -0.5109    1.2415 C.3       1 <0>        -0.1107
      4 C4          0.7628   -2.0407    1.2331 C.3       1 <0>        -0.0353
      5 C5          1.4917   -2.5400    2.4540 C.2       1 <0>         0.0039
      6 C6          1.0099   -3.4088    3.3632 C.2       1 <0>        -0.0583
      7 N1          1.9922   -3.5874    4.2996 N.pl3     1 <0>        -0.5717
      8 C7          3.0408   -2.8210    3.9298 C.2       1 <0>         0.1841
      9 N2          2.7361   -2.2013    2.8225 N.2       1 <0>        -0.4896
     10 H1          1.9441   -4.1580    5.0826 H         1 <0>         0.4205
     11 H2          1.0039    1.9031    0.0027 H         1 <0>         0.0541
     12 H3         -0.5459    1.8868   -0.8726 H         1 <0>         0.0529
     13 H4         -0.5289    1.8773    0.9072 H         1 <0>         0.0524
     14 H5         -1.0205   -0.3814    0.0098 H         1 <0>         0.0599
     15 H6          0.5123   -0.3556   -0.8948 H         1 <0>         0.0615
     16 H7          1.7647   -0.1336    1.2338 H         1 <0>         0.0693
     17 H8          0.2319   -0.1594    2.1383 H         1 <0>         0.0577
     18 H9         -0.2598   -2.4180    1.2409 H         1 <0>         0.0725
     19 H10         1.2730   -2.3923    0.3363 H         1 <0>         0.0733
     20 H11         0.0356   -3.8748    3.3552 H         1 <0>         0.1752
     21 H12         3.9778   -2.7379    4.4604 H         1 <0>         0.2077
@<TRIPOS>BOND
     1    1    2 1
     2    1   11 1
     3    1   12 1
     4    1   13 1
     5    2    3 1
     6    2   14 1
     7    2   15 1
     8    3    4 1
     9    3   16 1
    10    3   17 1
    11    4    5 1
    12    4   18 1
    13    4   19 1
    14    5    9 1
    15    5    6 2
    16    6    7 1
    17    6   20 1
    18    7    8 1
    19    7   10 1
    20    8    9 2
    21    8   21 1
@<TRIPOS>MOLECULE
ZINC39124353
   61    65     0     0     0
SMALL
USER_CHARGES

@<TRIPOS>ATOM
      1 C1          2.5031   -1.9139    2.3524 C.3       1 <0>         0.0552
      2 N1          1.7497   -1.5416    1.1524 N.am      1 <0>        -0.5419
      3 C2          2.0168   -2.1516   -0.0259 C.2       1 <0>         0.5506
      4 O1          2.8758   -3.0098   -0.1123 O.2       1 <0>        -0.5004
      5 C3          1.2300   -1.7392   -1.1975 C.ar      1 <0>        -0.1582
      6 C4          1.4309   -2.3092   -2.4539 C.ar      1 <0>        -0.0789
      7 C5          0.6689   -1.8905   -3.5223 C.ar      1 <0>        -0.0874
      8 C6         -0.2972   -0.9064   -3.3603 C.ar      1 <0>        -0.1714
      9 C7         -0.5149   -0.3269   -2.1260 C.ar      1 <0>         0.1439
     10 C8          0.2493   -0.7375   -1.0234 C.ar      1 <0>         0.1224
     11 N2          0.0688   -0.1983    0.1983 N.2       1 <0>        -0.4849
     12 C9          0.7757   -0.5826    1.2305 C.2       1 <0>         0.4196
     13 C10         0.5153    0.0517    2.5381 C.ar      1 <0>        -0.0878
     14 C11         0.3026    1.4302    2.6179 C.ar      1 <0>        -0.0166
     15 C12         0.0599    2.0181    3.8399 C.ar      1 <0>        -0.2155
     16 C13         0.0265    1.2421    4.9920 C.ar      1 <0>         0.1415
     17 C14         0.2380   -0.1291    4.9169 C.ar      1 <0>        -0.1442
     18 C15         0.4751   -0.7257    3.6981 C.ar      1 <0>        -0.0510
     19 O2         -0.2130    1.8254    6.1944 O.3       1 <0>        -0.2949
     20 C16        -0.5409    3.2163    6.1869 C.3       1 <0>         0.0737
     21 C17         0.7462    4.0460    6.2006 C.3       1 <0>        -0.1773
     22 C18         0.3879    5.5319    6.2728 C.3       1 <0>        -0.0012
     23 N3         -0.3788    5.7952    7.4965 N.4       1 <0>        -0.3797
     24 C19        -1.6476    5.0583    7.4575 C.3       1 <0>        -0.0016
     25 C20        -1.3677    3.5541    7.4309 C.3       1 <0>        -0.1438
     26 C21        -0.6531    7.2345    7.6005 C.3       1 <0>        -0.0097
     27 C22         0.5127    8.0425    8.1947 C.3       1 <0>        -0.1477
     28 C23        -0.5442    8.8534    8.9630 C.3       1 <0>        -0.1349
     29 C24        -1.4558    7.6196    8.8545 C.3       1 <0>        -0.1486
     30 O3         -1.4632    0.6356   -1.9803 O.3       1 <0>        -0.2946
     31 C25        -2.2008    1.0016   -3.1482 C.3       1 <0>         0.0208
     32 H1          1.9701   -2.7005    2.8865 H         1 <0>         0.0797
     33 H2          3.4903   -2.2751    2.0641 H         1 <0>         0.0971
     34 H3          2.6095   -1.0432    2.9993 H         1 <0>         0.0905
     35 H4          2.1805   -3.0749   -2.5888 H         1 <0>         0.1433
     36 H5          0.8247   -2.3317   -4.4957 H         1 <0>         0.1410
     37 H6         -0.8850   -0.5905   -4.2094 H         1 <0>         0.1425
     38 H7          0.3287    2.0340    1.7229 H         1 <0>         0.1412
     39 H8         -0.1042    3.0837    3.9025 H         1 <0>         0.1325
     40 H9          0.2119   -0.7287    5.8149 H         1 <0>         0.1434
     41 H10         0.6346   -1.7923    3.6400 H         1 <0>         0.1440
     42 H11        -1.1172    3.4501    5.2917 H         1 <0>         0.0941
     43 H12         1.3457    3.7735    7.0692 H         1 <0>         0.1020
     44 H13         1.3138    3.8522    5.2905 H         1 <0>         0.1193
     45 H14         1.3020    6.1255    6.2826 H         1 <0>         0.1364
     46 H15        -0.2113    5.8033    5.4037 H         1 <0>         0.1306
     47 H16        -2.2363    5.3022    8.3419 H         1 <0>         0.1391
     48 H17        -2.2034    5.3398    6.5632 H         1 <0>         0.1319
     49 H18        -2.3110    3.0089    7.4002 H         1 <0>         0.1232
     50 H19        -0.8121    3.2714    8.3250 H         1 <0>         0.1010
     51 H20        -1.0538    7.6567    6.6789 H         1 <0>         0.1590
     52 H21         1.1666    7.4557    8.8397 H         1 <0>         0.1033
     53 H22         1.0597    8.6278    7.4556 H         1 <0>         0.1015
     54 H23        -0.2527    9.0922    9.9858 H         1 <0>         0.0963
     55 H24        -0.9142    9.7193    8.4141 H         1 <0>         0.1017
     56 H25        -2.4979    7.8635    8.6480 H         1 <0>         0.1022
     57 H26        -1.3399    6.9172    9.6798 H         1 <0>         0.1035
     58 H27        -1.5155    1.3782   -3.9076 H         1 <0>         0.0586
     59 H28        -2.7267    0.1284   -3.5343 H         1 <0>         0.0591
     60 H29        -2.9229    1.7774   -2.8936 H         1 <0>         0.1045
     61 H30         0.1570    5.4982    8.2983 H         1 <0>         0.4222
@<TRIPOS>BOND
     1    1    2 1
     2    1   32 1
     3    1   33 1
     4    1   34 1
     5    2   12 1
     6    2    3 am
     7    3    4 2
     8    3    5 1
     9    5   10 ar
    10    5    6 ar
    11    6    7 ar
    12    6   35 1
    13    7    8 ar
    14    7   36 1
    15    8    9 ar
    16    8   37 1
    17    9   10 ar
    18    9   30 1
    19   10   11 1
    20   11   12 2
    21   12   13 1
    22   13   18 ar
    23   13   14 ar
    24   14   15 ar
    25   14   38 1
    26   15   16 ar
    27   15   39 1
    28   16   17 ar
    29   16   19 1
    30   17   18 ar
    31   17   40 1
    32   18   41 1
    33   19   20 1
    34   20   25 1
    35   20   21 1
    36   20   42 1
    37   21   22 1
    38   21   43 1
    39   21   44 1
    40   22   23 1
    41   22   45 1
    42   22   46 1
    43   23   24 1
    44   23   26 1
    45   23   61 1
    46   24   25 1
    47   24   47 1
    48   24   48 1
    49   25   49 1
    50   25   50 1
    51   26   29 1
    52   26   27 1
    53   26   51 1
    54   27   28 1
    55   27   52 1
    56   27   53 1
    57   28   29 1
    58   28   54 1
    59   28   55 1
    60   29   56 1
    61   29   57 1
    62   30   31 1
    63   31   58 1
    64   31   59 1
    65   31   60 1
@<TRIPOS>MOLECULE
ZINC34045468
   47    48     0     0     0
SMALL
USER_CHARGES
1-[3-[3-(4-chlorophenyl)propoxy]propyl]piperidine
@<TRIPOS>ATOM
      1 C1          6.5292    7.9807    1.1800 C.ar      1 <0>        -0.1037
      2 C2          7.8612    8.3497    1.1699 C.ar      1 <0>        -0.1074
      3 C3          8.5159    8.5437   -0.0334 C.ar      1 <0>        -0.0364
      4 C4          7.8383    8.3626   -1.2259 C.ar      1 <0>        -0.1074
      5 C5          6.5079    7.9880   -1.2146 C.ar      1 <0>        -0.1038
      6 C6          5.8543    7.7944   -0.0120 C.ar      1 <0>        -0.0827
      7 C7          4.4037    7.3860   -0.0003 C.3       1 <0>        -0.0793
      8 C8          4.3036    5.8593   -0.0076 C.3       1 <0>        -0.1146
      9 C9          2.8309    5.4447    0.0043 C.3       1 <0>         0.0620
     10 O1          2.7374    4.0188   -0.0025 O.3       1 <0>        -0.3858
     11 C10         1.3968    3.5242    0.0076 C.3       1 <0>         0.0636
     12 C11         1.4175    1.9944   -0.0008 C.3       1 <0>        -0.1499
     13 C12        -0.0178    1.4648    0.0101 C.3       1 <0>        -0.0037
     14 N1          0.0021   -0.0041    0.0020 N.4       1 <0>        -0.3968
     15 C13         0.5594   -0.5159   -1.2565 C.3       1 <0>        -0.0101
     16 C14         0.6997   -2.0375   -1.1723 C.3       1 <0>        -0.1467
     17 C15        -0.6755   -2.6583   -0.9115 C.3       1 <0>        -0.1413
     18 C16        -1.2548   -2.0725    0.3791 C.3       1 <0>        -0.1471
     19 C17        -1.3384   -0.5499    0.2500 C.3       1 <0>        -0.0038
     20 Cl1        10.1870    9.0135   -0.0468 Cl        1 <0>        -0.0645
     21 H1          6.0169    7.8335    2.1193 H         1 <0>         0.1314
     22 H2          8.3896    8.4909    2.1012 H         1 <0>         0.1352
     23 H3          8.3490    8.5135   -2.1656 H         1 <0>         0.1352
     24 H4          5.9790    7.8463   -2.1455 H         1 <0>         0.1313
     25 H5          3.9189    7.7809    0.9047 H         1 <0>         0.0788
     26 H6          3.9016    7.7906   -0.8915 H         1 <0>         0.0787
     27 H7          4.7884    5.4644   -0.9126 H         1 <0>         0.0755
     28 H8          4.8057    5.4546    0.8836 H         1 <0>         0.0757
     29 H9          2.3461    5.8396    0.9093 H         1 <0>         0.0559
     30 H10         2.3288    5.8493   -0.8869 H         1 <0>         0.0556
     31 H11         0.8819    3.8790    0.9126 H         1 <0>         0.0600
     32 H12         0.8648    3.8886   -0.8836 H         1 <0>         0.0592
     33 H13         1.9323    1.6397   -0.9058 H         1 <0>         0.0954
     34 H14         1.9496    1.6300    0.8903 H         1 <0>         0.0965
     35 H15        -0.5326    1.8195    0.9152 H         1 <0>         0.1336
     36 H16        -0.5499    1.8292   -0.8810 H         1 <0>         0.1289
     37 H17        -0.1124   -0.2555   -2.0877 H         1 <0>         0.1258
     38 H18         1.5482   -0.0660   -1.4295 H         1 <0>         0.1322
     39 H19         1.1034   -2.4215   -2.1207 H         1 <0>         0.1120
     40 H20         1.3832   -2.2978   -0.3507 H         1 <0>         0.0885
     41 H21        -1.3458   -2.4315   -1.7537 H         1 <0>         0.0809
     42 H22        -0.5721   -3.7486   -0.8085 H         1 <0>         0.0946
     43 H23        -2.2608   -2.4836    0.5491 H         1 <0>         0.1124
     44 H24        -0.6035   -2.3352    1.2257 H         1 <0>         0.0887
     45 H25        -1.7408   -0.1249    1.1814 H         1 <0>         0.1307
     46 H26        -2.0013   -0.2893   -0.5883 H         1 <0>         0.1257
     47 H27         0.6571   -0.3396    0.8196 H         1 <0>         0.4410
@<TRIPOS>BOND
     1    1    6 ar
     2    1    2 ar
     3    1   21 1
     4    2    3 ar
     5    2   22 1
     6    3    4 ar
     7    3   20 1
     8    4    5 ar
     9    4   23 1
    10    5    6 ar
    11    5   24 1
    12    6    7 1
    13    7    8 1
    14    7   25 1
    15    7   26 1
    16    8    9 1
    17    8   27 1
    18    8   28 1
    19    9   10 1
    20    9   29 1
    21    9   30 1
    22   10   11 1
    23   11   12 1
    24   11   31 1
    25   11   32 1
    26   12   13 1
    27   12   33 1
    28   12   34 1
    29   13   14 1
    30   13   35 1
    31   13   36 1
    32   14   19 1
    33   14   15 1
    34   14   47 1
    35   15   16 1
    36   15   37 1
    37   15   38 1
    38   16   17 1
    39   16   39 1
    40   16   40 1
    41   17   18 1
    42   17   41 1
    43   17   42 1
    44   18   19 1
    45   18   43 1
    46   18   44 1
    47   19   45 1
    48   19   46 1
@<TRIPOS>MOLECULE
ZINC40893422
   67    71     0     0     0
SMALL
USER_CHARGES

@<TRIPOS>ATOM
      1 C1         -0.0187    1.5258    0.0104 C.3       1 <0>        -0.1797
      2 C2          0.0021   -0.0041    0.0020 C.3       1 <0>         0.0245
      3 H1          0.5000   -0.3635   -0.8985 H         1 <0>         0.1373
      4 C3         -1.4373   -0.5486    0.0584 C.3       1 <0>        -0.1413
      5 C4         -1.4939   -1.4078    1.3424 C.3       1 <0>        -0.1452
      6 C5         -0.0045   -1.7512    1.5954 C.3       1 <0>        -0.0065
      7 N1          0.7072   -0.5050    1.2018 N.4       1 <0>        -0.3950
      8 C6          2.1101   -0.7978    0.8794 C.3       1 <0>        -0.0013
      9 C7          2.8545   -1.1950    2.1558 C.3       1 <0>        -0.0985
     10 C8          4.2938   -1.4954    1.8251 C.ar      1 <0>        -0.1078
     11 C9          4.6664   -2.7812    1.4764 C.ar      1 <0>        -0.1055
     12 C10         5.9825   -3.0628    1.1725 C.ar      1 <0>        -0.1018
     13 C11         6.9383   -2.0472    1.2171 C.ar      1 <0>        -0.0139
     14 C12         6.5558   -0.7523    1.5692 C.ar      1 <0>        -0.1033
     15 C13         5.2356   -0.4829    1.8661 C.ar      1 <0>        -0.1056
     16 C14         8.3501   -2.3420    0.8932 C.2       1 <0>        -0.1156
     17 C15         8.7820   -2.7202   -0.2967 C.2       1 <0>        -0.1179
     18 C16        10.2770   -2.9400   -0.2810 C.3       1 <0>        -0.1013
     19 C17        10.6432   -3.0588    1.2140 C.3       1 <0>        -0.0996
     20 H2         10.7039   -4.0906    1.5602 H         1 <0>         0.1110
     21 C18         9.4932   -2.2446    1.8776 C.3       1 <0>        -0.0586
     22 H3          9.2292   -2.6122    2.8693 H         1 <0>         0.0992
     23 C19        10.0287   -0.8003    1.8834 C.3       1 <0>         0.1116
     24 N2         11.4924   -0.8882    1.9141 N.am      1 <0>        -0.6198
     25 C20        11.9187   -2.2537    1.4958 C.3       1 <0>         0.1137
     26 C21        12.3255    0.1093    2.2708 C.2       1 <0>         0.5333
     27 O1         13.5250   -0.0697    2.2609 O.2       1 <0>        -0.5269
     28 C22        11.7667    1.4471    2.6821 C.3       1 <0>        -0.1040
     29 C23        10.9638    2.0453    1.5228 C.3       1 <0>        -0.1538
     30 C24        10.4665    3.4372    1.9215 C.3       1 <0>         0.0637
     31 O2         11.5829    4.2594    2.2676 O.3       1 <0>        -0.3791
     32 C25        12.3435    3.7742    3.3759 C.3       1 <0>         0.0603
     33 C26        12.9161    2.3958    3.0357 C.3       1 <0>        -0.1381
     34 H4          1.0039    1.9031    0.0027 H         1 <0>         0.0794
     35 H5         -0.5459    1.8868   -0.8726 H         1 <0>         0.1064
     36 H6         -0.5289    1.8773    0.9072 H         1 <0>         0.0819
     37 H7         -2.1505    0.2733    0.1214 H         1 <0>         0.1061
     38 H8         -1.6438   -1.1634   -0.8176 H         1 <0>         0.1041
     39 H9         -1.9038   -0.8333    2.1731 H         1 <0>         0.0977
     40 H10        -2.0757   -2.3142    1.1746 H         1 <0>         0.1166
     41 H11         0.1651   -1.9754    2.6485 H         1 <0>         0.1350
     42 H12         0.3100   -2.5852    0.9680 H         1 <0>         0.1332
     43 H13         2.1548   -1.6178    0.1627 H         1 <0>         0.1297
     44 H14         2.5762    0.0879    0.4477 H         1 <0>         0.1295
     45 H15         2.8099   -0.3750    2.8725 H         1 <0>         0.0938
     46 H16         2.3884   -2.0807    2.5875 H         1 <0>         0.0938
     47 H17         3.9256   -3.5664    1.4422 H         1 <0>         0.1250
     48 H18         6.2722   -4.0672    0.9011 H         1 <0>         0.1300
     49 H19         7.2909    0.0381    1.6054 H         1 <0>         0.1277
     50 H20         4.9376    0.5197    2.1351 H         1 <0>         0.1255
     51 H21         8.1518   -2.8545   -1.1634 H         1 <0>         0.1315
     52 H22        10.5307   -3.8598   -0.8080 H         1 <0>         0.0842
     53 H23        10.7901   -2.0901   -0.7309 H         1 <0>         0.0868
     54 H24         9.7057   -0.2799    0.9817 H         1 <0>         0.0727
     55 H25         9.6687   -0.2732    2.7670 H         1 <0>         0.0744
     56 H26        12.4894   -2.7343    2.2904 H         1 <0>         0.0755
     57 H27        12.5244   -2.1950    0.5915 H         1 <0>         0.0778
     58 H28        11.1185    1.3205    3.5492 H         1 <0>         0.0966
     59 H29        11.6003    2.1244    0.6415 H         1 <0>         0.0792
     60 H30        10.1111    1.4036    1.3010 H         1 <0>         0.0796
     61 H31         9.9307    3.8852    1.0847 H         1 <0>         0.0970
     62 H32         9.7978    3.3528    2.7781 H         1 <0>         0.0512
     63 H33        13.1598    4.4650    3.5868 H         1 <0>         0.1020
     64 H34        11.6993    3.6942    4.2516 H         1 <0>         0.0522
     65 H35        13.4597    2.0048    3.8958 H         1 <0>         0.0830
     66 H36        13.5921    2.4820    2.1849 H         1 <0>         0.0829
     67 H37         0.6542    0.1747    1.9456 H         1 <0>         0.4236
@<TRIPOS>BOND
     1    1    2 1
     2    1   34 1
     3    1   35 1
     4    1   36 1
     5    2    3 1
     6    2    7 1
     7    2    4 1
     8    4    5 1
     9    4   37 1
    10    4   38 1
    11    5    6 1
    12    5   39 1
    13    5   40 1
    14    6    7 1
    15    6   41 1
    16    6   42 1
    17    7    8 1
    18    7   67 1
    19    8    9 1
    20    8   43 1
    21    8   44 1
    22    9   10 1
    23    9   45 1
    24    9   46 1
    25   10   15 ar
    26   10   11 ar
    27   11   12 ar
    28   11   47 1
    29   12   13 ar
    30   12   48 1
    31   13   14 ar
    32   13   16 1
    33   14   15 ar
    34   14   49 1
    35   15   50 1
    36   16   21 1
    37   16   17 2
    38   17   18 1
    39   17   51 1
    40   18   19 1
    41   18   52 1
    42   18   53 1
    43   19   20 1
    44   19   25 1
    45   19   21 1
    46   21   22 1
    47   21   23 1
    48   23   24 1
    49   23   54 1
    50   23   55 1
    51   24   25 1
    52   24   26 am
    53   25   56 1
    54   25   57 1
    55   26   27 2
    56   26   28 1
    57   28   33 1
    58   28   29 1
    59   28   58 1
    60   29   30 1
    61   29   59 1
    62   29   60 1
    63   30   31 1
    64   30   61 1
    65   30   62 1
    66   31   32 1
    67   32   33 1
    68   32   63 1
    69   32   64 1
    70   33   65 1
    71   33   66 1
@<TRIPOS>MOLECULE
ZINC14979038
   22    23     0     0     0
SMALL
USER_CHARGES
4-benzyl-1H-imidazole
@<TRIPOS>ATOM
      1 C1         -1.2190    1.7506    0.0173 C.ar      1 <0>        -0.1252
      2 C2         -0.0126    1.0758    0.0080 C.ar      1 <0>        -0.1211
      3 C3          1.1750    1.7832    0.0004 C.ar      1 <0>        -0.0985
      4 C4          1.1563    3.1654    0.0076 C.ar      1 <0>        -0.0717
      5 C5         -0.0501    3.8402    0.0228 C.ar      1 <0>        -0.1169
      6 C6         -1.2377    3.1328    0.0299 C.ar      1 <0>        -0.1231
      7 C7          2.4510    3.9366   -0.0006 C.3       1 <0>         0.0026
      8 C8          2.8692    4.2009   -1.4241 C.2       1 <0>         0.0075
      9 C9          3.1352    5.4075   -1.9597 C.2       1 <0>        -0.0540
     10 N1          3.4782    5.1933   -3.2675 N.pl3     1 <0>        -0.5739
     11 H1          3.7375    5.8914   -3.9349 H         1 <0>         0.4265
     12 C10         3.4010    3.8633   -3.4880 C.2       1 <0>         0.1845
     13 N2          3.0363    3.2761   -2.3811 N.2       1 <0>        -0.4840
     14 H2         -2.1469    1.1980    0.0188 H         1 <0>         0.1189
     15 H3          0.0021   -0.0041    0.0020 H         1 <0>         0.1201
     16 H4          2.1175    1.2560   -0.0115 H         1 <0>         0.1215
     17 H5         -0.0647    4.9201    0.0288 H         1 <0>         0.1177
     18 H6         -2.1802    3.6600    0.0414 H         1 <0>         0.1190
     19 H7          2.3126    4.8845    0.5194 H         1 <0>         0.0840
     20 H8          3.2233    3.3553    0.5031 H         1 <0>         0.0840
     21 H9          3.0887    6.3607   -1.4541 H         1 <0>         0.1753
     22 H10         3.6074    3.3676   -4.4251 H         1 <0>         0.2068
@<TRIPOS>BOND
     1    1    6 ar
     2    1    2 ar
     3    1   14 1
     4    2    3 ar
     5    2   15 1
     6    3    4 ar
     7    3   16 1
     8    4    5 ar
     9    4    7 1
    10    5    6 ar
    11    5   17 1
    12    6   18 1
    13    7    8 1
    14    7   19 1
    15    7   20 1
    16    8   13 1
    17    8    9 2
    18    9   10 1
    19    9   21 1
    20   10   11 1
    21   10   12 1
    22   12   13 2
    23   12   22 1
@<TRIPOS>MOLECULE
ZINC14979038
   23    24     0     0     0
SMALL
USER_CHARGES
5-benzyl-1H-imidazole
@<TRIPOS>ATOM
      1 C1         -4.0067    1.1786    4.0361 C.ar      1 <0>        -0.1064
      2 C2         -4.1370    2.3349    3.2899 C.ar      1 <0>        -0.1132
      3 C3         -3.6682    2.3751    1.9900 C.ar      1 <0>        -0.1083
      4 C4         -3.0693    1.2589    1.4365 C.ar      1 <0>        -0.1083
      5 C5         -2.9438    0.1010    2.1810 C.ar      1 <0>        -0.1143
      6 C6         -3.4078    0.0625    3.4826 C.ar      1 <0>        -0.1141
      7 C7         -2.5587    1.3026    0.0193 C.3       1 <0>        -0.0191
      8 C8         -1.1238    1.7630    0.0163 C.2       1 <0>         0.0567
      9 C9         -0.6897    3.0378    0.0250 C.2       1 <0>        -0.0099
     10 N1          0.6514    3.0196    0.0121 N.pl3     1 <0>        -0.4940
     11 C10         1.0649    1.7819    0.0015 C.cat     1 <0>         0.3173
     12 N2         -0.0111    0.9658    0.0074 N.pl3     1 <0>        -0.5302
     13 H1         -0.1188   -0.1289    0.0063 H         1 <0>         0.5018
     14 H2         -4.3733    1.1471    5.0516 H         1 <0>         0.1293
     15 H3         -4.6052    3.2068    3.7222 H         1 <0>         0.1296
     16 H4         -3.7703    3.2783    1.4069 H         1 <0>         0.1258
     17 H5         -2.4798   -0.7724    1.7470 H         1 <0>         0.1205
     18 H6         -3.3064   -0.8410    4.0655 H         1 <0>         0.1285
     19 H7         -2.6224    0.2981   -0.4245 H         1 <0>         0.1048
     20 H8         -3.1697    2.0029   -0.5692 H         1 <0>         0.1205
     21 H9         -1.3123    3.9202    0.0351 H         1 <0>         0.2169
     22 H10         2.0967    1.4630   -0.0107 H         1 <0>         0.2596
     23 H11         1.2143    3.9647    0.0118 H         1 <0>         0.5063
@<TRIPOS>BOND
     1    1    6 ar
     2    1    2 ar
     3    1   14 1
     4    2    3 ar
     5    2   15 1
     6    3    4 ar
     7    3   16 1
     8    4    5 ar
     9    4    7 1
    10    5    6 ar
    11    5   17 1
    12    6   18 1
    13    7    8 1
    14    7   19 1
    15    7   20 1
    16    8   12 1
    17    8    9 2
    18    9   10 1
    19    9   21 1
    20   10   11 2
    21   10   23 1
    22   11   12 1
    23   11   22 1
    24   12   13 1
