@<TRIPOS>MOLECULE
ZINC25338213
   59    62     0     0     0
SMALL
USER_CHARGES
(4-benzylpiperazin-1-yl)-[1-(4-pyridylmethyl)-4-piperidyl]methanone
@<TRIPOS>ATOM
      1 C1          2.1268   -0.6931   11.1059 C.ar      1 <0>        -0.1158
      2 C2          2.7175    0.2932   10.3384 C.ar      1 <0>        -0.1205
      3 C3          2.0041    1.4290   10.0040 C.ar      1 <0>        -0.1189
      4 C4          0.7000    1.5787   10.4376 C.ar      1 <0>        -0.0842
      5 C5          0.1112    0.5950   11.2099 C.ar      1 <0>        -0.0964
      6 C6          0.8229   -0.5432   11.5399 C.ar      1 <0>        -0.1172
      7 C7         -0.0776    2.8172   10.0735 C.3       1 <0>         0.0934
      8 N1         -0.7843    2.5962    8.8047 N.3       1 <0>        -0.5304
      9 C8         -1.7356    3.6829    8.5358 C.3       1 <0>         0.0390
     10 C9         -2.5771    3.3277    7.3054 C.3       1 <0>         0.1122
     11 N2         -1.6682    3.0076    6.1943 N.am      1 <0>        -0.6064
     12 C10        -0.6031    2.0209    6.4287 C.3       1 <0>         0.1067
     13 C11         0.1644    2.4318    7.6953 C.3       1 <0>         0.0347
     14 C12        -1.8110    3.5988    4.9915 C.2       1 <0>         0.5179
     15 O1         -2.6346    4.4763    4.8411 O.2       1 <0>        -0.5297
     16 C13        -0.9474    3.1693    3.8336 C.3       1 <0>        -0.1250
     17 C14         0.2737    4.0882    3.7376 C.3       1 <0>        -0.1372
     18 C15         1.1148    3.6856    2.5241 C.3       1 <0>         0.0009
     19 N3          0.3019    3.7933    1.3060 N.4       1 <0>        -0.3982
     20 C16        -0.8509    2.8850    1.3549 C.3       1 <0>        -0.0082
     21 C17        -1.7508    3.2637    2.5335 C.3       1 <0>        -0.1293
     22 C18         1.1147    3.5482    0.1072 C.3       1 <0>         0.0453
     23 C19         0.2134    3.4232   -1.0940 C.ar      1 <0>        -0.1087
     24 C20        -0.2891    2.1896   -1.4791 C.ar      1 <0>        -0.1545
     25 C21        -1.1162    2.1144   -2.5837 C.ar      1 <0>         0.1137
     26 N4         -1.4204    3.1963   -3.2735 N.ar      1 <0>        -0.4587
     27 C22        -0.9572    4.3849   -2.9392 C.ar      1 <0>         0.1160
     28 C23        -0.1286    4.5382   -1.8438 C.ar      1 <0>        -0.1508
     29 H1          2.6841   -1.5806   11.3669 H         1 <0>         0.1234
     30 H2          3.7364    0.1763    9.9997 H         1 <0>         0.1220
     31 H3          2.4656    2.1996    9.4044 H         1 <0>         0.1156
     32 H4         -0.9061    0.7140   11.5523 H         1 <0>         0.1234
     33 H5          0.3616   -1.3136   12.1398 H         1 <0>         0.1245
     34 H6         -0.8076    3.0381   10.8662 H         1 <0>         0.0903
     35 H7          0.6140    3.6657    9.9651 H         1 <0>         0.0460
     36 H8         -2.3948    3.8169    9.4062 H         1 <0>         0.0959
     37 H9         -1.1834    4.6153    8.3471 H         1 <0>         0.0408
     38 H10        -3.2115    2.4585    7.5336 H         1 <0>         0.0834
     39 H11        -3.2122    4.1844    7.0357 H         1 <0>         0.1014
     40 H12        -1.0495    1.0248    6.5644 H         1 <0>         0.0855
     41 H13         0.0770    2.0032    5.5644 H         1 <0>         0.0852
     42 H14         0.6881    3.3825    7.5168 H         1 <0>         0.0380
     43 H15         0.8969    1.6522    7.9517 H         1 <0>         0.0988
     44 H16        -0.6266    2.1312    4.0050 H         1 <0>         0.1109
     45 H17        -0.0597    5.1304    3.6254 H         1 <0>         0.1001
     46 H18         0.8773    3.9927    4.6523 H         1 <0>         0.1160
     47 H19         1.9853    4.3532    2.4436 H         1 <0>         0.1387
     48 H20         1.4586    2.6477    2.6443 H         1 <0>         0.1307
     49 H21        -1.4213    2.9658    0.4178 H         1 <0>         0.1352
     50 H22        -0.4978    1.8509    1.4812 H         1 <0>         0.1288
     51 H23        -2.6064    2.5739    2.5803 H         1 <0>         0.1156
     52 H24        -2.1163    4.2929    2.4022 H         1 <0>         0.1033
     53 H25         1.8102    4.3872   -0.0420 H         1 <0>         0.1442
     54 H26         1.6858    2.6169    0.2355 H         1 <0>         0.1389
     55 H27        -0.0399    1.2993   -0.9209 H         1 <0>         0.1444
     56 H28        -1.5144    1.1578   -2.8882 H         1 <0>         0.1691
     57 H29        -1.2283    5.2485   -3.5285 H         1 <0>         0.1696
     58 H30         0.2481    5.5142   -1.5755 H         1 <0>         0.1463
     59 H31        -0.0838    4.8219    1.2504 H         1 <0>         0.4439
@<TRIPOS>BOND
     1    1    6 ar
     2    1    2 ar
     3    1   29 1
     4    2    3 ar
     5    2   30 1
     6    3    4 ar
     7    3   31 1
     8    4    5 ar
     9    4    7 1
    10    5    6 ar
    11    5   32 1
    12    6   33 1
    13    7    8 1
    14    7   34 1
    15    7   35 1
    16    8   13 1
    17    8    9 1
    18    9   10 1
    19    9   36 1
    20    9   37 1
    21   10   11 1
    22   10   38 1
    23   10   39 1
    24   11   12 1
    25   11   14 am
    26   12   13 1
    27   12   40 1
    28   12   41 1
    29   13   42 1
    30   13   43 1
    31   14   15 2
    32   14   16 1
    33   16   21 1
    34   16   17 1
    35   16   44 1
    36   17   18 1
    37   17   45 1
    38   17   46 1
    39   18   19 1
    40   18   47 1
    41   18   48 1
    42   19   20 1
    43   19   22 1
    44   19   59 1
    45   20   21 1
    46   20   49 1
    47   20   50 1
    48   21   51 1
    49   21   52 1
    50   22   23 1
    51   22   53 1
    52   22   54 1
    53   23   28 ar
    54   23   24 ar
    55   24   25 ar
    56   24   55 1
    57   25   26 ar
    58   25   56 1
    59   26   27 ar
    60   27   28 ar
    61   27   57 1
    62   28   58 1
@<TRIPOS>MOLECULE
ZINC14828480
   40    41     0     0     0
SMALL
USER_CHARGES

@<TRIPOS>ATOM
      1 C1         -8.2828    2.3236    2.4537 C.3       1 <0>         0.0241
      2 O1         -7.0055    2.3355    1.8131 O.3       1 <0>        -0.3031
      3 C2         -6.5192    1.1409    1.3843 C.ar      1 <0>         0.1572
      4 C3         -7.2587   -0.0178    1.5710 C.ar      1 <0>        -0.2042
      5 C4         -6.7623   -1.2308    1.1344 C.ar      1 <0>        -0.0471
      6 C5         -5.5293   -1.2910    0.5114 C.ar      1 <0>        -0.1171
      7 C6         -4.7898   -0.1382    0.3237 C.ar      1 <0>        -0.0379
      8 C7         -5.2844    1.0790    0.7536 C.ar      1 <0>        -0.1291
      9 Br1        -4.2764    2.6570    0.4893 Br        1 <0>        -0.0357
     10 C8         -4.9904   -2.6159    0.0366 C.3       1 <0>        -0.0560
     11 C9         -5.4377   -2.8611   -1.3814 C.2       1 <0>         0.1093
     12 N1         -4.7509   -2.3843   -2.3673 N.2       1 <0>        -0.2904
     13 O2         -3.5163   -1.7358   -2.1220 O.3       1 <0>        -0.3866
     14 C10        -6.6599   -3.6455   -1.6446 C.2       1 <0>         0.5765
     15 O3         -7.3057   -4.0938   -0.7175 O.2       1 <0>        -0.5134
     16 N2         -7.0599   -3.8648   -2.9128 N.am      1 <0>        -0.7113
     17 C11        -8.2730   -4.6434   -3.1740 C.3       1 <0>         0.1253
     18 C12        -8.5001   -4.7428   -4.6838 C.3       1 <0>        -0.0439
     19 C13        -9.7480   -5.5437   -4.9525 C.2       1 <0>         0.0007
     20 C14       -10.8020   -5.1435   -5.6891 C.2       1 <0>        -0.0474
     21 N3        -11.7078   -6.1696   -5.6746 N.pl3     1 <0>        -0.5700
     22 H1        -12.5709   -6.1817   -6.1171 H         1 <0>         0.4223
     23 C15       -11.1755   -7.1619   -4.9292 C.2       1 <0>         0.1894
     24 N4        -10.0012   -6.7825   -4.5048 N.2       1 <0>        -0.4873
     25 H2         -8.5522    3.3386    2.7458 H         1 <0>         0.1048
     26 H3         -9.0314    1.9331    1.7644 H         1 <0>         0.0583
     27 H4         -8.2391    1.6901    3.3397 H         1 <0>         0.0592
     28 H5         -8.2217    0.0283    2.0578 H         1 <0>         0.1386
     29 H6         -7.3378   -2.1330    1.2800 H         1 <0>         0.1399
     30 H7         -3.8269   -0.1879   -0.1628 H         1 <0>         0.1435
     31 H8         -3.9012   -2.6005    0.0765 H         1 <0>         0.1011
     32 H9         -5.3663   -3.4123    0.6790 H         1 <0>         0.1047
     33 H10        -3.0761   -1.4130   -2.9202 H         1 <0>         0.4102
     34 H11        -6.5445   -3.5070   -3.6526 H         1 <0>         0.4089
     35 H12        -8.1593   -5.6440   -2.7570 H         1 <0>         0.0830
     36 H13        -9.1276   -4.1513   -2.7097 H         1 <0>         0.0713
     37 H14        -8.6138   -3.7421   -5.1008 H         1 <0>         0.0823
     38 H15        -7.6455   -5.2349   -5.1481 H         1 <0>         0.0832
     39 H16       -10.9116   -4.1950   -6.1938 H         1 <0>         0.1772
     40 H17       -11.6424   -8.1134   -4.7220 H         1 <0>         0.2095
@<TRIPOS>BOND
     1    1    2 1
     2    1   25 1
     3    1   26 1
     4    1   27 1
     5    2    3 1
     6    3    8 ar
     7    3    4 ar
     8    4    5 ar
     9    4   28 1
    10    5    6 ar
    11    5   29 1
    12    6    7 ar
    13    6   10 1
    14    7    8 ar
    15    7   30 1
    16    8    9 1
    17   10   11 1
    18   10   31 1
    19   10   32 1
    20   11   12 2
    21   11   14 1
    22   12   13 1
    23   13   33 1
    24   14   15 2
    25   14   16 am
    26   16   17 1
    27   16   34 1
    28   17   18 1
    29   17   35 1
    30   17   36 1
    31   18   19 1
    32   18   37 1
    33   18   38 1
    34   19   24 1
    35   19   20 2
    36   20   21 1
    37   20   39 1
    38   21   22 1
    39   21   23 1
    40   23   24 2
    41   23   40 1
@<TRIPOS>MOLECULE
ZINC14828480
   40    41     0     0     0
SMALL
USER_CHARGES

@<TRIPOS>ATOM
      1 C1         -0.0594    1.3613    0.2334 C.3       1 <0>         0.0244
      2 O1         -0.0439   -0.0670    0.1942 O.3       1 <0>        -0.3029
      3 C2         -1.2479   -0.6964    0.1559 C.ar      1 <0>         0.1584
      4 C3         -2.4200    0.0456    0.1503 C.ar      1 <0>        -0.2011
      5 C4         -3.6426   -0.5963    0.1114 C.ar      1 <0>        -0.0478
      6 C5         -3.6993   -1.9775    0.0780 C.ar      1 <0>        -0.1127
      7 C6         -2.5331   -2.7200    0.0834 C.ar      1 <0>        -0.0368
      8 C7         -1.3069   -2.0825    0.1165 C.ar      1 <0>        -0.1243
      9 Br1         0.2882   -3.0981    0.1155 Br        1 <0>        -0.0344
     10 C8         -5.0346   -2.6748    0.0361 C.3       1 <0>        -0.0223
     11 C9         -5.4525   -2.8739   -1.3980 C.2       1 <0>         0.0861
     12 N1         -4.6894   -2.4623   -2.3567 N.2       1 <0>        -0.2553
     13 O2         -5.0270   -2.7467   -3.7022 O.3       1 <0>        -0.3622
     14 C10        -6.7332   -3.5390   -1.7080 C.2       1 <0>         0.5245
     15 O3         -7.0269   -3.7846   -2.8616 O.2       1 <0>        -0.4977
     16 N2         -7.5770   -3.8739   -0.7118 N.am      1 <0>        -0.7250
     17 C11        -8.7947   -4.6328   -1.0074 C.3       1 <0>         0.1225
     18 C12        -9.5692   -4.8795    0.2888 C.3       1 <0>        -0.0528
     19 C13       -10.8219   -5.6602   -0.0153 C.2       1 <0>        -0.0295
     20 C14       -10.9278   -6.9985   -0.1218 C.2       1 <0>        -0.0128
     21 N3        -12.2066   -7.2927   -0.3995 N.2       1 <0>        -0.4934
     22 H1        -12.3184   -4.2075   -0.2167 H         1 <0>         0.4198
     23 C15       -12.8971   -6.1876   -0.4691 C.2       1 <0>         0.1903
     24 N4        -12.0719   -5.1456   -0.2304 N.pl3     1 <0>        -0.5666
     25 H2          0.9641    1.7352    0.2615 H         1 <0>         0.1051
     26 H3         -0.5617    1.7438   -0.6552 H         1 <0>         0.0585
     27 H4         -0.5925    1.6946    1.1238 H         1 <0>         0.0587
     28 H5         -2.3767    1.1244    0.1767 H         1 <0>         0.1374
     29 H6         -4.5552   -0.0187    0.1074 H         1 <0>         0.1304
     30 H7         -2.5800   -3.7986    0.0577 H         1 <0>         0.1375
     31 H8         -4.9543   -3.6436    0.5290 H         1 <0>         0.1104
     32 H9         -5.7786   -2.0661    0.5501 H         1 <0>         0.1063
     33 H10        -4.3969   -2.3984   -4.3478 H         1 <0>         0.4016
     34 H11        -7.3779   -3.6126    0.2008 H         1 <0>         0.4026
     35 H12        -9.4169   -4.0660   -1.7001 H         1 <0>         0.0689
     36 H13        -8.5269   -5.5884   -1.4582 H         1 <0>         0.0774
     37 H14        -8.9470   -5.4463    0.9815 H         1 <0>         0.0977
     38 H15        -9.8370   -3.9239    0.7395 H         1 <0>         0.0789
     39 H16       -10.1239   -7.7101   -0.0043 H         1 <0>         0.1705
     40 H17       -13.9542   -6.1180   -0.6793 H         1 <0>         0.2097
@<TRIPOS>BOND
     1    1    2 1
     2    1   25 1
     3    1   26 1
     4    1   27 1
     5    2    3 1
     6    3    8 ar
     7    3    4 ar
     8    4    5 ar
     9    4   28 1
    10    5    6 ar
    11    5   29 1
    12    6    7 ar
    13    6   10 1
    14    7    8 ar
    15    7   30 1
    16    8    9 1
    17   10   11 1
    18   10   31 1
    19   10   32 1
    20   11   12 2
    21   11   14 1
    22   12   13 1
    23   13   33 1
    24   14   15 2
    25   14   16 am
    26   16   17 1
    27   16   34 1
    28   17   18 1
    29   17   35 1
    30   17   36 1
    31   18   37 1
    32   18   38 1
    33   18   19 1
    34   19   20 2
    35   19   24 1
    36   20   21 1
    37   20   39 1
    38   21   23 2
    39   22   24 1
    40   23   40 1
    41   23   24 1
@<TRIPOS>MOLECULE
ZINC14828480
   41    42     0     0     0
SMALL
USER_CHARGES

@<TRIPOS>ATOM
      1 C1          0.1989    1.3665   -0.0652 C.3       1 <0>         0.0235
      2 O1          0.1930   -0.0625   -0.0540 O.3       1 <0>        -0.3014
      3 C2          0.7773   -0.6736    1.0101 C.ar      1 <0>         0.1627
      4 C3          1.3396    0.0863    2.0253 C.ar      1 <0>        -0.2008
      5 C4          1.9330   -0.5371    3.1058 C.ar      1 <0>        -0.0474
      6 C5          1.9670   -1.9177    3.1764 C.ar      1 <0>        -0.1204
      7 C6          1.4076   -2.6780    2.1664 C.ar      1 <0>        -0.0370
      8 C7          0.8075   -2.0592    1.0857 C.ar      1 <0>        -0.1257
      9 Br1         0.0350   -3.0993   -0.2917 Br        1 <0>        -0.0307
     10 C8          2.6156   -2.5948    4.3563 C.3       1 <0>        -0.0191
     11 C9          1.5877   -2.8160    5.4359 C.2       1 <0>         0.0790
     12 N1          0.3659   -2.4356    5.2529 N.2       1 <0>        -0.2441
     13 O2         -0.6231   -2.7415    6.2189 O.3       1 <0>        -0.3624
     14 C10         1.9760   -3.4671    6.7023 C.2       1 <0>         0.5308
     15 O3          1.1301   -3.7312    7.5343 O.2       1 <0>        -0.4935
     16 N2          3.2686   -3.7689    6.9362 N.am      1 <0>        -0.7303
     17 C11         3.6402   -4.5145    8.1413 C.3       1 <0>         0.1202
     18 C12         5.1558   -4.7232    8.1648 C.3       1 <0>        -0.0759
     19 C13         5.5381   -5.4901    9.4044 C.2       1 <0>         0.0323
     20 C14         5.7620   -4.9632   10.6234 C.2       1 <0>         0.0421
     21 N3          6.0796   -6.0048   11.4528 N.pl3     1 <0>        -0.5090
     22 H1          6.2941   -5.9441   12.3968 H         1 <0>         0.4691
     23 C15         6.0387   -7.1327   10.7113 C.cat     1 <0>         0.3109
     24 N4          5.7092   -6.8178    9.4884 N.pl3     1 <0>        -0.4740
     25 H2          1.2279    1.7257   -0.0498 H         1 <0>         0.0598
     26 H3         -0.2976    1.7248   -0.9669 H         1 <0>         0.1073
     27 H4         -0.3291    1.7388    0.8127 H         1 <0>         0.0594
     28 H5          1.3137    1.1646    1.9708 H         1 <0>         0.1388
     29 H6          2.3711    0.0544    3.8962 H         1 <0>         0.1301
     30 H7          1.4358   -3.7561    2.2237 H         1 <0>         0.1359
     31 H8          3.0265   -3.5547    4.0437 H         1 <0>         0.1076
     32 H9          3.4171   -1.9645    4.7415 H         1 <0>         0.1053
     33 H10        -1.5057   -2.4161    5.9948 H         1 <0>         0.4069
     34 H11         3.9528   -3.4925    6.3066 H         1 <0>         0.4068
     35 H12         3.3372   -3.9520    9.0244 H         1 <0>         0.0805
     36 H13         3.1401   -5.4830    8.1380 H         1 <0>         0.0730
     37 H14         5.4588   -5.2856    7.2817 H         1 <0>         0.1061
     38 H15         5.6559   -3.7547    8.1681 H         1 <0>         0.1216
     39 H16         5.7028   -3.9195   10.8944 H         1 <0>         0.2282
     40 H17         6.2410   -8.1305   11.0715 H         1 <0>         0.2679
     41 H18         5.6062   -7.4447    8.7555 H         1 <0>         0.4658
@<TRIPOS>BOND
     1    1    2 1
     2    1   25 1
     3    1   26 1
     4    1   27 1
     5    2    3 1
     6    3    8 ar
     7    3    4 ar
     8    4    5 ar
     9    4   28 1
    10    5    6 ar
    11    5   29 1
    12    6    7 ar
    13    6   10 1
    14    7    8 ar
    15    7   30 1
    16    8    9 1
    17   10   11 1
    18   10   31 1
    19   10   32 1
    20   11   12 2
    21   11   14 1
    22   12   13 1
    23   13   33 1
    24   14   15 2
    25   14   16 am
    26   16   17 1
    27   16   34 1
    28   17   18 1
    29   17   35 1
    30   17   36 1
    31   18   19 1
    32   18   37 1
    33   18   38 1
    34   19   24 1
    35   19   20 2
    36   20   21 1
    37   20   39 1
    38   21   22 1
    39   21   23 1
    40   23   24 2
    41   23   40 1
    42   24   41 1
@<TRIPOS>MOLECULE
ZINC14828480
   40    41     0     0     0
SMALL
USER_CHARGES

@<TRIPOS>ATOM
      1 C1         -8.2828    2.3236    2.4537 C.3       1 <0>         0.0238
      2 O1         -7.0055    2.3355    1.8131 O.3       1 <0>        -0.3028
      3 C2         -6.5192    1.1409    1.3843 C.ar      1 <0>         0.1583
      4 C3         -7.2587   -0.0178    1.5710 C.ar      1 <0>        -0.2040
      5 C4         -6.7623   -1.2308    1.1344 C.ar      1 <0>        -0.0471
      6 C5         -5.5293   -1.2910    0.5114 C.ar      1 <0>        -0.1188
      7 C6         -4.7898   -0.1382    0.3237 C.ar      1 <0>        -0.0378
      8 C7         -5.2844    1.0790    0.7536 C.ar      1 <0>        -0.1292
      9 Br1        -4.2764    2.6570    0.4893 Br        1 <0>        -0.0348
     10 C8         -4.9904   -2.6159    0.0366 C.3       1 <0>        -0.0554
     11 C9         -5.4377   -2.8611   -1.3814 C.2       1 <0>         0.1082
     12 N1         -4.7509   -2.3843   -2.3673 N.2       1 <0>        -0.2900
     13 O2         -3.5163   -1.7358   -2.1220 O.3       1 <0>        -0.3848
     14 C10        -6.6599   -3.6455   -1.6446 C.2       1 <0>         0.5783
     15 O3         -7.3057   -4.0938   -0.7175 O.2       1 <0>        -0.5115
     16 N2         -7.0599   -3.8648   -2.9128 N.am      1 <0>        -0.7128
     17 C11        -8.2730   -4.6434   -3.1740 C.3       1 <0>         0.1215
     18 C12        -8.5001   -4.7428   -4.6838 C.3       1 <0>        -0.0539
     19 C13        -9.7480   -5.5437   -4.9525 C.2       1 <0>        -0.0291
     20 C14       -11.0115   -5.0781   -4.9747 C.2       1 <0>        -0.0123
     21 N3        -11.8277   -6.1062   -5.2500 N.2       1 <0>        -0.4933
     22 H1         -9.0657   -7.4969   -5.2838 H         1 <0>         0.4200
     23 C15       -11.1181   -7.1912   -5.3991 C.2       1 <0>         0.1908
     24 N4         -9.8146   -6.8831   -5.2267 N.pl3     1 <0>        -0.5664
     25 H2         -8.5522    3.3386    2.7458 H         1 <0>         0.1053
     26 H3         -9.0314    1.9331    1.7644 H         1 <0>         0.0588
     27 H4         -8.2391    1.6901    3.3397 H         1 <0>         0.0593
     28 H5         -8.2217    0.0283    2.0578 H         1 <0>         0.1391
     29 H6         -7.3378   -2.1330    1.2800 H         1 <0>         0.1394
     30 H7         -3.8269   -0.1879   -0.1628 H         1 <0>         0.1433
     31 H8         -3.9012   -2.6005    0.0765 H         1 <0>         0.1014
     32 H9         -5.3663   -3.4123    0.6790 H         1 <0>         0.1043
     33 H10        -3.0761   -1.4130   -2.9202 H         1 <0>         0.4109
     34 H11        -6.5445   -3.5070   -3.6526 H         1 <0>         0.4105
     35 H12        -8.1593   -5.6440   -2.7570 H         1 <0>         0.0727
     36 H13        -9.1276   -4.1513   -2.7097 H         1 <0>         0.0809
     37 H14        -8.6138   -3.7421   -5.1008 H         1 <0>         0.0975
     38 H15        -7.6455   -5.2349   -5.1481 H         1 <0>         0.0796
     39 H16       -11.3143   -4.0561   -4.8014 H         1 <0>         0.1704
     40 H17       -11.5083   -8.1723   -5.6263 H         1 <0>         0.2100
@<TRIPOS>BOND
     1    1    2 1
     2    1   25 1
     3    1   26 1
     4    1   27 1
     5    2    3 1
     6    3    8 ar
     7    3    4 ar
     8    4    5 ar
     9    4   28 1
    10    5    6 ar
    11    5   29 1
    12    6    7 ar
    13    6   10 1
    14    7    8 ar
    15    7   30 1
    16    8    9 1
    17   10   11 1
    18   10   31 1
    19   10   32 1
    20   11   12 2
    21   11   14 1
    22   12   13 1
    23   13   33 1
    24   14   15 2
    25   14   16 am
    26   16   17 1
    27   16   34 1
    28   17   18 1
    29   17   35 1
    30   17   36 1
    31   18   37 1
    32   18   38 1
    33   18   19 1
    34   19   20 2
    35   19   24 1
    36   20   21 1
    37   20   39 1
    38   21   23 2
    39   22   24 1
    40   23   40 1
    41   23   24 1
@<TRIPOS>MOLECULE
ZINC14828480
   41    42     0     0     0
SMALL
USER_CHARGES

@<TRIPOS>ATOM
      1 C1          6.2065    2.5009    5.9432 C.3       1 <0>         0.0238
      2 O1          5.0133    2.4801    5.1573 O.3       1 <0>        -0.3012
      3 C2          4.4289    1.2697    4.9547 C.ar      1 <0>         0.1606
      4 C3          4.9893    0.1267    5.5058 C.ar      1 <0>        -0.2053
      5 C4          4.3936   -1.1024    5.2985 C.ar      1 <0>        -0.0496
      6 C5          3.2395   -1.1943    4.5422 C.ar      1 <0>        -0.1225
      7 C6          2.6786   -0.0571    3.9916 C.ar      1 <0>        -0.0369
      8 C7          3.2674    1.1760    4.2008 C.ar      1 <0>        -0.1294
      9 Br1         2.4953    2.7325    3.4544 Br        1 <0>        -0.0293
     10 C8          2.5924   -2.5366    4.3176 C.3       1 <0>        -0.0555
     11 C9          1.5943   -2.8031    5.4147 C.2       1 <0>         0.1047
     12 N1          0.3855   -2.3569    5.3112 N.2       1 <0>        -0.2896
     13 O2         -0.0353   -1.7229    4.1170 O.3       1 <0>        -0.3777
     14 C10         1.9970   -3.5735    6.6075 C.2       1 <0>         0.5860
     15 O3          3.1336   -3.9931    6.7049 O.2       1 <0>        -0.5057
     16 N2          1.1043   -3.8118    7.5888 N.am      1 <0>        -0.7196
     17 C11         1.5039   -4.5765    8.7727 C.3       1 <0>         0.1194
     18 C12         0.3127   -4.7025    9.7245 C.3       1 <0>        -0.0769
     19 C13         0.7238   -5.4891   10.9424 C.2       1 <0>         0.0324
     20 C14         0.7356   -6.8314   11.0507 C.2       1 <0>         0.0429
     21 N3          1.1732   -7.1230   12.3145 N.pl3     1 <0>        -0.5089
     22 H1          1.2890   -8.0083   12.6936 H         1 <0>         0.4693
     23 C15         1.4138   -5.9479   12.9349 C.cat     1 <0>         0.3111
     24 N4          1.1476   -4.9752   12.1066 N.pl3     1 <0>        -0.4741
     25 H2          6.9677    1.8847    5.4646 H         1 <0>         0.0603
     26 H3          6.5686    3.5257    6.0270 H         1 <0>         0.1072
     27 H4          5.9936    2.1084    6.9375 H         1 <0>         0.0573
     28 H5          5.8908    0.1975    6.0962 H         1 <0>         0.1388
     29 H6          4.8299   -1.9924    5.7272 H         1 <0>         0.1370
     30 H7          1.7774   -0.1315    3.4011 H         1 <0>         0.1439
     31 H8          2.0824   -2.5374    3.3543 H         1 <0>         0.1039
     32 H9          3.3564   -3.3140    4.3247 H         1 <0>         0.1042
     33 H10        -0.9544   -1.4230    4.1337 H         1 <0>         0.4135
     34 H11         0.1972   -3.4770    7.5111 H         1 <0>         0.4144
     35 H12         1.8333   -5.5703    8.4693 H         1 <0>         0.0843
     36 H13         2.3206   -4.0619    9.2790 H         1 <0>         0.0765
     37 H14        -0.0167   -3.7087   10.0280 H         1 <0>         0.1059
     38 H15        -0.5040   -5.2171    9.2183 H         1 <0>         0.1223
     39 H16         0.4535   -7.5414   10.2873 H         1 <0>         0.2287
     40 H17         1.7713   -5.8323   13.9474 H         1 <0>         0.2679
     41 H18         1.2398   -4.0297   12.3026 H         1 <0>         0.4658
@<TRIPOS>BOND
     1    1    2 1
     2    1   25 1
     3    1   26 1
     4    1   27 1
     5    2    3 1
     6    3    8 ar
     7    3    4 ar
     8    4    5 ar
     9    4   28 1
    10    5    6 ar
    11    5   29 1
    12    6    7 ar
    13    6   10 1
    14    7    8 ar
    15    7   30 1
    16    8    9 1
    17   10   11 1
    18   10   31 1
    19   10   32 1
    20   11   12 2
    21   11   14 1
    22   12   13 1
    23   13   33 1
    24   14   15 2
    25   14   16 am
    26   16   17 1
    27   16   34 1
    28   17   18 1
    29   17   35 1
    30   17   36 1
    31   18   19 1
    32   18   37 1
    33   18   38 1
    34   19   24 1
    35   19   20 2
    36   20   21 1
    37   20   39 1
    38   21   22 1
    39   21   23 1
    40   23   24 2
    41   23   40 1
    42   24   41 1
@<TRIPOS>MOLECULE
ZINC13560691
   28    29     0     0     0
SMALL
USER_CHARGES

@<TRIPOS>ATOM
      1 C1         -0.0162    1.3425    0.0094 C.2       1 <0>        -0.0101
      2 C2          0.0021   -0.0041    0.0020 C.2       1 <0>        -0.0445
      3 N1         -1.3026   -0.4179    0.0131 N.pl3     1 <0>        -0.5703
      4 C3         -2.0733    0.6909    0.0269 C.2       1 <0>         0.1966
      5 N2         -1.2970    1.7400    0.0297 N.2       1 <0>        -0.4896
      6 C4          1.2241   -0.8858   -0.0156 C.3       1 <0>        -0.0359
      7 C5          1.7260   -1.0905    1.4152 C.3       1 <0>        -0.0982
      8 C6          0.6831   -1.8752    2.2164 C.3       1 <0>        -0.1462
      9 C7          1.2249   -2.1451    3.6217 C.3       1 <0>        -0.0060
     10 N3          2.4639   -2.9269    3.5306 N.4       1 <0>        -0.5053
     11 C8          3.4916   -2.1512    2.8257 C.3       1 <0>        -0.0071
     12 C9          3.0370   -1.8816    1.3897 C.3       1 <0>        -0.1449
     13 H1          0.8489    1.9890    0.0046 H         1 <0>         0.1692
     14 H2         -3.1531    0.7069    0.0380 H         1 <0>         0.2116
     15 H3          0.9692   -1.8512   -0.4528 H         1 <0>         0.0761
     16 H4          2.0052   -0.4124   -0.6104 H         1 <0>         0.0987
     17 H5          1.8942   -0.1212    1.8846 H         1 <0>         0.0964
     18 H6         -0.2358   -1.2931    2.2861 H         1 <0>         0.1081
     19 H7          0.4779   -2.8223    1.7173 H         1 <0>         0.0871
     20 H8          1.4296   -1.1975    4.1199 H         1 <0>         0.1315
     21 H9          0.4849   -2.7035    4.1949 H         1 <0>         0.1328
     22 H10         2.7895   -3.1487    4.4595 H         1 <0>         0.4327
     23 H11         3.6479   -1.2035    3.3409 H         1 <0>         0.1315
     24 H12         4.4248   -2.7141    2.8113 H         1 <0>         0.1348
     25 H13         2.8806   -2.8287    0.8735 H         1 <0>         0.0899
     26 H14         3.8005   -1.3040    0.8686 H         1 <0>         0.1162
     27 H15         2.2845   -3.7821    3.0262 H         1 <0>         0.4273
     28 H16        -1.6153   -1.3361    0.0113 H         1 <0>         0.4179
@<TRIPOS>BOND
     1    1    2 2
     2    1   13 1
     3    1    5 1
     4    2    3 1
     5    2    6 1
     6    3    4 1
     7    3   28 1
     8    4   14 1
     9    4    5 2
    10    6    7 1
    11    6   15 1
    12    6   16 1
    13    7   12 1
    14    7    8 1
    15    7   17 1
    16    8    9 1
    17    8   18 1
    18    8   19 1
    19    9   10 1
    20    9   20 1
    21    9   21 1
    22   10   11 1
    23   10   22 1
    24   10   27 1
    25   11   12 1
    26   11   23 1
    27   11   24 1
    28   12   25 1
    29   12   26 1
@<TRIPOS>MOLECULE
ZINC22112721
   21    21     0     0     0
SMALL
USER_CHARGES

@<TRIPOS>ATOM
      1 C1         -0.0187    1.5258    0.0104 C.3       1 <0>        -0.1842
      2 C2          0.0021   -0.0041    0.0020 C.3       1 <0>         0.0346
      3 H1          0.5123   -0.3556   -0.8948 H         1 <0>         0.1477
      4 C3         -1.4333   -0.5336    0.0129 C.3       1 <0>        -0.0503
      5 C4         -1.4159   -2.0348   -0.1192 C.2       1 <0>        -0.0556
      6 C5         -2.0004   -2.9099    0.7211 C.2       1 <0>        -0.0335
      7 N1         -1.7413   -4.1619    0.2321 N.pl3     1 <0>        -0.5621
      8 H2         -2.0310   -5.0025    0.6197 H         1 <0>         0.4316
      9 C6         -1.0070   -4.0081   -0.8908 C.2       1 <0>         0.2070
     10 N2         -0.8206   -2.7331   -1.0974 N.2       1 <0>        -0.4911
     11 N3          0.7126   -0.4907    1.1921 N.4       1 <0>        -0.6344
     12 H3          1.0039    1.9031    0.0027 H         1 <0>         0.0834
     13 H4         -0.5459    1.8868   -0.8726 H         1 <0>         0.1076
     14 H5         -0.5289    1.8773    0.9072 H         1 <0>         0.0819
     15 H6         -1.9156   -0.2570    0.9504 H         1 <0>         0.0992
     16 H7         -1.9862   -0.1019   -0.8214 H         1 <0>         0.1207
     17 H8         -2.5648   -2.6701    1.6101 H         1 <0>         0.1825
     18 H9         -0.6386   -4.8076   -1.5164 H         1 <0>         0.2170
     19 H10         0.2403   -0.1653    2.0223 H         1 <0>         0.4299
     20 H11         0.7262   -1.4996    1.1866 H         1 <0>         0.4331
     21 H12         1.6592   -0.1415    1.1850 H         1 <0>         0.4350
@<TRIPOS>BOND
     1    1    2 1
     2    1   12 1
     3    1   13 1
     4    1   14 1
     5    2    3 1
     6    2    4 1
     7    2   11 1
     8    4    5 1
     9    4   15 1
    10    4   16 1
    11    5   10 1
    12    5    6 2
    13    6    7 1
    14    6   17 1
    15    7    8 1
    16    7    9 1
    17    9   10 2
    18    9   18 1
    19   11   19 1
    20   11   20 1
    21   11   21 1
@<TRIPOS>MOLECULE
ZINC02559937
   21    21     0     0     0
SMALL
USER_CHARGES

@<TRIPOS>ATOM
      1 C1         -0.0178    1.4648    0.0101 C.3       1 <0>        -0.0463
      2 N1          0.0021   -0.0041    0.0020 N.4       1 <0>        -0.5100
      3 C2          0.6897   -0.4778   -1.2066 C.3       1 <0>        -0.0042
      4 C3          0.7104   -2.0077   -1.2150 C.3       1 <0>        -0.0508
      5 C4          1.4158   -2.4937   -2.4549 C.2       1 <0>        -0.0285
      6 C5          2.4655   -3.3365   -2.4892 C.2       1 <0>        -0.0274
      7 N2          2.7899   -3.5117   -3.8074 N.pl3     1 <0>        -0.5631
      8 H1          3.5062   -4.0657   -4.1552 H         1 <0>         0.4303
      9 C6          1.9265   -2.7692   -4.5333 C.2       1 <0>         0.2054
     10 N3          1.1044   -2.1671   -3.7180 N.2       1 <0>        -0.4942
     11 H2          1.0047    1.8421    0.0024 H         1 <0>         0.1224
     12 H3         -0.5450    1.8259   -0.8730 H         1 <0>         0.1238
     13 H4         -0.5280    1.8163    0.9069 H         1 <0>         0.1261
     14 H5          0.4901   -0.3383    0.8195 H         1 <0>         0.4288
     15 H6          0.1625   -0.1167   -2.0897 H         1 <0>         0.1383
     16 H7          1.7123   -0.1005   -1.2143 H         1 <0>         0.1297
     17 H8          1.2376   -2.3687   -0.3319 H         1 <0>         0.0965
     18 H9         -0.3122   -2.3849   -1.2073 H         1 <0>         0.0961
     19 H10         2.9572   -3.7874   -1.6398 H         1 <0>         0.1810
     20 H11         1.9155   -2.6901   -5.6103 H         1 <0>         0.2155
     21 H12        -0.9445   -0.3533    0.0092 H         1 <0>         0.4307
@<TRIPOS>BOND
     1    1    2 1
     2    1   11 1
     3    1   12 1
     4    1   13 1
     5    2    3 1
     6    2   14 1
     7    2   21 1
     8    3    4 1
     9    3   15 1
    10    3   16 1
    11    4    5 1
    12    4   17 1
    13    4   18 1
    14    5   10 1
    15    5    6 2
    16    6    7 1
    17    6   19 1
    18    7    8 1
    19    7    9 1
    20    9   10 2
    21    9   20 1
@<TRIPOS>MOLECULE
ZINC14952228
   24    24     0     0     0
SMALL
USER_CHARGES

@<TRIPOS>ATOM
      1 C1         -0.0187    1.5258    0.0104 C.3       1 <0>        -0.1697
      2 C2          0.0021   -0.0041    0.0020 C.3       1 <0>        -0.0184
      3 H1         -1.0205   -0.3814    0.0098 H         1 <0>         0.1078
      4 C3          0.7309   -0.5033    1.2229 C.2       1 <0>        -0.0175
      5 C4          1.7883    0.0886    1.8105 C.2       1 <0>        -0.0330
      6 N1          2.1348   -0.6916    2.8805 N.pl3     1 <0>        -0.5626
      7 C5          1.2765   -1.7338    2.9096 C.2       1 <0>         0.2040
      8 N2          0.4366   -1.6118    1.9182 N.2       1 <0>        -0.4856
      9 H2          2.8612   -0.5267    3.5018 H         1 <0>         0.4296
     10 C6          0.7182   -0.4975   -1.2568 C.3       1 <0>         0.0329
     11 H3          1.7408   -0.1202   -1.2645 H         1 <0>         0.1406
     12 C7          0.7390   -2.0273   -1.2652 C.3       1 <0>        -0.1781
     13 N3          0.0077   -0.0109   -2.4469 N.4       1 <0>        -0.6370
     14 H4          1.0039    1.9031    0.0027 H         1 <0>         0.0737
     15 H5         -0.5459    1.8868   -0.8726 H         1 <0>         0.0593
     16 H6         -0.5289    1.8773    0.9072 H         1 <0>         0.0872
     17 H7          2.2705    1.0028    1.4974 H         1 <0>         0.1783
     18 H8          1.2817   -2.5334    3.6355 H         1 <0>         0.2154
     19 H9         -0.2836   -2.4046   -1.2575 H         1 <0>         0.0837
     20 H10         1.2492   -2.3788   -2.1620 H         1 <0>         0.0786
     21 H11         1.2661   -2.3884   -0.3821 H         1 <0>         0.1071
     22 H12        -0.0060    0.9980   -2.4413 H         1 <0>         0.4329
     23 H13         0.4800   -0.3363   -3.2770 H         1 <0>         0.4368
     24 H14        -0.9389   -0.3601   -2.4397 H         1 <0>         0.4340
@<TRIPOS>BOND
     1    1    2 1
     2    1   14 1
     3    1   15 1
     4    1   16 1
     5    2    3 1
     6    2   10 1
     7    2    4 1
     8    4    8 1
     9    4    5 2
    10    5   17 1
    11    5    6 1
    12    6    7 1
    13    6    9 1
    14    7   18 1
    15    7    8 2
    16   10   11 1
    17   10   12 1
    18   10   13 1
    19   12   19 1
    20   12   20 1
    21   12   21 1
    22   13   22 1
    23   13   23 1
    24   13   24 1
@<TRIPOS>MOLECULE
ZINC14952228
   25    25     0     0     0
SMALL
USER_CHARGES

@<TRIPOS>ATOM
      1 C1         -0.0187    1.5258    0.0104 C.3       1 <0>        -0.1789
      2 C2          0.0021   -0.0041    0.0020 C.3       1 <0>        -0.0453
      3 H1         -1.0205   -0.3814    0.0098 H         1 <0>         0.1263
      4 C3          0.7309   -0.5033    1.2229 C.2       1 <0>         0.0174
      5 C4          2.0638   -0.6546    1.3422 C.2       1 <0>         0.0432
      6 N1          2.2972   -1.1278    2.6052 N.pl3     1 <0>        -0.5050
      7 H2          3.1624   -1.3369    2.9907 H         1 <0>         0.4755
      8 C5          1.0980   -1.2493    3.2142 C.cat     1 <0>         0.3354
      9 N2          0.1663   -0.8693    2.3832 N.pl3     1 <0>        -0.4724
     10 C6          0.7182   -0.4975   -1.2568 C.3       1 <0>         0.0316
     11 H3          1.7408   -0.1202   -1.2645 H         1 <0>         0.1520
     12 C7          0.7390   -2.0273   -1.2652 C.3       1 <0>        -0.1942
     13 N3          0.0077   -0.0109   -2.4469 N.4       1 <0>        -0.6358
     14 H4          1.0039    1.9031    0.0027 H         1 <0>         0.0874
     15 H5         -0.5459    1.8868   -0.8726 H         1 <0>         0.0800
     16 H6         -0.5289    1.8773    0.9072 H         1 <0>         0.0928
     17 H7          2.8058   -0.4435    0.5864 H         1 <0>         0.2268
     18 H8          0.9371   -1.5991    4.2232 H         1 <0>         0.2753
     19 H9          1.2492   -2.3788   -2.1620 H         1 <0>         0.0997
     20 H10         1.2661   -2.3884   -0.3821 H         1 <0>         0.1004
     21 H11        -0.2836   -2.4046   -1.2575 H         1 <0>         0.0907
     22 H12        -0.0060    0.9980   -2.4413 H         1 <0>         0.4398
     23 H13         0.4800   -0.3363   -3.2770 H         1 <0>         0.4486
     24 H14        -0.9389   -0.3601   -2.4397 H         1 <0>         0.4391
     25 H15        -0.7846   -0.8554    2.5739 H         1 <0>         0.4697
@<TRIPOS>BOND
     1    1    2 1
     2    1   14 1
     3    1   15 1
     4    1   16 1
     5    2    3 1
     6    2    4 1
     7    2   10 1
     8    4    9 1
     9    4    5 2
    10    5    6 1
    11    5   17 1
    12    6    7 1
    13    6    8 1
    14    8    9 2
    15    8   18 1
    16    9   25 1
    17   10   11 1
    18   10   12 1
    19   10   13 1
    20   12   19 1
    21   12   20 1
    22   12   21 1
    23   13   22 1
    24   13   23 1
    25   13   24 1
@<TRIPOS>MOLECULE
ZINC00016616
   25    26     0     0     0
SMALL
USER_CHARGES
4-[(3R,4R)-4-methylpyrrolidin-3-yl]-1H-imidazole
@<TRIPOS>ATOM
      1 C1          4.1668    2.0772   -1.8043 C.3       1 <0>        -0.1586
      2 C2          2.9655    1.1945   -1.4599 C.3       1 <0>        -0.1071
      3 H1          2.1490    1.3755   -2.1589 H         1 <0>         0.1163
      4 C3          3.3706   -0.2950   -1.4826 C.3       1 <0>        -0.0077
      5 C4          2.6652    0.1111    0.7165 C.3       1 <0>        -0.0054
      6 C5          2.5015    1.4617   -0.0132 C.3       1 <0>        -0.0177
      7 H2          3.1284    2.2230    0.4510 H         1 <0>         0.1206
      8 C6          1.0577    1.8932    0.0021 C.2       1 <0>        -0.0103
      9 C7         -0.0126    1.0758    0.0080 C.2       1 <0>        -0.0504
     10 N1         -1.1226    1.8767    0.0168 N.pl3     1 <0>        -0.5647
     11 H3         -2.0748    1.5712    0.0175 H         1 <0>         0.4361
     12 C8         -0.6916    3.1566    0.0243 C.2       1 <0>         0.2090
     13 N2          0.6133    3.1587    0.0124 N.2       1 <0>        -0.4830
     14 H4          4.9872    1.8570   -1.1212 H         1 <0>         0.0597
     15 H5          4.4829    1.8774   -2.8281 H         1 <0>         0.0738
     16 H6          3.8862    3.1261   -1.7088 H         1 <0>         0.0811
     17 H7          2.5404   -0.9095   -1.8310 H         1 <0>         0.1334
     18 H8          4.2440   -0.4418   -2.1179 H         1 <0>         0.1425
     19 H9          3.0089    0.2705    1.7386 H         1 <0>         0.1456
     20 H10         1.7247   -0.4398    0.7122 H         1 <0>         0.1334
     21 H11         0.0021   -0.0041    0.0020 H         1 <0>         0.1733
     22 H12        -1.3225    4.0331    0.0338 H         1 <0>         0.2165
     23 N3          3.6683   -0.5953   -0.0814 N.4       1 <0>        -0.5102
     24 H13         4.6102   -0.2653    0.1598 H         1 <0>         0.4364
     25 H14         3.6066   -1.6065    0.0855 H         1 <0>         0.4375
@<TRIPOS>BOND
     1    1    2 1
     2    1   14 1
     3    1   15 1
     4    1   16 1
     5    2    3 1
     6    2    6 1
     7    2    4 1
     8    4   17 1
     9    4   18 1
    10    4   23 1
    11    5    6 1
    12    5   19 1
    13    5   20 1
    14    5   23 1
    15    6    7 1
    16    6    8 1
    17    8   13 1
    18    8    9 2
    19    9   10 1
    20    9   21 1
    21   10   11 1
    22   10   12 1
    23   12   13 2
    24   12   22 1
    25   23   24 1
    26   23   25 1
@<TRIPOS>MOLECULE
ZINC00016616
   26    27     0     0     0
SMALL
USER_CHARGES
4-[(3R,4R)-4-methylpyrrolidin-3-yl]-1H-imidazole
@<TRIPOS>ATOM
      1 C1          4.1668    2.0772   -1.8043 C.3       1 <0>        -0.1669
      2 C2          2.9655    1.1945   -1.4599 C.3       1 <0>        -0.1114
      3 H1          2.1490    1.3755   -2.1589 H         1 <0>         0.1217
      4 C3          3.3706   -0.2950   -1.4826 C.3       1 <0>        -0.0081
      5 C4          2.6652    0.1111    0.7165 C.3       1 <0>        -0.0003
      6 C5          2.5015    1.4617   -0.0132 C.3       1 <0>        -0.0478
      7 H2          3.1284    2.2230    0.4510 H         1 <0>         0.1390
      8 C6          1.0577    1.8932    0.0021 C.2       1 <0>         0.0171
      9 C7         -0.0126    1.0758    0.0080 C.2       1 <0>         0.0398
     10 N1         -1.1226    1.8767    0.0168 N.pl3     1 <0>        -0.5111
     11 H3         -2.0748    1.5712    0.0175 H         1 <0>         0.4837
     12 C8         -0.6916    3.1566    0.0243 C.cat     1 <0>         0.3358
     13 H4          4.9872    1.8570   -1.1212 H         1 <0>         0.0697
     14 H5          4.4829    1.8774   -2.8281 H         1 <0>         0.0875
     15 H6          3.8862    3.1261   -1.7088 H         1 <0>         0.0781
     16 H7          2.5404   -0.9095   -1.8310 H         1 <0>         0.1411
     17 H8          4.2440   -0.4418   -2.1179 H         1 <0>         0.1533
     18 H9          3.0089    0.2705    1.7386 H         1 <0>         0.1580
     19 H10         1.7247   -0.4398    0.7122 H         1 <0>         0.1381
     20 H11         0.0021   -0.0041    0.0020 H         1 <0>         0.2234
     21 H12        -1.3225    4.0331    0.0338 H         1 <0>         0.2737
     22 N2          3.6683   -0.5953   -0.0814 N.4       1 <0>        -0.5128
     23 H13         4.6102   -0.2653    0.1598 H         1 <0>         0.4439
     24 H14         3.6066   -1.6065    0.0855 H         1 <0>         0.4491
     25 N3          0.6125    3.1576    0.0124 N.pl3     1 <0>        -0.4809
     26 H15         1.2056    3.9958    0.0111 H         1 <0>         0.4864
@<TRIPOS>BOND
     1    1    2 1
     2    1   13 1
     3    1   14 1
     4    1   15 1
     5    2    3 1
     6    2    6 1
     7    2    4 1
     8    4   16 1
     9    4   17 1
    10    4   22 1
    11    5    6 1
    12    5   18 1
    13    5   19 1
    14    5   22 1
    15    6    7 1
    16    6    8 1
    17    8    9 2
    18    8   25 1
    19    9   10 1
    20    9   20 1
    21   10   11 1
    22   10   12 1
    23   12   21 1
    24   12   25 2
    25   22   23 1
    26   22   24 1
    27   25   26 1
@<TRIPOS>MOLECULE
ZINC13730720
   24    24     0     0     0
SMALL
USER_CHARGES
(2R,3R)-3-(1H-imidazol-4-yl)butan-2-amine
@<TRIPOS>ATOM
      1 C1         -0.9870    3.4696   -0.8021 C.3       1 <0>        -0.1512
      2 C2         -1.2473    2.2060    0.0202 C.3       1 <0>        -0.0175
      3 H1         -2.0835    1.6567   -0.4125 H         1 <0>         0.1072
      4 C3         -0.0161    1.3371    0.0094 C.2       1 <0>        -0.0560
      5 C4          1.2587    1.7711   -0.0004 C.2       1 <0>        -0.0195
      6 N1          2.0558    0.6583   -0.0140 N.pl3     1 <0>        -0.5641
      7 H2          3.0557    0.6447   -0.0236 H         1 <0>         0.4390
      8 C5          1.2397   -0.4176   -0.0120 C.2       1 <0>         0.2071
      9 N2          0.0021   -0.0041    0.0020 N.2       1 <0>        -0.5034
     10 C6         -1.5840    2.5954    1.4610 C.3       1 <0>         0.0387
     11 H3         -0.7479    3.1447    1.8938 H         1 <0>         0.1372
     12 C7         -2.8341    3.4776    1.4720 C.3       1 <0>        -0.1841
     13 H4         -0.1509    4.0189   -0.3694 H         1 <0>         0.0677
     14 H5         -0.7471    3.1922   -1.8286 H         1 <0>         0.0781
     15 H6         -1.8775    4.0981   -0.7943 H         1 <0>         0.0774
     16 H7          1.5887    2.7994    0.0014 H         1 <0>         0.1824
     17 H8          1.5585   -1.4495   -0.0203 H         1 <0>         0.2171
     18 H9         -3.6702    2.9283    1.0392 H         1 <0>         0.0839
     19 H10        -3.0739    3.7551    2.4984 H         1 <0>         0.0836
     20 H11        -2.6486    4.3779    0.8861 H         1 <0>         0.1100
     21 H12        -1.9953    1.6087    3.2205 H         1 <0>         0.4344
     22 H13        -2.6053    0.8551    1.8692 H         1 <0>         0.4360
     23 N3         -1.8119    1.3701    2.2473 N.4       1 <0>        -0.6424
     24 H14        -0.9746    0.7779    2.1996 H         1 <0>         0.4382
@<TRIPOS>BOND
     1    1    2 1
     2    1   13 1
     3    1   14 1
     4    1   15 1
     5    2    3 1
     6    2    4 1
     7    2   10 1
     8    4    9 1
     9    4    5 2
    10    5    6 1
    11    5   16 1
    12    6    7 1
    13    6    8 1
    14    8    9 2
    15    8   17 1
    16   10   11 1
    17   10   12 1
    18   10   23 1
    19   12   18 1
    20   12   19 1
    21   12   20 1
    22   21   23 1
    23   22   23 1
    24   23   24 1
@<TRIPOS>MOLECULE
ZINC13730720
   25    25     0     0     0
SMALL
USER_CHARGES
(2R,3R)-3-(1H-imidazol-4-yl)butan-2-amine
@<TRIPOS>ATOM
      1 C1         -0.9870    3.4696   -0.8021 C.3       1 <0>        -0.1608
      2 C2         -1.2473    2.2060    0.0202 C.3       1 <0>        -0.0376
      3 H1         -2.0835    1.6567   -0.4125 H         1 <0>         0.1256
      4 C3         -0.0161    1.3371    0.0094 C.2       1 <0>        -0.0341
      5 C4          1.2587    1.7711   -0.0004 C.2       1 <0>         0.0738
      6 N1          2.0558    0.6583   -0.0140 N.pl3     1 <0>        -0.5103
      7 H2          3.0557    0.6447   -0.0236 H         1 <0>         0.4861
      8 C5          1.2397   -0.4176   -0.0120 C.cat     1 <0>         0.3355
      9 C6         -1.5840    2.5954    1.4610 C.3       1 <0>         0.0341
     10 H3         -0.7479    3.1447    1.8938 H         1 <0>         0.1521
     11 C7         -2.8341    3.4776    1.4720 C.3       1 <0>        -0.1896
     12 H4         -0.1509    4.0189   -0.3694 H         1 <0>         0.0804
     13 H5         -0.7471    3.1922   -1.8286 H         1 <0>         0.0900
     14 H6         -1.8775    4.0981   -0.7943 H         1 <0>         0.0986
     15 H7          1.5887    2.7994    0.0014 H         1 <0>         0.2326
     16 H8          1.5585   -1.4495   -0.0203 H         1 <0>         0.2749
     17 H9         -3.6702    2.9283    1.0392 H         1 <0>         0.0901
     18 H10        -3.0739    3.7551    2.4984 H         1 <0>         0.0962
     19 H11        -2.6486    4.3779    0.8861 H         1 <0>         0.1193
     20 H12        -1.9953    1.6087    3.2205 H         1 <0>         0.4526
     21 H13        -2.6053    0.8551    1.8692 H         1 <0>         0.4386
     22 N2         -1.8119    1.3701    2.2473 N.4       1 <0>        -0.6513
     23 H14        -0.9746    0.7779    2.1996 H         1 <0>         0.4227
     24 N3          0.0032   -0.0033    0.0020 N.pl3     1 <0>        -0.5004
     25 H15        -0.8259   -0.6090    0.0066 H         1 <0>         0.4809
@<TRIPOS>BOND
     1    1    2 1
     2    1   12 1
     3    1   13 1
     4    1   14 1
     5    2    3 1
     6    2    4 1
     7    2    9 1
     8    4    5 2
     9    4   24 1
    10    5    6 1
    11    5   15 1
    12    6    7 1
    13    6    8 1
    14    8   16 1
    15    8   24 2
    16    9   10 1
    17    9   11 1
    18    9   22 1
    19   11   17 1
    20   11   18 1
    21   11   19 1
    22   20   22 1
    23   21   22 1
    24   22   23 1
    25   24   25 1
@<TRIPOS>MOLECULE
ZINC34045468
   47    48     0     0     0
SMALL
USER_CHARGES
1-[3-[3-(4-chlorophenyl)propoxy]propyl]piperidine
@<TRIPOS>ATOM
      1 C1          6.5292    7.9807    1.1800 C.ar      1 <0>        -0.1037
      2 C2          7.8612    8.3497    1.1699 C.ar      1 <0>        -0.1074
      3 C3          8.5159    8.5437   -0.0334 C.ar      1 <0>        -0.0364
      4 C4          7.8383    8.3626   -1.2259 C.ar      1 <0>        -0.1074
      5 C5          6.5079    7.9880   -1.2146 C.ar      1 <0>        -0.1038
      6 C6          5.8543    7.7944   -0.0120 C.ar      1 <0>        -0.0827
      7 C7          4.4037    7.3860   -0.0003 C.3       1 <0>        -0.0793
      8 C8          4.3036    5.8593   -0.0076 C.3       1 <0>        -0.1146
      9 C9          2.8309    5.4447    0.0043 C.3       1 <0>         0.0620
     10 O1          2.7374    4.0188   -0.0025 O.3       1 <0>        -0.3858
     11 C10         1.3968    3.5242    0.0076 C.3       1 <0>         0.0636
     12 C11         1.4175    1.9944   -0.0008 C.3       1 <0>        -0.1499
     13 C12        -0.0178    1.4648    0.0101 C.3       1 <0>        -0.0037
     14 N1          0.0021   -0.0041    0.0020 N.4       1 <0>        -0.3968
     15 C13         0.5594   -0.5159   -1.2565 C.3       1 <0>        -0.0101
     16 C14         0.6997   -2.0375   -1.1723 C.3       1 <0>        -0.1467
     17 C15        -0.6755   -2.6583   -0.9115 C.3       1 <0>        -0.1413
     18 C16        -1.2548   -2.0725    0.3791 C.3       1 <0>        -0.1471
     19 C17        -1.3384   -0.5499    0.2500 C.3       1 <0>        -0.0038
     20 Cl1        10.1870    9.0135   -0.0468 Cl        1 <0>        -0.0645
     21 H1          6.0169    7.8335    2.1193 H         1 <0>         0.1314
     22 H2          8.3896    8.4909    2.1012 H         1 <0>         0.1352
     23 H3          8.3490    8.5135   -2.1656 H         1 <0>         0.1352
     24 H4          5.9790    7.8463   -2.1455 H         1 <0>         0.1313
     25 H5          3.9189    7.7809    0.9047 H         1 <0>         0.0788
     26 H6          3.9016    7.7906   -0.8915 H         1 <0>         0.0787
     27 H7          4.7884    5.4644   -0.9126 H         1 <0>         0.0755
     28 H8          4.8057    5.4546    0.8836 H         1 <0>         0.0757
     29 H9          2.3461    5.8396    0.9093 H         1 <0>         0.0559
     30 H10         2.3288    5.8493   -0.8869 H         1 <0>         0.0556
     31 H11         0.8819    3.8790    0.9126 H         1 <0>         0.0600
     32 H12         0.8648    3.8886   -0.8836 H         1 <0>         0.0592
     33 H13         1.9323    1.6397   -0.9058 H         1 <0>         0.0954
     34 H14         1.9496    1.6300    0.8903 H         1 <0>         0.0965
     35 H15        -0.5326    1.8195    0.9152 H         1 <0>         0.1336
     36 H16        -0.5499    1.8292   -0.8810 H         1 <0>         0.1289
     37 H17        -0.1124   -0.2555   -2.0877 H         1 <0>         0.1258
     38 H18         1.5482   -0.0660   -1.4295 H         1 <0>         0.1322
     39 H19         1.1034   -2.4215   -2.1207 H         1 <0>         0.1120
     40 H20         1.3832   -2.2978   -0.3507 H         1 <0>         0.0885
     41 H21        -1.3458   -2.4315   -1.7537 H         1 <0>         0.0809
     42 H22        -0.5721   -3.7486   -0.8085 H         1 <0>         0.0946
     43 H23        -2.2608   -2.4836    0.5491 H         1 <0>         0.1124
     44 H24        -0.6035   -2.3352    1.2257 H         1 <0>         0.0887
     45 H25        -1.7408   -0.1249    1.1814 H         1 <0>         0.1307
     46 H26        -2.0013   -0.2893   -0.5883 H         1 <0>         0.1257
     47 H27         0.6571   -0.3396    0.8196 H         1 <0>         0.4410
@<TRIPOS>BOND
     1    1    6 ar
     2    1    2 ar
     3    1   21 1
     4    2    3 ar
     5    2   22 1
     6    3    4 ar
     7    3   20 1
     8    4    5 ar
     9    4   23 1
    10    5    6 ar
    11    5   24 1
    12    6    7 1
    13    7    8 1
    14    7   25 1
    15    7   26 1
    16    8    9 1
    17    8   27 1
    18    8   28 1
    19    9   10 1
    20    9   29 1
    21    9   30 1
    22   10   11 1
    23   11   12 1
    24   11   31 1
    25   11   32 1
    26   12   13 1
    27   12   33 1
    28   12   34 1
    29   13   14 1
    30   13   35 1
    31   13   36 1
    32   14   19 1
    33   14   15 1
    34   14   47 1
    35   15   16 1
    36   15   37 1
    37   15   38 1
    38   16   17 1
    39   16   39 1
    40   16   40 1
    41   17   18 1
    42   17   41 1
    43   17   42 1
    44   18   19 1
    45   18   43 1
    46   18   44 1
    47   19   45 1
    48   19   46 1
