@<TRIPOS>MOLECULE
ZINC06733279
   40    43     0     0     0
SMALL
USER_CHARGES
8-(6-bromobenzo[1,3]dioxol-5-yl)sulfanyl-9-pent-4-ynyl-purin-6-amine
@<TRIPOS>ATOM
      1 C1          3.5308   -6.2946    8.2869 C.1       1 <0>        -0.1976
      2 C2          3.6169   -6.4977    7.1338 C.1       1 <0>        -0.1940
      3 C3          3.7249   -6.7522    5.6880 C.3       1 <0>        -0.0058
      4 C4          2.6784   -5.9202    4.9441 C.3       1 <0>        -0.1321
      5 C5          2.7907   -6.1848    3.4413 C.3       1 <0>         0.1069
      6 N1          1.7886   -5.3881    2.7290 N.pl3     1 <0>        -0.4511
      7 C6          0.5031   -5.7757    2.4288 C.ar      1 <0>         0.3020
      8 C7         -0.0795   -4.6986    1.7407 C.ar      1 <0>        -0.0568
      9 C8         -1.4082   -4.8305    1.3055 C.ar      1 <0>         0.4477
     10 N2         -2.0502   -5.9651    1.5645 N.ar      1 <0>        -0.5731
     11 C9         -1.4605   -6.9509    2.2152 C.ar      1 <0>         0.3460
     12 N3         -0.2170   -6.8714    2.6417 N.ar      1 <0>        -0.5348
     13 N4         -2.0356   -3.8011    0.6223 N.pl3     1 <0>        -0.7431
     14 N5          0.8553   -3.7193    1.6584 N.2       1 <0>        -0.4367
     15 C10         1.9577   -4.1198    2.2429 C.2       1 <0>         0.2403
     16 S1          3.4369   -3.1717    2.3762 S.3       1 <0>         0.1436
     17 C11         2.9872   -1.7661    1.4135 C.ar      1 <0>        -0.1138
     18 C12         2.6450   -0.5752    2.0407 C.ar      1 <0>        -0.0307
     19 C13         2.2921    0.5290    1.2837 C.ar      1 <0>         0.0389
     20 C14         2.2811    0.4433   -0.1068 C.ar      1 <0>         0.0808
     21 C15         2.6230   -0.7461   -0.7294 C.ar      1 <0>        -0.0836
     22 C16         2.9752   -1.8487    0.0268 C.ar      1 <0>        -0.0155
     23 Br1         3.4417   -3.4701   -0.8273 Br        1 <0>        -0.0061
     24 O1          1.9025    1.6536   -0.6150 O.3       1 <0>        -0.2987
     25 C17         2.0783    2.5941    0.4609 C.3       1 <0>         0.2113
     26 O2          1.9206    1.7918    1.6460 O.3       1 <0>        -0.2999
     27 H1          3.4537   -6.1131    9.3182 H         1 <0>         0.2178
     28 H2          3.5542   -7.8107    5.4917 H         1 <0>         0.0923
     29 H3          4.7213   -6.4749    5.3437 H         1 <0>         0.0926
     30 H4          2.8492   -4.8617    5.1404 H         1 <0>         0.0776
     31 H5          1.6821   -6.1975    5.2884 H         1 <0>         0.0776
     32 H6          2.6199   -7.2433    3.2450 H         1 <0>         0.1071
     33 H7          3.7870   -5.9075    3.0970 H         1 <0>         0.1023
     34 H8         -2.0185   -7.8559    2.4052 H         1 <0>         0.2066
     35 H9         -2.0573   -2.9836    1.1979 H         1 <0>         0.3682
     36 H10        -2.9537   -3.9040    0.3267 H         1 <0>         0.3733
     37 H11         2.6545   -0.5104    3.1187 H         1 <0>         0.1550
     38 H12         2.6139   -0.8122   -1.8073 H         1 <0>         0.1536
     39 H13         1.3144    3.3705    0.4195 H         1 <0>         0.1396
     40 H14         3.0751    3.0339    0.4260 H         1 <0>         0.0926
@<TRIPOS>BOND
     1    1    2 3
     2    1   27 1
     3    2    3 1
     4    3    4 1
     5    3   28 1
     6    3   29 1
     7    4    5 1
     8    4   30 1
     9    4   31 1
    10    5    6 1
    11    5   32 1
    12    5   33 1
    13    6   15 1
    14    6    7 1
    15    7   12 ar
    16    7    8 ar
    17    8    9 ar
    18    8   14 1
    19    9   10 ar
    20    9   13 1
    21   10   11 ar
    22   11   12 ar
    23   11   34 1
    24   13   35 1
    25   13   36 1
    26   14   15 2
    27   15   16 1
    28   16   17 1
    29   17   22 ar
    30   17   18 ar
    31   18   19 ar
    32   18   37 1
    33   19   26 1
    34   19   20 ar
    35   20   21 ar
    36   20   24 1
    37   21   22 ar
    38   21   38 1
    39   22   23 1
    40   24   25 1
    41   25   26 1
    42   25   39 1
    43   25   40 1
