@<TRIPOS>MOLECULE
ZINC24044436
   76    80     0     0     0
SMALL
USER_CHARGES
1-[5-tert-butyl-2-(p-tolyl)pyrazol-3-yl]-3-[4-(2-morpholinoethoxy)-1-naphthyl]urea
@<TRIPOS>ATOM
      1 C1          3.3307    9.5387   -0.3298 C.3       1 <0>        -0.1193
      2 C2          2.0898    8.6848   -0.2813 C.ar      1 <0>        -0.0892
      3 C3          0.9612    9.0673   -0.9828 C.ar      1 <0>        -0.0934
      4 C4         -0.1775    8.2868   -0.9403 C.ar      1 <0>        -0.1062
      5 C5         -0.1884    7.1174   -0.1919 C.ar      1 <0>         0.1564
      6 C6          0.9444    6.7392    0.5163 C.ar      1 <0>        -0.1500
      7 C7          2.0821    7.5207    0.4649 C.ar      1 <0>        -0.0924
      8 N1         -1.3424    6.3233   -0.1469 N.pl3     1 <0>        -0.3448
      9 C8         -1.3788    4.9645   -0.0790 C.2       1 <0>         0.3309
     10 C9         -2.6878    4.5925   -0.0483 C.2       1 <0>        -0.2629
     11 C10        -3.4651    5.7529   -0.1047 C.2       1 <0>         0.1115
     12 N2         -2.6643    6.7861   -0.1672 N.2       1 <0>        -0.2779
     13 C11        -4.9712    5.8052   -0.0954 C.3       1 <0>         0.0134
     14 C12        -5.4824    5.5257    1.3193 C.3       1 <0>        -0.1388
     15 C13        -5.4360    7.1933   -0.5406 C.3       1 <0>        -0.1390
     16 C14        -5.5242    4.7499   -1.0553 C.3       1 <0>        -0.1399
     17 N3         -0.2771    4.1104   -0.0417 N.am      1 <0>        -0.6731
     18 C15        -0.4603    2.7771    0.0314 C.2       1 <0>         0.7165
     19 O1         -1.5862    2.3190    0.0649 O.2       1 <0>        -0.5445
     20 N4          0.6045    1.9516    0.0675 N.am      1 <0>        -0.6819
     21 C16         0.4162    0.5655    0.0407 C.ar      1 <0>         0.1254
     22 C17        -0.6813    0.0024    0.6542 C.ar      1 <0>        -0.0743
     23 C18        -0.8835   -1.3742    0.6299 C.ar      1 <0>        -0.2061
     24 C19         0.0048   -2.2051    0.0082 C.ar      1 <0>         0.1395
     25 C20         1.1426   -1.6672   -0.6254 C.ar      1 <0>        -0.0565
     26 C21         1.3517   -0.2661   -0.6096 C.ar      1 <0>        -0.0251
     27 C22         2.4862    0.2686   -1.2409 C.ar      1 <0>        -0.1232
     28 C23         3.3687   -0.5639   -1.8588 C.ar      1 <0>        -0.0971
     29 C24         3.1636   -1.9422   -1.8742 C.ar      1 <0>        -0.1313
     30 C25         2.0750   -2.4951   -1.2724 C.ar      1 <0>        -0.0739
     31 O2         -0.2080   -3.5475    0.0012 O.3       1 <0>        -0.2916
     32 C26        -1.3823   -4.0216    0.6634 C.3       1 <0>         0.0605
     33 C27        -1.4510   -5.5459    0.5508 C.3       1 <0>         0.0539
     34 N5         -0.3065   -6.1409    1.2538 N.3       1 <0>        -0.5287
     35 C28        -0.1978   -7.5776    0.9617 C.3       1 <0>         0.0167
     36 C29         1.0390   -8.1436    1.6645 C.3       1 <0>         0.0615
     37 O3          0.9456   -7.8818    3.0674 O.3       1 <0>        -0.3849
     38 C30         0.8389   -6.4921    3.3879 C.3       1 <0>         0.0625
     39 C31        -0.3999   -5.9094    2.7026 C.3       1 <0>         0.0120
     40 H1          3.1476   10.4156   -0.9682 H         1 <0>         0.0687
     41 H2          4.1639    8.9515   -0.7434 H         1 <0>         0.0732
     42 H3          3.5863    9.8722    0.6868 H         1 <0>         0.0734
     43 H4          0.9703    9.9770   -1.5648 H         1 <0>         0.1335
     44 H5         -1.0587    8.5861   -1.4884 H         1 <0>         0.1355
     45 H6          0.9374    5.8324    1.1029 H         1 <0>         0.1262
     46 H7          2.9651    7.2245    1.0118 H         1 <0>         0.1343
     47 H8         -3.0598    3.5802    0.0092 H         1 <0>         0.1784
     48 H9         -6.5817    5.5639    1.3261 H         1 <0>         0.0656
     49 H10        -5.0849    6.2845    2.0094 H         1 <0>         0.0565
     50 H11        -5.1481    4.5278    1.6395 H         1 <0>         0.0614
     51 H12        -6.5353    7.2315   -0.5338 H         1 <0>         0.0604
     52 H13        -5.0684    7.3943   -1.5577 H         1 <0>         0.0568
     53 H14        -5.0385    7.9519    0.1496 H         1 <0>         0.0614
     54 H15        -6.6235    4.7882   -1.0484 H         1 <0>         0.0647
     55 H16        -5.1900    3.7520   -0.7351 H         1 <0>         0.0637
     56 H17        -5.1566    4.9509   -2.0724 H         1 <0>         0.0570
     57 H18         0.7414    4.5248   -0.0719 H         1 <0>         0.4294
     58 H19         1.6215    2.3677    0.1180 H         1 <0>         0.4280
     59 H20        -1.3959    0.6376    1.1566 H         1 <0>         0.1450
     60 H21        -1.7537   -1.7925    1.1139 H         1 <0>         0.1296
     61 H22         2.6580    1.3348   -1.2361 H         1 <0>         0.1222
     62 H23         4.2405   -0.1501   -2.3437 H         1 <0>         0.1243
     63 H24         3.8790   -2.5810   -2.3706 H         1 <0>         0.1250
     64 H25         1.9286   -3.5650   -1.2926 H         1 <0>         0.1353
     65 H26        -1.3465   -3.7335    1.7244 H         1 <0>         0.0659
     66 H27        -2.2726   -3.5787    0.1931 H         1 <0>         0.0716
     67 H28        -2.3868   -5.9052    1.0039 H         1 <0>         0.0605
     68 H29        -1.4216   -5.8370   -0.5096 H         1 <0>         0.0912
     69 H30        -1.0977   -8.0949    1.3258 H         1 <0>         0.0437
     70 H31        -0.1044   -7.7249   -0.1244 H         1 <0>         0.0891
     71 H32         1.0925   -9.2291    1.4949 H         1 <0>         0.1001
     72 H33         1.9424   -7.6643    1.2595 H         1 <0>         0.0618
     73 H34         0.7475   -6.3731    4.4776 H         1 <0>         0.0994
     74 H35         1.7375   -5.9645    3.0355 H         1 <0>         0.0616
     75 H36        -0.4553   -4.8284    2.8983 H         1 <0>         0.0869
     76 H37        -1.3031   -6.3997    3.0948 H         1 <0>         0.0443
@<TRIPOS>BOND
     1    1    2 1
     2    1   40 1
     3    1   41 1
     4    1   42 1
     5    2    7 ar
     6    2    3 ar
     7    3    4 ar
     8    3   43 1
     9    4    5 ar
    10    4   44 1
    11    5    6 ar
    12    5    8 1
    13    6    7 ar
    14    6   45 1
    15    7   46 1
    16    8   12 1
    17    8    9 1
    18    9   10 2
    19    9   17 1
    20   10   11 1
    21   10   47 1
    22   11   12 2
    23   11   13 1
    24   13   14 1
    25   13   15 1
    26   13   16 1
    27   14   48 1
    28   14   49 1
    29   14   50 1
    30   15   51 1
    31   15   52 1
    32   15   53 1
    33   16   54 1
    34   16   55 1
    35   16   56 1
    36   17   18 am
    37   17   57 1
    38   18   19 2
    39   18   20 am
    40   20   21 1
    41   20   58 1
    42   21   26 ar
    43   21   22 ar
    44   22   23 ar
    45   22   59 1
    46   23   24 ar
    47   23   60 1
    48   24   25 ar
    49   24   31 1
    50   25   30 ar
    51   25   26 ar
    52   26   27 ar
    53   27   28 ar
    54   27   61 1
    55   28   29 ar
    56   28   62 1
    57   29   30 ar
    58   29   63 1
    59   30   64 1
    60   31   32 1
    61   32   33 1
    62   32   65 1
    63   32   66 1
    64   33   34 1
    65   33   67 1
    66   33   68 1
    67   34   39 1
    68   34   35 1
    69   35   36 1
    70   35   69 1
    71   35   70 1
    72   36   37 1
    73   36   71 1
    74   36   72 1
    75   37   38 1
    76   38   39 1
    77   38   73 1
    78   38   74 1
    79   39   75 1
    80   39   76 1
@<TRIPOS>MOLECULE
ZINC03961852
   50    53     0     0     0
SMALL
USER_CHARGES
N-cyclopropyl-3-[4-(cyclopropylmethylcarbamoyl)phenyl]-4-methyl-benzamide
@<TRIPOS>ATOM
      1 C1          1.1633    3.6057    0.0103 C.3       1 <0>        -0.1258
      2 C2          1.1829    2.0989    0.0020 C.ar      1 <0>        -0.0395
      3 C3          2.3891    1.4256   -0.0126 C.ar      1 <0>        -0.1254
      4 C4          2.4158    0.0456   -0.0208 C.ar      1 <0>        -0.0769
      5 C5          1.2214   -0.6784   -0.0132 C.ar      1 <0>        -0.1406
      6 C6          0.0021   -0.0041    0.0020 C.ar      1 <0>        -0.0368
      7 C7         -0.0168    1.3875    0.0097 C.ar      1 <0>        -0.0642
      8 C8         -1.3103    2.1127    0.0197 C.ar      1 <0>        -0.0183
      9 C9         -1.5361    3.1221    0.9557 C.ar      1 <0>        -0.1114
     10 C10        -2.7343    3.7999    0.9623 C.ar      1 <0>        -0.0851
     11 C11        -3.7289    3.4683    0.0388 C.ar      1 <0>        -0.1329
     12 C12        -3.5038    2.4533   -0.8944 C.ar      1 <0>        -0.0546
     13 C13        -2.3024    1.7810   -0.9031 C.ar      1 <0>        -0.1108
     14 C14        -5.0173    4.1907    0.0488 C.2       1 <0>         0.5577
     15 O1         -5.8823    3.9021   -0.7552 O.2       1 <0>        -0.5339
     16 N1         -5.2340    5.1698    0.9493 N.am      1 <0>        -0.7243
     17 C15        -6.5118    5.8862    0.9593 C.3       1 <0>         0.1501
     18 C16        -6.4980    6.9384    2.0700 C.3       1 <0>        -0.1745
     19 C17        -7.5031    6.7737    3.2116 C.3       1 <0>        -0.1761
     20 C18        -7.7027    7.8762    2.1697 C.3       1 <0>        -0.1686
     21 C19         1.2507   -2.1567   -0.0220 C.2       1 <0>         0.5644
     22 O2          0.2104   -2.7853   -0.0158 O.2       1 <0>        -0.5308
     23 N2          2.4310   -2.8073   -0.0367 N.am      1 <0>        -0.6993
     24 C20         2.4600   -4.2719   -0.0453 C.3       1 <0>         0.0770
     25 C21         3.4650   -4.9640    0.8776 C.3       1 <0>        -0.1918
     26 C22         3.6984   -4.9505   -0.6344 C.3       1 <0>        -0.1878
     27 H1          1.1684    3.9635    1.0399 H         1 <0>         0.0784
     28 H2          2.0435    3.9834   -0.5099 H         1 <0>         0.0722
     29 H3          0.2638    3.9601   -0.4931 H         1 <0>         0.0752
     30 H4          3.3151    1.9814   -0.0185 H         1 <0>         0.1340
     31 H5          3.3618   -0.4753   -0.0326 H         1 <0>         0.1269
     32 H6         -0.9244   -0.5590    0.0075 H         1 <0>         0.1406
     33 H7         -0.7689    3.3750    1.6725 H         1 <0>         0.1327
     34 H8         -2.9073    4.5844    1.6841 H         1 <0>         0.1282
     35 H9         -4.2720    2.1959   -1.6085 H         1 <0>         0.1403
     36 H10        -2.1282    0.9963   -1.6244 H         1 <0>         0.1338
     37 H11        -4.5438    5.4001    1.5909 H         1 <0>         0.4008
     38 H12        -6.6614    6.3758   -0.0031 H         1 <0>         0.0743
     39 H13        -7.3228    5.1802    1.1377 H         1 <0>         0.0720
     40 H14        -5.5188    7.3490    2.3164 H         1 <0>         0.1105
     41 H15        -8.1743    5.9158    3.1714 H         1 <0>         0.0977
     42 H16        -7.1853    7.0759    4.2095 H         1 <0>         0.0971
     43 H17        -7.5162    8.9037    2.4822 H         1 <0>         0.0993
     44 H18        -8.5050    7.7439    1.4438 H         1 <0>         0.0989
     45 H19         3.2612   -2.3057   -0.0416 H         1 <0>         0.4012
     46 H20         1.4977   -4.7603   -0.1986 H         1 <0>         0.1402
     47 H21         4.1046   -4.3296    1.4913 H         1 <0>         0.0976
     48 H22         3.1639   -5.9080    1.3320 H         1 <0>         0.1046
     49 H23         3.5508   -5.8855   -1.1748 H         1 <0>         0.1059
     50 H24         4.4913   -4.3072   -1.0159 H         1 <0>         0.0979
@<TRIPOS>BOND
     1    1    2 1
     2    1   27 1
     3    1   28 1
     4    1   29 1
     5    2    7 ar
     6    2    3 ar
     7    3    4 ar
     8    3   30 1
     9    4    5 ar
    10    4   31 1
    11    5    6 ar
    12    5   21 1
    13    6    7 ar
    14    6   32 1
    15    7    8 1
    16    8   13 ar
    17    8    9 ar
    18    9   10 ar
    19    9   33 1
    20   10   11 ar
    21   10   34 1
    22   11   12 ar
    23   11   14 1
    24   12   13 ar
    25   12   35 1
    26   13   36 1
    27   14   15 2
    28   14   16 am
    29   16   17 1
    30   16   37 1
    31   17   18 1
    32   17   38 1
    33   17   39 1
    34   18   20 1
    35   18   19 1
    36   18   40 1
    37   19   20 1
    38   19   41 1
    39   19   42 1
    40   20   43 1
    41   20   44 1
    42   21   22 2
    43   21   23 am
    44   23   24 1
    45   23   45 1
    46   24   26 1
    47   24   25 1
    48   24   46 1
    49   25   26 1
    50   25   47 1
    51   25   48 1
    52   26   49 1
    53   26   50 1
@<TRIPOS>MOLECULE
ZINC01487129
   47    50     0     0     0
SMALL
USER_CHARGES
4-[5-(4-fluorophenyl)-3-(4-piperidyl)imidazol-4-yl]-2-methoxy-pyrimidine
@<TRIPOS>ATOM
      1 C1          7.6789    2.7632   -0.6471 C.3       1 <0>         0.0413
      2 O1          6.2516    2.8242   -0.6832 O.3       1 <0>        -0.2801
      3 C2          5.5788    1.7089   -0.3110 C.ar      1 <0>         0.5211
      4 N1          6.2627    0.6379    0.0602 N.ar      1 <0>        -0.5660
      5 C3          5.6444   -0.4736    0.4311 C.ar      1 <0>         0.2033
      6 C4          4.2632   -0.5101    0.4350 C.ar      1 <0>        -0.2904
      7 C5          3.5655    0.6363    0.0318 C.ar      1 <0>         0.2945
      8 N2          4.2577    1.7192   -0.3286 N.ar      1 <0>        -0.5016
      9 C6          2.0918    0.6482    0.0120 C.2       1 <0>        -0.0007
     10 C7          1.2661    1.7442    0.1952 C.2       1 <0>         0.1377
     11 N3         -0.0031    1.3104    0.0993 N.2       1 <0>        -0.4681
     12 C8         -0.0103    0.0262   -0.1296 C.2       1 <0>         0.2163
     13 N4          1.2578   -0.4292   -0.1922 N.pl3     1 <0>        -0.4493
     14 C9          1.6718   -1.8138   -0.4325 C.3       1 <0>         0.1123
     15 C10         1.0088   -2.3314   -1.7120 C.3       1 <0>        -0.1605
     16 C11         1.3952   -3.7971   -1.9239 C.3       1 <0>         0.0024
     17 C12         1.6216   -4.1437    0.4638 C.3       1 <0>         0.0017
     18 C13         1.2408   -2.6889    0.7478 C.3       1 <0>        -0.1638
     19 C14         1.7005    3.1377    0.4491 C.ar      1 <0>        -0.0327
     20 C15         2.8373    3.3870    1.2176 C.ar      1 <0>        -0.0381
     21 C16         3.2400    4.6861    1.4480 C.ar      1 <0>        -0.1542
     22 C17         2.5118    5.7427    0.9250 C.ar      1 <0>         0.1164
     23 C18         1.3789    5.5001    0.1648 C.ar      1 <0>        -0.1570
     24 C19         0.9707    4.2045   -0.0747 C.ar      1 <0>        -0.0531
     25 F1          2.9075    7.0134    1.1573 F         1 <0>        -0.1350
     26 H1          8.0916    3.7196   -0.9680 H         1 <0>         0.1114
     27 H2          8.0078    2.5483    0.3696 H         1 <0>         0.0676
     28 H3          8.0258    1.9751   -1.3155 H         1 <0>         0.0663
     29 H4          6.2140   -1.3404    0.7321 H         1 <0>         0.1768
     30 H5          3.7343   -1.4019    0.7371 H         1 <0>         0.1421
     31 H6         -0.8961   -0.5796   -0.2511 H         1 <0>         0.2141
     32 H7          2.7555   -1.8564   -0.5409 H         1 <0>         0.1249
     33 H8         -0.0742   -2.2514   -1.6187 H         1 <0>         0.1022
     34 H9          1.3463   -1.7386   -2.5622 H         1 <0>         0.1234
     35 H10         2.4771   -3.8745   -2.0319 H         1 <0>         0.1355
     36 H11         0.9123   -4.1731   -2.8258 H         1 <0>         0.1438
     37 H12         2.7024   -4.2195    0.3445 H         1 <0>         0.1357
     38 H13         1.3031   -4.7715    1.2959 H         1 <0>         0.1440
     39 H14         1.7438   -2.3513    1.6539 H         1 <0>         0.1233
     40 H15         0.1616   -2.6141    0.8813 H         1 <0>         0.1036
     41 H16         3.4032    2.5643    1.6291 H         1 <0>         0.1155
     42 H17         4.1221    4.8801    2.0402 H         1 <0>         0.1356
     43 H18         0.8144    6.3269   -0.2404 H         1 <0>         0.1409
     44 H19         0.0872    4.0164   -0.6667 H         1 <0>         0.1372
     45 N5          0.9527   -4.6015   -0.7690 N.4       1 <0>        -0.5188
     46 H20         1.1862   -5.5876   -0.9342 H         1 <0>         0.4427
     47 H21        -0.0635   -4.5042   -0.6585 H         1 <0>         0.4356
@<TRIPOS>BOND
     1    1    2 1
     2    1   26 1
     3    1   27 1
     4    1   28 1
     5    2    3 1
     6    3    8 ar
     7    3    4 ar
     8    4    5 ar
     9    5    6 ar
    10    5   29 1
    11    6    7 ar
    12    6   30 1
    13    7    8 ar
    14    7    9 1
    15    9   13 1
    16    9   10 2
    17   10   11 1
    18   10   19 1
    19   11   12 2
    20   12   13 1
    21   12   31 1
    22   13   14 1
    23   14   18 1
    24   14   15 1
    25   14   32 1
    26   15   16 1
    27   15   33 1
    28   15   34 1
    29   16   35 1
    30   16   36 1
    31   16   45 1
    32   17   18 1
    33   17   37 1
    34   17   38 1
    35   17   45 1
    36   18   39 1
    37   18   40 1
    38   19   24 ar
    39   19   20 ar
    40   20   21 ar
    41   20   41 1
    42   21   22 ar
    43   21   42 1
    44   22   23 ar
    45   22   25 1
    46   23   24 ar
    47   23   43 1
    48   24   44 1
    49   45   46 1
    50   45   47 1
@<TRIPOS>MOLECULE
ZINC01487129
   48    51     0     0     0
SMALL
USER_CHARGES
4-[5-(4-fluorophenyl)-3-(4-piperidyl)imidazol-4-yl]-2-methoxy-pyrimidine
@<TRIPOS>ATOM
      1 C1          7.6789    2.7632   -0.6471 C.3       1 <0>         0.0367
      2 O1          6.2516    2.8242   -0.6832 O.3       1 <0>        -0.2749
      3 C2          5.5788    1.7089   -0.3110 C.ar      1 <0>         0.5307
      4 N1          6.2627    0.6379    0.0602 N.ar      1 <0>        -0.5433
      5 C3          5.6444   -0.4736    0.4311 C.ar      1 <0>         0.2176
      6 C4          4.2632   -0.5101    0.4350 C.ar      1 <0>        -0.2743
      7 C5          3.5655    0.6363    0.0318 C.ar      1 <0>         0.2571
      8 N2          4.2577    1.7192   -0.3286 N.ar      1 <0>        -0.4967
      9 C6          2.0918    0.6482    0.0120 C.2       1 <0>         0.0836
     10 C7          1.2661    1.7442    0.1952 C.2       1 <0>         0.1722
     11 C8         -0.0103    0.0262   -0.1296 C.cat     1 <0>         0.2996
     12 N3          1.2578   -0.4292   -0.1922 N.pl3     1 <0>        -0.3989
     13 C9          1.6718   -1.8138   -0.4325 C.3       1 <0>         0.1005
     14 C10         1.0088   -2.3314   -1.7120 C.3       1 <0>        -0.1646
     15 C11         1.3952   -3.7971   -1.9239 C.3       1 <0>         0.0016
     16 C12         1.6216   -4.1437    0.4638 C.3       1 <0>         0.0009
     17 C13         1.2408   -2.6889    0.7478 C.3       1 <0>        -0.1676
     18 C14         1.7005    3.1377    0.4491 C.ar      1 <0>        -0.0954
     19 C15         2.8373    3.3870    1.2176 C.ar      1 <0>        -0.0120
     20 C16         3.2400    4.6861    1.4480 C.ar      1 <0>        -0.1492
     21 C17         2.5118    5.7427    0.9250 C.ar      1 <0>         0.1559
     22 C18         1.3789    5.5001    0.1648 C.ar      1 <0>        -0.1506
     23 C19         0.9707    4.2045   -0.0747 C.ar      1 <0>        -0.0546
     24 F1          2.9075    7.0134    1.1573 F         1 <0>        -0.1172
     25 H1          8.0916    3.7196   -0.9680 H         1 <0>         0.1192
     26 H2          8.0078    2.5483    0.3696 H         1 <0>         0.0734
     27 H3          8.0258    1.9751   -1.3155 H         1 <0>         0.0724
     28 H4          6.2140   -1.3404    0.7321 H         1 <0>         0.1889
     29 H5          3.7343   -1.4019    0.7371 H         1 <0>         0.1483
     30 H6         -0.8961   -0.5796   -0.2511 H         1 <0>         0.2658
     31 H7          2.7555   -1.8564   -0.5409 H         1 <0>         0.1500
     32 H8         -0.0742   -2.2514   -1.6187 H         1 <0>         0.1075
     33 H9          1.3463   -1.7386   -2.5622 H         1 <0>         0.1324
     34 H10         2.4771   -3.8745   -2.0319 H         1 <0>         0.1425
     35 H11         0.9123   -4.1731   -2.8258 H         1 <0>         0.1537
     36 H12         2.7024   -4.2195    0.3445 H         1 <0>         0.1425
     37 H13         1.3031   -4.7715    1.2959 H         1 <0>         0.1541
     38 H14         1.7438   -2.3513    1.6539 H         1 <0>         0.1325
     39 H15         0.1616   -2.6141    0.8813 H         1 <0>         0.1098
     40 H16         3.4032    2.5643    1.6291 H         1 <0>         0.1262
     41 H17         4.1221    4.8801    2.0402 H         1 <0>         0.1505
     42 H18         0.8144    6.3269   -0.2404 H         1 <0>         0.1546
     43 H19         0.0872    4.0164   -0.6667 H         1 <0>         0.1370
     44 N4          0.9527   -4.6015   -0.7690 N.4       1 <0>        -0.5215
     45 H20         1.1862   -5.5876   -0.9342 H         1 <0>         0.4518
     46 H21        -0.0635   -4.5042   -0.6585 H         1 <0>         0.4373
     47 N5         -0.0037    1.3108    0.0994 N.pl3     1 <0>        -0.4746
     48 H22        -0.8393    1.9002    0.1921 H         1 <0>         0.4888
@<TRIPOS>BOND
     1    1    2 1
     2    1   25 1
     3    1   26 1
     4    1   27 1
     5    2    3 1
     6    3    8 ar
     7    3    4 ar
     8    4    5 ar
     9    5    6 ar
    10    5   28 1
    11    6    7 ar
    12    6   29 1
    13    7    8 ar
    14    7    9 1
    15    9   12 1
    16    9   10 2
    17   10   18 1
    18   10   47 1
    19   11   12 1
    20   11   30 1
    21   11   47 2
    22   12   13 1
    23   13   17 1
    24   13   14 1
    25   13   31 1
    26   14   15 1
    27   14   32 1
    28   14   33 1
    29   15   34 1
    30   15   35 1
    31   15   44 1
    32   16   17 1
    33   16   36 1
    34   16   37 1
    35   16   44 1
    36   17   38 1
    37   17   39 1
    38   18   23 ar
    39   18   19 ar
    40   19   20 ar
    41   19   40 1
    42   20   21 ar
    43   20   41 1
    44   21   22 ar
    45   21   24 1
    46   22   23 ar
    47   22   42 1
    48   23   43 1
    49   44   45 1
    50   44   46 1
    51   47   48 1
