@<TRIPOS>MOLECULE
ZINC00499303
   33    35     0     0     0
SMALL
USER_CHARGES

@<TRIPOS>ATOM
      1 C1          0.0633    1.9562    0.1444 C.ar      1 <0>        -0.0861
      2 C2          1.3000    2.5594    0.0805 C.ar      1 <0>        -0.1167
      3 C3          2.4520    1.7806    0.0586 C.ar      1 <0>         0.1080
      4 C4          2.3405    0.3787    0.1030 C.ar      1 <0>        -0.0950
      5 C5          1.0798   -0.2180    0.1672 C.ar      1 <0>        -0.0560
      6 C6         -0.0481    0.5722    0.1876 C.ar      1 <0>        -0.0601
      7 Cl1        -1.6176   -0.1654    0.2675 Cl        1 <0>        -0.0701
      8 C7          3.7098   -0.1350    0.0662 C.2       1 <0>        -0.1334
      9 C8          4.5333    0.9246    0.0082 C.2       1 <0>         0.0678
     10 N1          3.7951    2.0792   -0.0021 N.pl3     1 <0>        -0.5897
     11 H1          4.1643    2.9751   -0.0455 H         1 <0>         0.4171
     12 C9          6.0417    0.8519   -0.0273 C.3       1 <0>        -0.0463
     13 H2          6.4460    1.8262   -0.3016 H         1 <0>         0.1107
     14 C10         6.4784   -0.1902   -1.0589 C.3       1 <0>        -0.0955
     15 C11         6.5781   -1.5612   -0.3956 C.3       1 <0>        -0.1257
     16 C12         5.5219   -1.7044    0.6976 C.3       1 <0>        -0.1462
     17 C13         4.1270   -1.5828    0.0790 C.3       1 <0>        -0.0515
     18 C14         6.5577    0.4588    1.3329 C.2       1 <0>         0.5463
     19 O1          7.6002   -0.1530    1.4325 O.2       1 <0>        -0.5356
     20 N2          5.8608    0.7872    2.4388 N.am      1 <0>        -0.8610
     21 H3         -0.8283    2.5653    0.1655 H         1 <0>         0.1377
     22 H4          1.3750    3.6362    0.0471 H         1 <0>         0.1312
     23 H5          0.9895   -1.2937    0.2010 H         1 <0>         0.1339
     24 H6          5.7469   -0.2302   -1.8660 H         1 <0>         0.0762
     25 H7          7.4509    0.0874   -1.4655 H         1 <0>         0.0792
     26 H8          6.4256   -2.3361   -1.1468 H         1 <0>         0.0648
     27 H9          7.5688   -1.6770    0.0439 H         1 <0>         0.0862
     28 H10         5.6237   -2.6787    1.1756 H         1 <0>         0.0692
     29 H11         5.6595   -0.9190    1.4408 H         1 <0>         0.0872
     30 H12         3.4160   -2.1608    0.6692 H         1 <0>         0.0721
     31 H13         4.1475   -1.9643   -0.9419 H         1 <0>         0.0767
     32 H14         5.0271    1.2766    2.3591 H         1 <0>         0.4004
     33 H15         6.1929    0.5342    3.3143 H         1 <0>         0.4042
@<TRIPOS>BOND
     1    1    6 ar
     2    1    2 ar
     3    1   21 1
     4    2    3 ar
     5    2   22 1
     6    3   10 1
     7    3    4 ar
     8    4    5 ar
     9    4    8 1
    10    5    6 ar
    11    5   23 1
    12    6    7 1
    13    8   17 1
    14    8    9 2
    15    9   10 1
    16    9   12 1
    17   10   11 1
    18   12   13 1
    19   12   14 1
    20   12   18 1
    21   14   15 1
    22   14   24 1
    23   14   25 1
    24   15   16 1
    25   15   26 1
    26   15   27 1
    27   16   17 1
    28   16   28 1
    29   16   29 1
    30   17   30 1
    31   17   31 1
    32   18   19 2
    33   18   20 am
    34   20   32 1
    35   20   33 1
@<TRIPOS>MOLECULE
ZINC00499304
   33    35     0     0     0
SMALL
USER_CHARGES

@<TRIPOS>ATOM
      1 C1          0.0365    1.1541   -0.9419 C.ar      1 <0>        -0.0874
      2 C2          1.1763    1.9157   -0.8061 C.ar      1 <0>        -0.1166
      3 C3          2.4046    1.2966   -0.6015 C.ar      1 <0>         0.1073
      4 C4          2.4692   -0.1074   -0.5343 C.ar      1 <0>        -0.0921
      5 C5          1.3051   -0.8657   -0.6742 C.ar      1 <0>        -0.0567
      6 C6          0.0991   -0.2320   -0.8764 C.ar      1 <0>        -0.0601
      7 Cl1        -1.3508   -1.1707   -1.0507 Cl        1 <0>        -0.0711
      8 C7          3.8780   -0.4350   -0.3144 C.2       1 <0>        -0.1420
      9 C8          4.5546    0.7240   -0.2594 C.2       1 <0>         0.0908
     10 N1          3.6869    1.7703   -0.4346 N.pl3     1 <0>        -0.5887
     11 H1          3.9390    2.7070   -0.4400 H         1 <0>         0.4136
     12 C9          6.0417    0.8519   -0.0273 C.3       1 <0>        -0.0411
     13 H2          6.2673    0.6268    1.0151 H         1 <0>         0.1158
     14 C10         6.7862   -0.1305   -0.9337 C.3       1 <0>        -0.0992
     15 C11         6.9426   -1.4712   -0.2215 C.3       1 <0>        -0.1225
     16 C12         5.7362   -1.7454    0.6732 C.3       1 <0>        -0.1253
     17 C13         4.4699   -1.8145   -0.1841 C.3       1 <0>        -0.0492
     18 C14         6.4803    2.2584   -0.3438 C.2       1 <0>         0.5113
     19 O1          6.7591    2.5647   -1.4837 O.2       1 <0>        -0.5264
     20 N2          6.5629    3.1760    0.6399 N.am      1 <0>        -0.8552
     21 H3         -0.9158    1.6397   -1.0963 H         1 <0>         0.1374
     22 H4          1.1160    2.9927   -0.8589 H         1 <0>         0.1298
     23 H5          1.3502   -1.9436   -0.6237 H         1 <0>         0.1343
     24 H6          6.2215   -0.2731   -1.8551 H         1 <0>         0.0786
     25 H7          7.7713    0.2708   -1.1715 H         1 <0>         0.0781
     26 H8          7.0279   -2.2650   -0.9636 H         1 <0>         0.0728
     27 H9          7.8457   -1.4513    0.3886 H         1 <0>         0.0659
     28 H10         5.8763   -2.6941    1.1913 H         1 <0>         0.0713
     29 H11         5.6365   -0.9434    1.4045 H         1 <0>         0.0673
     30 H12         3.7459   -2.4775    0.2896 H         1 <0>         0.0737
     31 H13         4.7210   -2.1973   -1.1733 H         1 <0>         0.0763
     32 H14         6.3400    2.9311    1.5516 H         1 <0>         0.4040
     33 H15         6.8453    4.0814    0.4362 H         1 <0>         0.4051
@<TRIPOS>BOND
     1    1    6 ar
     2    1    2 ar
     3    1   21 1
     4    2    3 ar
     5    2   22 1
     6    3   10 1
     7    3    4 ar
     8    4    5 ar
     9    4    8 1
    10    5    6 ar
    11    5   23 1
    12    6    7 1
    13    8   17 1
    14    8    9 2
    15    9   10 1
    16    9   12 1
    17   10   11 1
    18   12   13 1
    19   12   14 1
    20   12   18 1
    21   14   15 1
    22   14   24 1
    23   14   25 1
    24   15   16 1
    25   15   26 1
    26   15   27 1
    27   16   17 1
    28   16   28 1
    29   16   29 1
    30   17   30 1
    31   17   31 1
    32   18   19 2
    33   18   20 am
    34   20   32 1
    35   20   33 1
