@<TRIPOS>MOLECULE
ZINC04785178
   62    65     0     0     0
SMALL
USER_CHARGES

@<TRIPOS>ATOM
      1 C1          2.1255   -5.1707   -5.7064 C.3       1 <0>        -0.1393
      2 C2          1.5501   -4.3120   -4.5783 C.3       1 <0>         0.1155
      3 C3          2.2103   -4.7012   -3.2530 C.3       1 <0>        -0.1376
      4 C4          1.6734   -3.7969   -2.1392 C.3       1 <0>        -0.0082
      5 C5          1.9364   -2.3347   -2.5125 C.3       1 <0>        -0.1394
      6 C6          1.2869   -2.0370   -3.8664 C.3       1 <0>         0.0554
      7 O1          1.8076   -2.9330   -4.8504 O.3       1 <0>        -0.3704
      8 C7          0.1685   -4.0214   -1.9785 C.3       1 <0>        -0.1655
      9 C8         -0.0939   -5.4872   -1.6275 C.3       1 <0>         0.1150
     10 N1         -1.5341   -5.7001   -1.4643 N.am      1 <0>        -0.5972
     11 C9         -2.3329   -6.1977   -2.5870 C.3       1 <0>         0.1276
     12 C10        -2.1744   -7.6926   -2.6926 C.ar      1 <0>        -0.1073
     13 C11        -1.0707   -8.2274   -3.3303 C.ar      1 <0>        -0.1071
     14 C12        -0.9253   -9.5986   -3.4272 C.ar      1 <0>        -0.1196
     15 C13        -1.8835  -10.4352   -2.8859 C.ar      1 <0>        -0.1137
     16 C14        -2.9868   -9.9005   -2.2474 C.ar      1 <0>        -0.1205
     17 C15        -3.1300   -8.5292   -2.1468 C.ar      1 <0>        -0.1025
     18 C16        -2.1242   -5.4380   -0.2813 C.2       1 <0>         0.6021
     19 O2         -1.4763   -4.9538    0.6279 O.2       1 <0>        -0.5090
     20 C17        -3.5473   -5.7366   -0.0896 C.2       1 <0>        -0.0794
     21 C18        -4.2330   -5.6532    1.0882 C.2       1 <0>        -0.1156
     22 C19        -5.5577   -6.0255    0.8111 C.2       1 <0>        -0.2188
     23 C20        -5.6217   -6.3161   -0.5070 C.2       1 <0>        -0.0173
     24 O3         -4.4095   -6.1360   -1.0473 O.3       1 <0>        -0.1592
     25 C21         2.3743   -4.1208   -0.8451 C.ar      1 <0>        -0.0717
     26 C22         3.4058   -5.0409   -0.8291 C.ar      1 <0>        -0.1229
     27 C23         4.0487   -5.3380    0.3580 C.ar      1 <0>        -0.1196
     28 C24         3.6605   -4.7146    1.5291 C.ar      1 <0>        -0.1233
     29 C25         2.6296   -3.7938    1.5130 C.ar      1 <0>        -0.1142
     30 C26         1.9895   -3.4935    0.3252 C.ar      1 <0>        -0.1020
     31 C27         0.0402   -4.5400   -4.4828 C.3       1 <0>        -0.2121
     32 H1          3.2012   -5.0085   -5.7740 H         1 <0>         0.0641
     33 H2          1.9290   -6.2226   -5.4987 H         1 <0>         0.0703
     34 H3          1.6561   -4.8928   -6.6501 H         1 <0>         0.0653
     35 H4          1.9781   -5.7407   -3.0218 H         1 <0>         0.0760
     36 H5          3.2902   -4.5774   -3.3338 H         1 <0>         0.0790
     37 H6          1.5084   -1.6820   -1.7517 H         1 <0>         0.0758
     38 H7          3.0108   -2.1632   -2.5783 H         1 <0>         0.0757
     39 H8          0.2077   -2.1696   -3.7888 H         1 <0>         0.0553
     40 H9          1.5071   -1.0099   -4.1572 H         1 <0>         0.0957
     41 H10        -0.2108   -3.3831   -1.1805 H         1 <0>         0.0732
     42 H11        -0.3373   -3.7751   -2.9121 H         1 <0>         0.1055
     43 H12         0.2792   -6.1251   -2.4288 H         1 <0>         0.0862
     44 H13         0.4178   -5.7354   -0.6975 H         1 <0>         0.0871
     45 H14        -3.3825   -5.9543   -2.4222 H         1 <0>         0.1149
     46 H15        -1.9922   -5.7301   -3.5108 H         1 <0>         0.0914
     47 H16        -0.3221   -7.5738   -3.7532 H         1 <0>         0.1189
     48 H17        -0.0633  -10.0164   -3.9261 H         1 <0>         0.1232
     49 H18        -1.7703  -11.5065   -2.9622 H         1 <0>         0.1224
     50 H19        -3.7355  -10.5541   -1.8248 H         1 <0>         0.1222
     51 H20        -3.9901   -8.1115   -1.6447 H         1 <0>         0.1243
     52 H21        -3.8335   -5.3580    2.0472 H         1 <0>         0.1595
     53 H22        -6.3725   -6.0715    1.5185 H         1 <0>         0.1571
     54 H23        -6.5055   -6.6375   -1.0380 H         1 <0>         0.2100
     55 H24         3.7092   -5.5279   -1.7441 H         1 <0>         0.1234
     56 H25         4.8542   -6.0574    0.3705 H         1 <0>         0.1196
     57 H26         4.1623   -4.9472    2.4567 H         1 <0>         0.1190
     58 H27         2.3260   -3.3070    2.4281 H         1 <0>         0.1198
     59 H28         1.1865   -2.7714    0.3119 H         1 <0>         0.1186
     60 H29        -0.1742   -5.2094   -3.6497 H         1 <0>         0.0861
     61 H30        -0.4617   -3.5861   -4.3209 H         1 <0>         0.0762
     62 H31        -0.3191   -4.9869   -5.4098 H         1 <0>         0.0623
@<TRIPOS>BOND
     1    1    2 1
     2    1   32 1
     3    1   33 1
     4    1   34 1
     5    2    7 1
     6    2    3 1
     7    2   31 1
     8    3    4 1
     9    3   35 1
    10    3   36 1
    11    4    5 1
    12    4    8 1
    13    4   25 1
    14    5    6 1
    15    5   37 1
    16    5   38 1
    17    6    7 1
    18    6   39 1
    19    6   40 1
    20    8    9 1
    21    8   41 1
    22    8   42 1
    23    9   10 1
    24    9   43 1
    25    9   44 1
    26   10   11 1
    27   10   18 am
    28   11   12 1
    29   11   45 1
    30   11   46 1
    31   12   17 ar
    32   12   13 ar
    33   13   14 ar
    34   13   47 1
    35   14   15 ar
    36   14   48 1
    37   15   16 ar
    38   15   49 1
    39   16   17 ar
    40   16   50 1
    41   17   51 1
    42   18   19 2
    43   18   20 1
    44   20   24 1
    45   20   21 2
    46   21   22 1
    47   21   52 1
    48   22   23 2
    49   22   53 1
    50   23   24 1
    51   23   54 1
    52   25   30 ar
    53   25   26 ar
    54   26   27 ar
    55   26   55 1
    56   27   28 ar
    57   27   56 1
    58   28   29 ar
    59   28   57 1
    60   29   30 ar
    61   29   58 1
    62   30   59 1
    63   31   60 1
    64   31   61 1
    65   31   62 1
@<TRIPOS>MOLECULE
ZINC04785180
   62    65     0     0     0
SMALL
USER_CHARGES

@<TRIPOS>ATOM
      1 C1          0.0900    1.5665    0.5148 C.3       1 <0>        -0.1391
      2 C2          0.1233    0.0816    0.1472 C.3       1 <0>         0.1134
      3 C3         -1.2995   -0.4830    0.1742 C.3       1 <0>        -0.1305
      4 C4         -1.2513   -1.9824   -0.1357 C.3       1 <0>        -0.0095
      5 C5         -0.3326   -2.6726    0.8771 C.3       1 <0>        -0.1447
      6 C6          1.0528   -2.0234    0.8230 C.3       1 <0>         0.0550
      7 O1          0.9326   -0.6246    1.0897 O.3       1 <0>        -0.3701
      8 C7         -0.7063   -2.1956   -1.5494 C.3       1 <0>        -0.1539
      9 C8         -0.8281   -3.6737   -1.9254 C.3       1 <0>         0.0936
     10 N1         -0.1772   -3.9041   -3.2174 N.am      1 <0>        -0.5982
     11 C9          1.2230   -4.3323   -3.2662 C.3       1 <0>         0.1557
     12 C10         1.2888   -5.8378   -3.2493 C.ar      1 <0>        -0.1107
     13 C11         1.3597   -6.5130   -2.0452 C.ar      1 <0>        -0.1070
     14 C12         1.4200   -7.8940   -2.0297 C.ar      1 <0>        -0.1241
     15 C13         1.4091   -8.5997   -3.2183 C.ar      1 <0>        -0.1143
     16 C14         1.3373   -7.9244   -4.4224 C.ar      1 <0>        -0.1225
     17 C15         1.2726   -6.5437   -4.4377 C.ar      1 <0>        -0.0932
     18 C16        -0.8665   -3.7222   -4.3612 C.2       1 <0>         0.6044
     19 O2         -0.3562   -4.0016   -5.4301 O.2       1 <0>        -0.5164
     20 C17        -2.2315   -3.1876   -4.3177 C.2       1 <0>        -0.0849
     21 C18        -3.0757   -3.0554   -5.3826 C.2       1 <0>        -0.1168
     22 C19        -4.2683   -2.5060   -4.8864 C.2       1 <0>        -0.2252
     23 C20        -4.1018   -2.3293   -3.5571 C.2       1 <0>        -0.0049
     24 O3         -2.8751   -2.7458   -3.2173 O.3       1 <0>        -0.1458
     25 C21        -2.6385   -2.5627   -0.0354 C.ar      1 <0>        -0.0603
     26 C22        -3.7290   -1.7257    0.1093 C.ar      1 <0>        -0.1192
     27 C23        -5.0015   -2.2580    0.2013 C.ar      1 <0>        -0.1198
     28 C24        -5.1834   -3.6273    0.1482 C.ar      1 <0>        -0.1228
     29 C25        -4.0929   -4.4642    0.0026 C.ar      1 <0>        -0.1159
     30 C26        -2.8208   -3.9317   -0.0937 C.ar      1 <0>        -0.1188
     31 C27         0.7116   -0.0837   -1.2555 C.3       1 <0>        -0.1928
     32 H1          1.1031    1.9681    0.4965 H         1 <0>         0.0648
     33 H2         -0.5274    2.1050   -0.2042 H         1 <0>         0.0709
     34 H3         -0.3296    1.6841    1.5139 H         1 <0>         0.0635
     35 H4         -1.7338   -0.3290    1.1619 H         1 <0>         0.0769
     36 H5         -1.9070    0.0244   -0.5751 H         1 <0>         0.0768
     37 H6         -0.7474   -2.5628    1.8791 H         1 <0>         0.0768
     38 H7         -0.2487   -3.7311    0.6306 H         1 <0>         0.0748
     39 H8          1.6987   -2.4820    1.5717 H         1 <0>         0.0956
     40 H9          1.4839   -2.1688   -0.1675 H         1 <0>         0.0550
     41 H10        -1.2791   -1.5930   -2.2543 H         1 <0>         0.0774
     42 H11         0.3414   -1.8971   -1.5837 H         1 <0>         0.1006
     43 H12        -0.3459   -4.2838   -1.1616 H         1 <0>         0.0804
     44 H13        -1.8815   -3.9451   -1.9956 H         1 <0>         0.1020
     45 H14         1.6856   -3.9586   -4.1797 H         1 <0>         0.0952
     46 H15         1.7546   -3.9356   -2.4012 H         1 <0>         0.0876
     47 H16         1.3682   -5.9617   -1.1166 H         1 <0>         0.1183
     48 H17         1.4761   -8.4215   -1.0890 H         1 <0>         0.1219
     49 H18         1.4569   -9.6785   -3.2062 H         1 <0>         0.1215
     50 H19         1.3290   -8.4758   -5.3510 H         1 <0>         0.1223
     51 H20         1.2127   -6.0163   -5.3783 H         1 <0>         0.1290
     52 H21        -2.8665   -3.3219   -6.4081 H         1 <0>         0.1579
     53 H22        -5.1525   -2.2689   -5.4594 H         1 <0>         0.1550
     54 H23        -4.8379   -1.9223   -2.8797 H         1 <0>         0.2034
     55 H24        -3.5869   -0.6559    0.1508 H         1 <0>         0.1237
     56 H25        -5.8534   -1.6041    0.3151 H         1 <0>         0.1203
     57 H26        -6.1774   -4.0432    0.2208 H         1 <0>         0.1191
     58 H27        -4.2349   -5.5341   -0.0386 H         1 <0>         0.1190
     59 H28        -1.9692   -4.5854   -0.2113 H         1 <0>         0.1209
     60 H29         1.3063    0.7948   -1.5059 H         1 <0>         0.0605
     61 H30         1.3446   -0.9706   -1.2817 H         1 <0>         0.0743
     62 H31        -0.0971   -0.1930   -1.9781 H         1 <0>         0.0745
@<TRIPOS>BOND
     1    1    2 1
     2    1   32 1
     3    1   33 1
     4    1   34 1
     5    2    7 1
     6    2    3 1
     7    2   31 1
     8    3    4 1
     9    3   35 1
    10    3   36 1
    11    4    5 1
    12    4    8 1
    13    4   25 1
    14    5    6 1
    15    5   37 1
    16    5   38 1
    17    6    7 1
    18    6   39 1
    19    6   40 1
    20    8    9 1
    21    8   41 1
    22    8   42 1
    23    9   10 1
    24    9   43 1
    25    9   44 1
    26   10   11 1
    27   10   18 am
    28   11   12 1
    29   11   45 1
    30   11   46 1
    31   12   17 ar
    32   12   13 ar
    33   13   14 ar
    34   13   47 1
    35   14   15 ar
    36   14   48 1
    37   15   16 ar
    38   15   49 1
    39   16   17 ar
    40   16   50 1
    41   17   51 1
    42   18   19 2
    43   18   20 1
    44   20   24 1
    45   20   21 2
    46   21   22 1
    47   21   52 1
    48   22   23 2
    49   22   53 1
    50   23   24 1
    51   23   54 1
    52   25   30 ar
    53   25   26 ar
    54   26   27 ar
    55   26   55 1
    56   27   28 ar
    57   27   56 1
    58   28   29 ar
    59   28   57 1
    60   29   30 ar
    61   29   58 1
    62   30   59 1
    63   31   60 1
    64   31   61 1
    65   31   62 1
@<TRIPOS>MOLECULE
ZINC00856798
   73    76     0     0     0
SMALL
USER_CHARGES
N-[3-(2,2-dimethyltetrahydropyran-4-yl)-3-(2-methoxyphenyl)-propyl]-N-[(4-methoxyphenyl)methyl]furan-2-carboxamide
@<TRIPOS>ATOM
      1 C1          3.8174    2.8853   -2.8819 C.3       1 <0>        -0.1793
      2 C2          3.7615    1.3692   -2.6833 C.3       1 <0>         0.1119
      3 C3          2.3311    0.8761   -2.9169 C.3       1 <0>        -0.1297
      4 C4          1.4031    1.5153   -1.8794 C.3       1 <0>        -0.0767
      5 H1          1.3957    2.5972   -2.0123 H         1 <0>         0.0737
      6 C5          1.9134    1.1751   -0.4757 C.3       1 <0>        -0.1497
      7 C6          3.3599    1.6567   -0.3364 C.3       1 <0>         0.0581
      8 O1          4.1628    1.0482   -1.3499 O.3       1 <0>        -0.3736
      9 C7         -0.0149    0.9683   -2.0550 C.3       1 <0>        -0.0289
     10 H2          0.0046   -0.1195   -1.9896 H         1 <0>         0.0906
     11 C8         -0.9179    1.5293   -0.9547 C.3       1 <0>        -0.1263
     12 C9         -2.3077    0.8990   -1.0647 C.3       1 <0>         0.1120
     13 N1         -3.1336    1.3379    0.0629 N.am      1 <0>        -0.5982
     14 C10        -4.0062    2.5061   -0.0792 C.3       1 <0>         0.1621
     15 C11        -5.3600    2.0648   -0.5728 C.ar      1 <0>        -0.1480
     16 C12        -5.6138    2.0053   -1.9306 C.ar      1 <0>        -0.0631
     17 C13        -6.8522    1.5957   -2.3857 C.ar      1 <0>        -0.2122
     18 C14        -7.8451    1.2548   -1.4788 C.ar      1 <0>         0.1324
     19 C15        -7.5897    1.3208   -0.1167 C.ar      1 <0>        -0.1548
     20 C16        -6.3479    1.7256    0.3331 C.ar      1 <0>        -0.0528
     21 O2         -9.0658    0.8564   -1.9238 O.3       1 <0>        -0.3175
     22 C17        -9.2576    0.8122   -3.3392 C.3       1 <0>         0.0271
     23 C18        -3.0907    0.6670    1.2310 C.2       1 <0>         0.6036
     24 O3         -3.8431    0.9738    2.1369 O.2       1 <0>        -0.5173
     25 C19        -2.1373   -0.4329    1.4103 C.2       1 <0>        -0.0815
     26 C20        -2.0662   -1.2650    2.4906 C.2       1 <0>        -0.1177
     27 C21        -1.0173   -2.1633    2.2397 C.2       1 <0>        -0.2239
     28 C22        -0.4955   -1.8392    1.0361 C.2       1 <0>        -0.0091
     29 O4         -1.1730   -0.7961    0.5395 O.3       1 <0>        -0.1513
     30 C23        -0.5492    1.3810   -3.4023 C.ar      1 <0>        -0.1026
     31 C24        -0.6725    2.7208   -3.7164 C.ar      1 <0>        -0.0794
     32 C25        -1.1581    3.1000   -4.9540 C.ar      1 <0>        -0.1535
     33 C26        -1.5315    2.1400   -5.8766 C.ar      1 <0>        -0.0838
     34 C27        -1.4151    0.7993   -5.5655 C.ar      1 <0>        -0.2065
     35 C28        -0.9231    0.4161   -4.3261 C.ar      1 <0>         0.1307
     36 O5         -0.8080   -0.9024   -4.0174 O.3       1 <0>        -0.3119
     37 C29        -1.2119   -1.8403   -5.0170 C.3       1 <0>         0.0268
     38 C30         4.7047    0.6892   -3.6778 C.3       1 <0>        -0.1387
     39 H3          4.8356    3.2363   -2.7146 H         1 <0>         0.0620
     40 H4          3.5112    3.1300   -3.8990 H         1 <0>         0.0654
     41 H5          3.1451    3.3695   -2.1737 H         1 <0>         0.0619
     42 H6          2.2986   -0.2087   -2.8154 H         1 <0>         0.0707
     43 H7          2.0073    1.1589   -3.9185 H         1 <0>         0.0708
     44 H8          1.2908    1.6718    0.2685 H         1 <0>         0.0743
     45 H9          1.8714    0.0964   -0.3245 H         1 <0>         0.0716
     46 H10         3.3944    2.7405   -0.4472 H         1 <0>         0.0515
     47 H11         3.7424    1.3791    0.6458 H         1 <0>         0.0915
     48 H12        -0.9993    2.6104   -1.0674 H         1 <0>         0.0647
     49 H13        -0.4897    1.2969    0.0204 H         1 <0>         0.0778
     50 H14        -2.7745    1.2094   -1.9995 H         1 <0>         0.0796
     51 H15        -2.2165   -0.1871   -1.0472 H         1 <0>         0.0878
     52 H16        -4.1145    2.9984    0.8872 H         1 <0>         0.0942
     53 H17        -3.5678    3.2021   -0.7944 H         1 <0>         0.0878
     54 H18        -4.8418    2.2750   -2.6361 H         1 <0>         0.1218
     55 H19        -7.0486    1.5451   -3.4464 H         1 <0>         0.1269
     56 H20        -8.3612    1.0563    0.5912 H         1 <0>         0.1310
     57 H21        -6.1487    1.7775    1.3933 H         1 <0>         0.1366
     58 H22        -9.1034    1.8067   -3.7580 H         1 <0>         0.0559
     59 H23        -8.5436    0.1172   -3.7811 H         1 <0>         0.0548
     60 H24       -10.2721    0.4791   -3.5582 H         1 <0>         0.1010
     61 H25        -2.6965   -1.2386    3.3672 H         1 <0>         0.1581
     62 H26        -0.6866   -2.9609    2.8885 H         1 <0>         0.1553
     63 H27         0.3316   -2.3390    0.5539 H         1 <0>         0.2073
     64 H28        -0.3854    3.4725   -2.9960 H         1 <0>         0.1255
     65 H29        -1.2499    4.1478   -5.1991 H         1 <0>         0.1219
     66 H30        -1.9141    2.4388   -6.8414 H         1 <0>         0.1221
     67 H31        -1.7071    0.0499   -6.2863 H         1 <0>         0.1257
     68 H32        -2.2642   -1.6862   -5.2559 H         1 <0>         0.0542
     69 H33        -0.6106   -1.6961   -5.9147 H         1 <0>         0.0550
     70 H34        -1.0689   -2.8541   -4.6430 H         1 <0>         0.1001
     71 H35         4.6644   -0.3908   -3.5364 H         1 <0>         0.0625
     72 H36         4.3984    0.9342   -4.6948 H         1 <0>         0.0687
     73 H37         5.7231    1.0399   -3.5106 H         1 <0>         0.0628
@<TRIPOS>BOND
     1    1    2 1
     2    1   39 1
     3    1   40 1
     4    1   41 1
     5    2    8 1
     6    2    3 1
     7    2   38 1
     8    3    4 1
     9    3   42 1
    10    3   43 1
    11    4    5 1
    12    4    6 1
    13    4    9 1
    14    6    7 1
    15    6   44 1
    16    6   45 1
    17    7    8 1
    18    7   46 1
    19    7   47 1
    20    9   10 1
    21    9   11 1
    22    9   30 1
    23   11   12 1
    24   11   48 1
    25   11   49 1
    26   12   13 1
    27   12   50 1
    28   12   51 1
    29   13   14 1
    30   13   23 am
    31   14   15 1
    32   14   52 1
    33   14   53 1
    34   15   20 ar
    35   15   16 ar
    36   16   17 ar
    37   16   54 1
    38   17   18 ar
    39   17   55 1
    40   18   19 ar
    41   18   21 1
    42   19   20 ar
    43   19   56 1
    44   20   57 1
    45   21   22 1
    46   22   58 1
    47   22   59 1
    48   22   60 1
    49   23   24 2
    50   23   25 1
    51   25   29 1
    52   25   26 2
    53   26   27 1
    54   26   61 1
    55   27   28 2
    56   27   62 1
    57   28   29 1
    58   28   63 1
    59   30   35 ar
    60   30   31 ar
    61   31   32 ar
    62   31   64 1
    63   32   33 ar
    64   32   65 1
    65   33   34 ar
    66   33   66 1
    67   34   35 ar
    68   34   67 1
    69   35   36 1
    70   36   37 1
    71   37   68 1
    72   37   69 1
    73   37   70 1
    74   38   71 1
    75   38   72 1
    76   38   73 1
@<TRIPOS>MOLECULE
ZINC00856799
   73    76     0     0     0
SMALL
USER_CHARGES
N-[3-(2,2-dimethyltetrahydropyran-4-yl)-3-(2-methoxyphenyl)-propyl]-N-[(4-methoxyphenyl)methyl]furan-2-carboxamide
@<TRIPOS>ATOM
      1 C1         -3.6716   -5.0895   -2.1388 C.3       1 <0>        -0.1379
      2 C2         -2.4433   -4.1789   -2.1933 C.3       1 <0>         0.1131
      3 C3         -2.4579   -3.2295   -0.9924 C.3       1 <0>        -0.1363
      4 C4         -1.2583   -2.2816   -1.0862 C.3       1 <0>        -0.0762
      5 H1         -0.3333   -2.8554   -1.0307 H         1 <0>         0.0733
      6 C5         -1.3171   -1.5319   -2.4206 C.3       1 <0>        -0.1452
      7 C6         -1.3466   -2.5468   -3.5664 C.3       1 <0>         0.0587
      8 O1         -2.4684   -3.4166   -3.4018 O.3       1 <0>        -0.3737
      9 C7         -1.3078   -1.2778    0.0675 C.3       1 <0>        -0.0307
     10 H2         -2.2347   -0.7068    0.0128 H         1 <0>         0.0873
     11 C8         -1.2490   -2.0283    1.3994 C.3       1 <0>        -0.1294
     12 C9         -1.4237   -1.0369    2.5516 C.3       1 <0>         0.1212
     13 N1         -1.3674   -1.7555    3.8270 N.am      1 <0>        -0.5977
     14 C10        -2.5954   -2.2876    4.4228 C.3       1 <0>         0.1408
     15 C11        -2.8287   -3.6905    3.9244 C.ar      1 <0>        -0.1427
     16 C12        -3.6771   -3.9108    2.8551 C.ar      1 <0>        -0.0618
     17 C13        -3.8882   -5.1954    2.3927 C.ar      1 <0>        -0.2087
     18 C14        -3.2570   -6.2658    3.0094 C.ar      1 <0>         0.1340
     19 C15        -2.4106   -6.0426    4.0857 C.ar      1 <0>        -0.1534
     20 C16        -2.1984   -4.7556    4.5407 C.ar      1 <0>        -0.0668
     21 O2         -3.4670   -7.5309    2.5596 O.3       1 <0>        -0.3171
     22 C17        -4.3508   -7.6857    1.4474 C.3       1 <0>         0.0262
     23 C18        -0.1858   -1.9272    4.4522 C.2       1 <0>         0.6015
     24 O3          0.8449   -1.5662    3.9151 O.2       1 <0>        -0.5115
     25 C19        -0.1421   -2.5490    5.7797 C.2       1 <0>        -0.0812
     26 C20         0.9754   -2.7359    6.5417 C.2       1 <0>        -0.1153
     27 C21         0.5557   -3.3588    7.7275 C.2       1 <0>        -0.2195
     28 C22        -0.7814   -3.5310    7.6345 C.2       1 <0>        -0.0166
     29 O4         -1.1981   -3.0417    6.4594 O.3       1 <0>        -0.1572
     30 C23        -0.1330   -0.3392   -0.0326 C.ar      1 <0>        -0.1018
     31 C24         1.1552   -0.8366    0.0128 C.ar      1 <0>        -0.0695
     32 C25         2.2333    0.0238   -0.0794 C.ar      1 <0>        -0.1501
     33 C26         2.0255    1.3840   -0.2168 C.ar      1 <0>        -0.0836
     34 C27         0.7397    1.8863   -0.2631 C.ar      1 <0>        -0.2076
     35 C28        -0.3441    1.0248   -0.1708 C.ar      1 <0>         0.1276
     36 O5         -1.6102    1.5159   -0.2213 O.3       1 <0>        -0.3144
     37 C29        -1.7521    2.9306   -0.3646 C.3       1 <0>         0.0273
     38 C30        -1.1736   -5.0318   -2.1543 C.3       1 <0>        -0.1803
     39 H3         -3.6615   -5.7647   -2.9944 H         1 <0>         0.0633
     40 H4         -3.6522   -5.6709   -1.2170 H         1 <0>         0.0660
     41 H5         -4.5760   -4.4818   -2.1662 H         1 <0>         0.0632
     42 H6         -2.3943   -3.8074   -0.0704 H         1 <0>         0.0748
     43 H7         -3.3812   -2.6502   -0.9972 H         1 <0>         0.0712
     44 H8         -2.2174   -0.9183   -2.4543 H         1 <0>         0.0712
     45 H9         -0.4382   -0.8948   -2.5196 H         1 <0>         0.0719
     46 H10        -1.4316   -2.0198   -4.5167 H         1 <0>         0.0909
     47 H11        -0.4276   -3.1329   -3.5565 H         1 <0>         0.0512
     48 H12        -2.0470   -2.7700    1.4341 H         1 <0>         0.0768
     49 H13        -0.2846   -2.5276    1.4928 H         1 <0>         0.0684
     50 H14        -0.6257   -0.2952    2.5169 H         1 <0>         0.0856
     51 H15        -2.3881   -0.5376    2.4582 H         1 <0>         0.0784
     52 H16        -2.4971   -2.2993    5.5083 H         1 <0>         0.1084
     53 H17        -3.4387   -1.6570    4.1412 H         1 <0>         0.0896
     54 H18        -4.1717   -3.0776    2.3781 H         1 <0>         0.1242
     55 H19        -4.5476   -5.3666    1.5546 H         1 <0>         0.1284
     56 H20        -1.9178   -6.8743    4.5672 H         1 <0>         0.1289
     57 H21        -1.5394   -4.5813    5.3784 H         1 <0>         0.1334
     58 H22        -4.4299   -8.7420    1.1904 H         1 <0>         0.1009
     59 H23        -5.3362   -7.3009    1.7101 H         1 <0>         0.0564
     60 H24        -3.9605   -7.1322    0.5934 H         1 <0>         0.0559
     61 H25         1.9862   -2.4568    6.2830 H         1 <0>         0.1597
     62 H26         1.1839   -3.6499    8.5563 H         1 <0>         0.1571
     63 H27        -1.4102   -3.9883    8.3840 H         1 <0>         0.2101
     64 H28         1.3200   -1.8985    0.1207 H         1 <0>         0.1234
     65 H29         3.2395   -0.3670   -0.0437 H         1 <0>         0.1213
     66 H30         2.8694    2.0543   -0.2879 H         1 <0>         0.1219
     67 H31         0.5779    2.9486   -0.3711 H         1 <0>         0.1253
     68 H32        -1.2774    3.4307    0.4796 H         1 <0>         0.0543
     69 H33        -1.2763    3.2515   -1.2913 H         1 <0>         0.0544
     70 H34        -2.8107    3.1888   -0.3914 H         1 <0>         0.0992
     71 H35        -0.2987   -4.3829   -2.1927 H         1 <0>         0.0627
     72 H36        -1.1546   -5.6132   -1.2325 H         1 <0>         0.0648
     73 H37        -1.1631   -5.7070   -3.0099 H         1 <0>         0.0623
@<TRIPOS>BOND
     1    1    2 1
     2    1   39 1
     3    1   40 1
     4    1   41 1
     5    2    8 1
     6    2    3 1
     7    2   38 1
     8    3    4 1
     9    3   42 1
    10    3   43 1
    11    4    5 1
    12    4    6 1
    13    4    9 1
    14    6    7 1
    15    6   44 1
    16    6   45 1
    17    7    8 1
    18    7   46 1
    19    7   47 1
    20    9   10 1
    21    9   11 1
    22    9   30 1
    23   11   12 1
    24   11   48 1
    25   11   49 1
    26   12   13 1
    27   12   50 1
    28   12   51 1
    29   13   14 1
    30   13   23 am
    31   14   15 1
    32   14   52 1
    33   14   53 1
    34   15   20 ar
    35   15   16 ar
    36   16   17 ar
    37   16   54 1
    38   17   18 ar
    39   17   55 1
    40   18   19 ar
    41   18   21 1
    42   19   20 ar
    43   19   56 1
    44   20   57 1
    45   21   22 1
    46   22   58 1
    47   22   59 1
    48   22   60 1
    49   23   24 2
    50   23   25 1
    51   25   29 1
    52   25   26 2
    53   26   27 1
    54   26   61 1
    55   27   28 2
    56   27   62 1
    57   28   29 1
    58   28   63 1
    59   30   35 ar
    60   30   31 ar
    61   31   32 ar
    62   31   64 1
    63   32   33 ar
    64   32   65 1
    65   33   34 ar
    66   33   66 1
    67   34   35 ar
    68   34   67 1
    69   35   36 1
    70   36   37 1
    71   37   68 1
    72   37   69 1
    73   37   70 1
    74   38   71 1
    75   38   72 1
    76   38   73 1
@<TRIPOS>MOLECULE
ZINC00856800
   73    76     0     0     0
SMALL
USER_CHARGES
N-[3-(2,2-dimethyltetrahydropyran-4-yl)-3-(2-methoxyphenyl)-propyl]-N-[(4-methoxyphenyl)methyl]furan-2-carboxamide
@<TRIPOS>ATOM
      1 C1          1.7330   -4.7579    3.9041 C.3       1 <0>        -0.1388
      2 C2          0.8564   -3.8442    4.7631 C.3       1 <0>         0.1118
      3 C3          0.0934   -2.8719    3.8597 C.3       1 <0>        -0.1371
      4 C4         -0.8265   -2.0015    4.7214 C.3       1 <0>        -0.0771
      5 H1         -0.2257   -1.4011    5.4045 H         1 <0>         0.0744
      6 C5         -1.7652   -2.9068    5.5250 C.3       1 <0>        -0.1453
      7 C6         -0.9303   -3.8792    6.3625 C.3       1 <0>         0.0585
      8 O1         -0.0752   -4.6358    5.5031 O.3       1 <0>        -0.3737
      9 C7         -1.6512   -1.0803    3.8203 C.3       1 <0>        -0.0303
     10 H2         -2.2515   -1.6819    3.1377 H         1 <0>         0.0879
     11 C8         -0.7119   -0.1800    3.0152 C.3       1 <0>        -0.1279
     12 C9         -1.5283    0.6529    2.0249 C.3       1 <0>         0.1216
     13 N1         -0.6290    1.5149    1.2540 N.am      1 <0>        -0.5974
     14 C10        -0.0522    1.0334   -0.0037 C.3       1 <0>         0.1424
     15 C11        -1.0323    1.2612   -1.1255 C.ar      1 <0>        -0.1452
     16 C12        -1.8712    0.2383   -1.5275 C.ar      1 <0>        -0.0632
     17 C13        -2.7744    0.4464   -2.5519 C.ar      1 <0>        -0.2096
     18 C14        -2.8315    1.6795   -3.1849 C.ar      1 <0>         0.1328
     19 C15        -1.9847    2.7025   -2.7835 C.ar      1 <0>        -0.1539
     20 C16        -1.0872    2.4911   -1.7549 C.ar      1 <0>        -0.0673
     21 O2         -3.7156    1.8851   -4.1963 O.3       1 <0>        -0.3176
     22 C17        -4.5562    0.7871   -4.5565 C.3       1 <0>         0.0267
     23 C18        -0.3322    2.7510    1.7018 C.2       1 <0>         0.6011
     24 O3         -0.7367    3.1175    2.7894 O.2       1 <0>        -0.5114
     25 C19         0.4783    3.6542    0.8784 C.2       1 <0>        -0.0810
     26 C20         0.7592    4.9607    1.1589 C.2       1 <0>        -0.1153
     27 C21         1.5613    5.4354    0.1094 C.2       1 <0>        -0.2190
     28 C22         1.7262    4.4131   -0.7588 C.2       1 <0>        -0.0170
     29 O4          1.0722    3.3416   -0.2920 O.3       1 <0>        -0.1574
     30 C23        -2.5587   -0.2279    4.6693 C.ar      1 <0>        -0.1026
     31 C24        -2.0217    0.6242    5.6151 C.ar      1 <0>        -0.0696
     32 C25        -2.8536    1.4071    6.3936 C.ar      1 <0>        -0.1503
     33 C26        -4.2249    1.3393    6.2284 C.ar      1 <0>        -0.0833
     34 C27        -4.7667    0.4890    5.2844 C.ar      1 <0>        -0.2078
     35 C28        -3.9336   -0.2939    4.4981 C.ar      1 <0>         0.1282
     36 O5         -4.4640   -1.1271    3.5646 O.3       1 <0>        -0.3143
     37 C29        -5.8878   -1.1432    3.4434 C.3       1 <0>         0.0274
     38 C30         1.7386   -3.0548    5.7324 C.3       1 <0>        -0.1805
     39 H3          2.4429   -4.1539    3.3390 H         1 <0>         0.0695
     40 H4          2.2762   -5.4501    4.5475 H         1 <0>         0.0629
     41 H5          1.1043   -5.3205    3.2139 H         1 <0>         0.0628
     42 H6         -0.5041   -3.4341    3.1421 H         1 <0>         0.0720
     43 H7          0.8010   -2.2371    3.3265 H         1 <0>         0.0745
     44 H8         -2.3848   -2.2969    6.1825 H         1 <0>         0.0722
     45 H9         -2.4015   -3.4696    4.8421 H         1 <0>         0.0710
     46 H10        -1.5930   -4.5553    6.9027 H         1 <0>         0.0908
     47 H11        -0.3254   -3.3173    7.0741 H         1 <0>         0.0514
     48 H12         0.0026   -0.7961    2.4693 H         1 <0>         0.0710
     49 H13        -0.1757    0.4842    3.6930 H         1 <0>         0.0712
     50 H14        -2.2429    1.2690    2.5707 H         1 <0>         0.0852
     51 H15        -2.0646   -0.0113    1.3470 H         1 <0>         0.0783
     52 H16         0.1633   -0.0319    0.0798 H         1 <0>         0.0889
     53 H17         0.8703    1.5755   -0.2114 H         1 <0>         0.1090
     54 H18        -1.8234   -0.7229   -1.0373 H         1 <0>         0.1247
     55 H19        -3.4325   -0.3516   -2.8626 H         1 <0>         0.1286
     56 H20        -2.0270    3.6633   -3.2750 H         1 <0>         0.1298
     57 H21        -0.4276    3.2871   -1.4422 H         1 <0>         0.1350
     58 H22        -5.1580    0.4929   -3.6966 H         1 <0>         0.0557
     59 H23        -5.2123    1.0847   -5.3744 H         1 <0>         0.1013
     60 H24        -3.9394   -0.0541   -4.8731 H         1 <0>         0.0565
     61 H25         0.4298    5.5198    2.0222 H         1 <0>         0.1597
     62 H26         1.9669    6.4316    0.0120 H         1 <0>         0.1573
     63 H27         2.2922    4.4534   -1.6777 H         1 <0>         0.2103
     64 H28        -0.9510    0.6790    5.7460 H         1 <0>         0.1242
     65 H29        -2.4319    2.0731    7.1319 H         1 <0>         0.1216
     66 H30        -4.8727    1.9519    6.8379 H         1 <0>         0.1220
     67 H31        -5.8377    0.4367    5.1555 H         1 <0>         0.1251
     68 H32        -6.1782   -1.8485    2.6648 H         1 <0>         0.0989
     69 H33        -6.3298   -1.4471    4.3923 H         1 <0>         0.0547
     70 H34        -6.2413   -0.1461    3.1807 H         1 <0>         0.0540
     71 H35         1.1139   -2.4043    6.3446 H         1 <0>         0.0625
     72 H36         2.2818   -3.7472    6.3755 H         1 <0>         0.0624
     73 H37         2.4485   -2.4505    5.1677 H         1 <0>         0.0659
@<TRIPOS>BOND
     1    1    2 1
     2    1   39 1
     3    1   40 1
     4    1   41 1
     5    2    8 1
     6    2    3 1
     7    2   38 1
     8    3    4 1
     9    3   42 1
    10    3   43 1
    11    4    5 1
    12    4    6 1
    13    4    9 1
    14    6    7 1
    15    6   44 1
    16    6   45 1
    17    7    8 1
    18    7   46 1
    19    7   47 1
    20    9   10 1
    21    9   11 1
    22    9   30 1
    23   11   12 1
    24   11   48 1
    25   11   49 1
    26   12   13 1
    27   12   50 1
    28   12   51 1
    29   13   14 1
    30   13   23 am
    31   14   15 1
    32   14   52 1
    33   14   53 1
    34   15   20 ar
    35   15   16 ar
    36   16   17 ar
    37   16   54 1
    38   17   18 ar
    39   17   55 1
    40   18   19 ar
    41   18   21 1
    42   19   20 ar
    43   19   56 1
    44   20   57 1
    45   21   22 1
    46   22   58 1
    47   22   59 1
    48   22   60 1
    49   23   24 2
    50   23   25 1
    51   25   29 1
    52   25   26 2
    53   26   27 1
    54   26   61 1
    55   27   28 2
    56   27   62 1
    57   28   29 1
    58   28   63 1
    59   30   35 ar
    60   30   31 ar
    61   31   32 ar
    62   31   64 1
    63   32   33 ar
    64   32   65 1
    65   33   34 ar
    66   33   66 1
    67   34   35 ar
    68   34   67 1
    69   35   36 1
    70   36   37 1
    71   37   68 1
    72   37   69 1
    73   37   70 1
    74   38   71 1
    75   38   72 1
    76   38   73 1
@<TRIPOS>MOLECULE
ZINC00856801
   73    76     0     0     0
SMALL
USER_CHARGES
N-[3-(2,2-dimethyltetrahydropyran-4-yl)-3-(2-methoxyphenyl)-propyl]-N-[(4-methoxyphenyl)methyl]furan-2-carboxamide
@<TRIPOS>ATOM
      1 C1          0.7097   10.2228   -4.5839 C.3       1 <0>        -0.1793
      2 C2          2.0931   10.2525   -3.9311 C.3       1 <0>         0.1118
      3 C3          1.9969    9.7027   -2.5055 C.3       1 <0>        -0.1300
      4 C4          1.5397    8.2418   -2.5598 C.3       1 <0>        -0.0767
      5 H1          0.5409    8.1881   -2.9929 H         1 <0>         0.0737
      6 C5          2.5192    7.4436   -3.4258 C.3       1 <0>        -0.1499
      7 C6          2.5953    8.0806   -4.8158 C.3       1 <0>         0.0583
      8 O1          2.9960    9.4466   -4.6910 O.3       1 <0>        -0.3737
      9 C7          1.5161    7.6600   -1.1449 C.3       1 <0>        -0.0294
     10 H2          2.5160    7.7113   -0.7142 H         1 <0>         0.0905
     11 C8          1.0592    6.2008   -1.2011 C.3       1 <0>        -0.1260
     12 C9          1.1546    5.5825    0.1952 C.3       1 <0>         0.1082
     13 N1          0.7172    4.1854    0.1414 N.am      1 <0>        -0.5973
     14 C10        -0.6589    3.8343    0.5013 C.3       1 <0>         0.1614
     15 C11        -0.7134    3.4426    1.9555 C.ar      1 <0>        -0.1488
     16 C12        -0.4425    2.1395    2.3299 C.ar      1 <0>        -0.0542
     17 C13        -0.4863    1.7792    3.6628 C.ar      1 <0>        -0.2109
     18 C14        -0.8136    2.7236    4.6249 C.ar      1 <0>         0.1326
     19 C15        -1.0905    4.0291    4.2461 C.ar      1 <0>        -0.1561
     20 C16        -1.0399    4.3857    2.9124 C.ar      1 <0>        -0.0634
     21 O2         -0.8624    2.3705    5.9364 O.3       1 <0>        -0.3182
     22 C17        -0.5655    1.0090    6.2531 C.3       1 <0>         0.0265
     23 C18         1.5807    3.2231   -0.2391 C.2       1 <0>         0.6042
     24 O3          1.1984    2.0734   -0.3543 O.2       1 <0>        -0.5196
     25 C19         2.9809    3.5613   -0.5144 C.2       1 <0>        -0.0807
     26 C20         3.9828    2.6736   -0.7834 C.2       1 <0>        -0.1184
     27 C21         5.1490    3.4292   -0.9819 C.2       1 <0>        -0.2239
     28 C22         4.8119    4.7286   -0.8274 C.2       1 <0>        -0.0100
     29 O4          3.5048    4.8042   -0.5457 O.3       1 <0>        -0.1522
     30 C23         0.5602    8.4531   -0.2916 C.ar      1 <0>        -0.1027
     31 C24        -0.7741    8.5347   -0.6409 C.ar      1 <0>        -0.0793
     32 C25        -1.6514    9.2621    0.1416 C.ar      1 <0>        -0.1533
     33 C26        -1.1964    9.9095    1.2757 C.ar      1 <0>        -0.0832
     34 C27         0.1365    9.8310    1.6292 C.ar      1 <0>        -0.2061
     35 C28         1.0181    9.0972    0.8484 C.ar      1 <0>         0.1307
     36 O5          2.3289    9.0139    1.1972 O.3       1 <0>        -0.3122
     37 C29         2.7296    9.7023    2.3836 C.3       1 <0>         0.0267
     38 C30         2.6069   11.6930   -3.8888 C.3       1 <0>        -0.1386
     39 H3          0.0209   10.8367   -4.0036 H         1 <0>         0.0656
     40 H4          0.7784   10.6143   -5.5988 H         1 <0>         0.0619
     41 H5          0.3442    9.1964   -4.6143 H         1 <0>         0.0619
     42 H6          1.2753   10.2893   -1.9369 H         1 <0>         0.0715
     43 H7          2.9734    9.7612   -2.0249 H         1 <0>         0.0707
     44 H8          3.5068    7.4563   -2.9647 H         1 <0>         0.0720
     45 H9          2.1711    6.4145   -3.5152 H         1 <0>         0.0737
     46 H10         1.6162    8.0311   -5.2924 H         1 <0>         0.0515
     47 H11         3.3229    7.5423   -5.4232 H         1 <0>         0.0915
     48 H12         1.6981    5.6463   -1.8884 H         1 <0>         0.0742
     49 H13         0.0270    6.1564   -1.5484 H         1 <0>         0.0659
     50 H14         0.5157    6.1371    0.8825 H         1 <0>         0.0815
     51 H15         2.1868    5.6270    0.5425 H         1 <0>         0.0921
     52 H16        -1.3091    4.6925    0.3315 H         1 <0>         0.0895
     53 H17        -0.9930    2.9981   -0.1130 H         1 <0>         0.0936
     54 H18        -0.1921    1.4036    1.5800 H         1 <0>         0.1329
     55 H19        -0.2703    0.7622    3.9552 H         1 <0>         0.1281
     56 H20        -1.3452    4.7662    4.9933 H         1 <0>         0.1301
     57 H21        -1.2550    5.4020    2.6171 H         1 <0>         0.1268
     58 H22        -1.2758    0.3551    5.7471 H         1 <0>         0.0566
     59 H23         0.4458    0.7714    5.9233 H         1 <0>         0.0558
     60 H24        -0.6402    0.8621    7.3306 H         1 <0>         0.1012
     61 H25         3.8952    1.5983   -0.8332 H         1 <0>         0.1579
     62 H26         6.1309    3.0444   -1.2145 H         1 <0>         0.1554
     63 H27         5.4857    5.5680   -0.9163 H         1 <0>         0.2078
     64 H28        -1.1319    8.0300   -1.5261 H         1 <0>         0.1252
     65 H29        -2.6940    9.3247   -0.1332 H         1 <0>         0.1220
     66 H30        -1.8838   10.4771    1.8853 H         1 <0>         0.1225
     67 H31         0.4914   10.3371    2.5149 H         1 <0>         0.1261
     68 H32         3.7971    9.5544    2.5466 H         1 <0>         0.0999
     69 H33         2.5230   10.7669    2.2733 H         1 <0>         0.0549
     70 H34         2.1743    9.3108    3.2360 H         1 <0>         0.0549
     71 H35         3.5927   11.7137   -3.4242 H         1 <0>         0.0624
     72 H36         2.6754   12.0843   -4.9039 H         1 <0>         0.0627
     73 H37         1.9186   12.3073   -3.3083 H         1 <0>         0.0688
@<TRIPOS>BOND
     1    1    2 1
     2    1   39 1
     3    1   40 1
     4    1   41 1
     5    2    8 1
     6    2    3 1
     7    2   38 1
     8    3    4 1
     9    3   42 1
    10    3   43 1
    11    4    5 1
    12    4    6 1
    13    4    9 1
    14    6    7 1
    15    6   44 1
    16    6   45 1
    17    7    8 1
    18    7   46 1
    19    7   47 1
    20    9   10 1
    21    9   11 1
    22    9   30 1
    23   11   12 1
    24   11   48 1
    25   11   49 1
    26   12   13 1
    27   12   50 1
    28   12   51 1
    29   13   14 1
    30   13   23 am
    31   14   15 1
    32   14   52 1
    33   14   53 1
    34   15   20 ar
    35   15   16 ar
    36   16   17 ar
    37   16   54 1
    38   17   18 ar
    39   17   55 1
    40   18   19 ar
    41   18   21 1
    42   19   20 ar
    43   19   56 1
    44   20   57 1
    45   21   22 1
    46   22   58 1
    47   22   59 1
    48   22   60 1
    49   23   24 2
    50   23   25 1
    51   25   29 1
    52   25   26 2
    53   26   27 1
    54   26   61 1
    55   27   28 2
    56   27   62 1
    57   28   29 1
    58   28   63 1
    59   30   35 ar
    60   30   31 ar
    61   31   32 ar
    62   31   64 1
    63   32   33 ar
    64   32   65 1
    65   33   34 ar
    66   33   66 1
    67   34   35 ar
    68   34   67 1
    69   35   36 1
    70   36   37 1
    71   37   68 1
    72   37   69 1
    73   37   70 1
    74   38   71 1
    75   38   72 1
    76   38   73 1
