@<TRIPOS>MOLECULE
ZINC06718468
   60    64     0     0     0
SMALL
USER_CHARGES

@<TRIPOS>ATOM
      1 C1         -0.0958    2.0449    0.1864 C.3       1 <0>        -0.1162
      2 C2         -0.1158    0.5568   -0.0503 C.ar      1 <0>        -0.0263
      3 C3         -0.1580    0.0634   -1.3375 C.ar      1 <0>        -0.1780
      4 C4         -0.1767   -1.3108   -1.5650 C.ar      1 <0>         0.2192
      5 C5         -0.1528   -2.1955   -0.5026 C.ar      1 <0>        -0.1734
      6 C6         -0.1095   -1.7058    0.8062 C.ar      1 <0>         0.1181
      7 C7         -0.0861   -0.3174    1.0258 C.ar      1 <0>        -0.0017
      8 N1         -0.0386   -0.1439    2.3999 N.pl3     1 <0>        -0.5817
      9 H1         -0.0164    0.7025    2.8731 H         1 <0>         0.4308
     10 C8         -0.0293   -1.3922    2.9648 C.2       1 <0>         0.3944
     11 N2         -0.0785   -2.3058    2.0220 N.2       1 <0>        -0.5393
     12 C9          0.0172   -1.6677    4.4100 C.2       1 <0>        -0.3013
     13 C10         0.1458   -2.9816    4.8829 C.2       1 <0>         0.3580
     14 C11         0.1866   -3.2003    6.2729 C.2       1 <0>        -0.2732
     15 C12         0.1024   -2.1542    7.1231 C.2       1 <0>         0.1851
     16 N3         -0.0227   -0.8808    6.6652 N.am      1 <0>        -0.6204
     17 H2         -0.0812   -0.1505    7.3008 H         1 <0>         0.4194
     18 C13        -0.0611   -0.6128    5.3467 C.2       1 <0>         0.5565
     19 O1         -0.1683    0.5394    4.9609 O.2       1 <0>        -0.5654
     20 N4          0.2302   -4.0395    4.0028 N.pl3     1 <0>        -0.6842
     21 C14         0.2417   -5.4142    4.5090 C.3       1 <0>         0.0775
     22 C15         0.3412   -6.3894    3.3342 C.3       1 <0>         0.1422
     23 H3         -0.4665   -6.1925    2.6292 H         1 <0>         0.1200
     24 C16         0.2295   -7.8031    3.8440 C.ar      1 <0>        -0.1062
     25 C17         1.3276   -8.4216    4.4126 C.ar      1 <0>        -0.1060
     26 C18         1.2260   -9.7182    4.8804 C.ar      1 <0>        -0.1011
     27 C19         0.0263  -10.3976    4.7797 C.ar      1 <0>        -0.1057
     28 C20        -1.0727   -9.7794    4.2110 C.ar      1 <0>        -0.0314
     29 C21        -0.9720   -8.4791    3.7483 C.ar      1 <0>        -0.0968
     30 Cl1        -2.5797  -10.6319    4.0842 Cl        1 <0>        -0.0630
     31 O2          1.5988   -6.2177    2.6778 O.3       1 <0>        -0.5410
     32 N5         -0.2205   -1.7985   -2.8758 N.pl3     1 <0>        -0.6339
     33 C22        -0.3691   -0.8847   -4.0195 C.3       1 <0>         0.0887
     34 C23         0.7218   -1.2127   -5.0453 C.3       1 <0>         0.0454
     35 O3          0.6848   -2.6109   -5.3409 O.3       1 <0>        -0.3803
     36 C24         0.9599   -3.4537   -4.2194 C.3       1 <0>         0.0459
     37 C25        -0.1131   -3.2400   -3.1516 C.3       1 <0>         0.0883
     38 H4          0.9360    2.3955    0.2083 H         1 <0>         0.0724
     39 H5         -0.6334    2.5480   -0.6174 H         1 <0>         0.0719
     40 H6         -0.5756    2.2677    1.1394 H         1 <0>         0.0613
     41 H7         -0.1770    0.7464   -2.1739 H         1 <0>         0.1288
     42 H8         -0.1677   -3.2602   -0.6830 H         1 <0>         0.1260
     43 H9          0.2849   -4.2040    6.6593 H         1 <0>         0.1530
     44 H10         0.1348   -2.3332    8.1876 H         1 <0>         0.1731
     45 H11         0.2820   -3.8736    3.0485 H         1 <0>         0.4349
     46 H12         1.0985   -5.5514    5.1686 H         1 <0>         0.0768
     47 H13        -0.6775   -5.6052    5.0628 H         1 <0>         0.0840
     48 H14         2.2653   -7.8915    4.4909 H         1 <0>         0.1287
     49 H15         2.0841  -10.2008    5.3245 H         1 <0>         0.1363
     50 H16        -0.0528  -11.4110    5.1447 H         1 <0>         0.1362
     51 H17        -1.8309   -7.9944    3.3082 H         1 <0>         0.1367
     52 H18         2.3644   -6.3772    3.2466 H         1 <0>         0.3755
     53 H19        -1.3514   -1.0198   -4.4722 H         1 <0>         0.0694
     54 H20        -0.2583    0.1461   -3.6826 H         1 <0>         0.0918
     55 H21         0.5466   -0.6429   -5.9579 H         1 <0>         0.1036
     56 H22         1.6976   -0.9530   -4.6348 H         1 <0>         0.0554
     57 H23         0.9560   -4.4962   -4.5377 H         1 <0>         0.1043
     58 H24         1.9365   -3.2022   -3.8059 H         1 <0>         0.0552
     59 H25         0.1671   -3.7683   -2.2403 H         1 <0>         0.0936
     60 H26        -1.0692   -3.6163   -3.5155 H         1 <0>         0.0686
@<TRIPOS>BOND
     1    1    2 1
     2    1   38 1
     3    1   39 1
     4    1   40 1
     5    2    7 ar
     6    2    3 ar
     7    3    4 ar
     8    3   41 1
     9    4    5 ar
    10    4   32 1
    11    5    6 ar
    12    5   42 1
    13    6   11 1
    14    6    7 ar
    15    7    8 1
    16    8    9 1
    17    8   10 1
    18   10   11 2
    19   10   12 1
    20   12   18 1
    21   12   13 2
    22   13   14 1
    23   13   20 1
    24   14   15 2
    25   14   43 1
    26   15   16 1
    27   15   44 1
    28   16   17 1
    29   16   18 am
    30   18   19 2
    31   20   21 1
    32   20   45 1
    33   21   22 1
    34   21   46 1
    35   21   47 1
    36   22   23 1
    37   22   24 1
    38   22   31 1
    39   24   29 ar
    40   24   25 ar
    41   25   26 ar
    42   25   48 1
    43   26   27 ar
    44   26   49 1
    45   27   28 ar
    46   27   50 1
    47   28   29 ar
    48   28   30 1
    49   29   51 1
    50   31   52 1
    51   32   37 1
    52   32   33 1
    53   33   34 1
    54   33   53 1
    55   33   54 1
    56   34   35 1
    57   34   55 1
    58   34   56 1
    59   35   36 1
    60   36   37 1
    61   36   57 1
    62   36   58 1
    63   37   59 1
    64   37   60 1
@<TRIPOS>MOLECULE
ZINC06718468
   60    64     0     0     0
SMALL
USER_CHARGES

@<TRIPOS>ATOM
      1 C1          0.1861    0.9402    0.2320 C.3       1 <0>        -0.1099
      2 C2          0.1885   -0.5661    0.2760 C.ar      1 <0>         0.0105
      3 C3          0.2130   -1.2834   -0.8862 C.ar      1 <0>        -0.1934
      4 C4          0.2155   -2.6762   -0.8597 C.ar      1 <0>         0.2379
      5 C5          0.1931   -3.3524    0.3500 C.ar      1 <0>        -0.2114
      6 C6          0.1681   -2.6355    1.5366 C.ar      1 <0>         0.1009
      7 C7          0.1715   -1.2297    1.5066 C.ar      1 <0>         0.0140
      8 N1          0.1514   -0.8003    2.7941 N.2       1 <0>        -0.5153
      9 C8          0.1414   -1.8338    3.6037 C.2       1 <0>         0.3723
     10 N2          0.1421   -2.9944    2.8723 N.pl3     1 <0>        -0.5878
     11 H1          0.1365   -3.8977    3.2257 H         1 <0>         0.4313
     12 C9          0.1201   -1.7586    5.0739 C.2       1 <0>        -0.2944
     13 C10        -0.0136   -0.5236    5.7239 C.2       1 <0>         0.3534
     14 C11        -0.0298   -0.4970    7.1313 C.2       1 <0>        -0.2716
     15 C12         0.0823   -1.6480    7.8290 C.2       1 <0>         0.1820
     16 N3          0.2123   -2.8452    7.1992 N.am      1 <0>        -0.6203
     17 H2          0.2910   -3.6547    7.7279 H         1 <0>         0.4189
     18 C13         0.2280   -2.9303    5.8560 C.2       1 <0>         0.5553
     19 O1          0.3405   -4.0175    5.3144 O.2       1 <0>        -0.5664
     20 N4         -0.1266    0.6435    4.9980 N.pl3     1 <0>        -0.6861
     21 C14        -0.1433    1.9361    5.6873 C.3       1 <0>         0.0780
     22 C15        -0.2761    3.0609    4.6587 C.3       1 <0>         0.1422
     23 H3          0.5199    2.9729    3.9193 H         1 <0>         0.1199
     24 C16        -0.1701    4.3933    5.3548 C.ar      1 <0>        -0.1060
     25 C17        -1.2638    4.9136    6.0217 C.ar      1 <0>        -0.1059
     26 C18        -1.1674    6.1356    6.6604 C.ar      1 <0>        -0.1011
     27 C19         0.0226    6.8384    6.6324 C.ar      1 <0>        -0.1059
     28 C20         1.1172    6.3184    5.9653 C.ar      1 <0>        -0.0315
     29 C21         1.0218    5.0921    5.3312 C.ar      1 <0>        -0.0968
     30 Cl1         2.6119    7.2005    5.9296 Cl        1 <0>        -0.0631
     31 O2         -1.5442    2.9634    4.0072 O.3       1 <0>        -0.5411
     32 N5          0.2402   -3.3953   -2.0590 N.pl3     1 <0>        -0.6312
     33 C22         0.3654   -4.8615   -2.0606 C.3       1 <0>         0.0865
     34 C23        -0.7404   -5.4402   -2.9506 C.3       1 <0>         0.0458
     35 O3         -0.7012   -4.7983   -4.2274 O.3       1 <0>        -0.3797
     36 C24        -0.9535   -3.3918   -4.1834 C.3       1 <0>         0.0453
     37 C25         0.1357   -2.7087   -3.3563 C.3       1 <0>         0.0882
     38 H4          1.2131    1.3055    0.2367 H         1 <0>         0.0703
     39 H5         -0.3149    1.2764   -0.6758 H         1 <0>         0.0645
     40 H6         -0.3416    1.3283    1.1032 H         1 <0>         0.0739
     41 H7          0.2303   -0.7662   -1.8342 H         1 <0>         0.1282
     42 H8          0.1946   -4.4322    0.3682 H         1 <0>         0.1205
     43 H9         -0.1314    0.4433    7.6528 H         1 <0>         0.1523
     44 H10         0.0686   -1.6162    8.9085 H         1 <0>         0.1725
     45 H11        -0.1949    0.6085    4.0311 H         1 <0>         0.4342
     46 H12        -0.9888    1.9705    6.3745 H         1 <0>         0.0761
     47 H13         0.7842    2.0621    6.2458 H         1 <0>         0.0833
     48 H14        -2.1940    4.3651    6.0433 H         1 <0>         0.1287
     49 H15        -2.0220    6.5415    7.1812 H         1 <0>         0.1361
     50 H16         0.0976    7.7936    7.1308 H         1 <0>         0.1361
     51 H17         1.8773    4.6836    4.8140 H         1 <0>         0.1367
     52 H18        -2.3004    3.0335    4.6059 H         1 <0>         0.3756
     53 H19         1.3408   -5.1463   -2.4550 H         1 <0>         0.0707
     54 H20         0.2549   -5.2405   -1.0446 H         1 <0>         0.0921
     55 H21        -0.5831   -6.5114   -3.0767 H         1 <0>         0.1043
     56 H22        -1.7107   -5.2663   -2.4854 H         1 <0>         0.0557
     57 H23        -0.9495   -2.9893   -5.1964 H         1 <0>         0.1053
     58 H24        -1.9246   -3.2104   -3.7226 H         1 <0>         0.0555
     59 H25        -0.1269   -1.6627   -3.1979 H         1 <0>         0.0936
     60 H26         1.0876   -2.7730   -3.8834 H         1 <0>         0.0702
@<TRIPOS>BOND
     1    1    2 1
     2    1   38 1
     3    1   39 1
     4    1   40 1
     5    2    7 ar
     6    2    3 ar
     7    3    4 ar
     8    3   41 1
     9    4    5 ar
    10    4   32 1
    11    5    6 ar
    12    5   42 1
    13    6   10 1
    14    6    7 ar
    15    7    8 1
    16    8    9 2
    17    9   10 1
    18    9   12 1
    19   10   11 1
    20   12   18 1
    21   12   13 2
    22   13   14 1
    23   13   20 1
    24   14   15 2
    25   14   43 1
    26   15   16 1
    27   15   44 1
    28   16   17 1
    29   16   18 am
    30   18   19 2
    31   20   21 1
    32   20   45 1
    33   21   22 1
    34   21   46 1
    35   21   47 1
    36   22   23 1
    37   22   24 1
    38   22   31 1
    39   24   29 ar
    40   24   25 ar
    41   25   26 ar
    42   25   48 1
    43   26   27 ar
    44   26   49 1
    45   27   28 ar
    46   27   50 1
    47   28   29 ar
    48   28   30 1
    49   29   51 1
    50   31   52 1
    51   32   37 1
    52   32   33 1
    53   33   34 1
    54   33   53 1
    55   33   54 1
    56   34   35 1
    57   34   55 1
    58   34   56 1
    59   35   36 1
    60   36   37 1
    61   36   57 1
    62   36   58 1
    63   37   59 1
    64   37   60 1
@<TRIPOS>MOLECULE
ZINC43203317
   59    64     0     0     0
SMALL
USER_CHARGES

@<TRIPOS>ATOM
      1 C1          1.7535   -2.6140    1.5911 C.3       1 <0>        -0.1576
      2 C2          1.9372   -1.1974    1.0429 C.3       1 <0>         0.1323
      3 C3          2.2996   -1.2576   -0.4560 C.3       1 <0>        -0.1134
      4 C4          1.5200   -0.0551   -1.0506 C.3       1 <0>        -0.1390
      5 C5          0.2292   -0.0672   -0.1942 C.3       1 <0>         0.1045
      6 N1          0.6767   -0.4495    1.1575 N.pl3     1 <0>        -0.5678
      7 C6          0.0168   -0.1528    2.3424 C.cat     1 <0>         0.7218
      8 N2         -1.1775    0.4452    2.2857 N.2       1 <0>        -0.5913
      9 C7         -1.8506    0.7504    3.3820 C.2       1 <0>         0.5986
     10 C8         -1.2954    0.4378    4.6446 C.2       1 <0>        -0.1075
     11 C9         -1.7243    0.6153    5.9471 C.2       1 <0>        -0.0396
     12 C10        -0.7288    0.0950    6.7743 C.2       1 <0>        -0.1604
     13 C11         0.2678   -0.3803    5.9800 C.2       1 <0>         0.0915
     14 N3         -0.0622   -0.1793    4.6913 N.pl3     1 <0>        -0.2309
     15 N4          0.5826   -0.4728    3.4813 N.pl3     1 <0>        -0.4793
     16 N5         -3.0823    1.3684    3.2951 N.pl3     1 <0>        -0.5428
     17 C12        -3.6742    1.5771    2.0432 C.2       1 <0>         0.2706
     18 C13        -3.0895    1.2980    0.7973 C.2       1 <0>        -0.2564
     19 C14        -3.9781    1.6382   -0.1637 C.2       1 <0>         0.1447
     20 N6         -5.0843    2.1149    0.4453 N.pl3     1 <0>        -0.4469
     21 H1         -5.8860    2.4338    0.0021 H         1 <0>         0.4486
     22 N7         -4.8747    2.0624    1.8293 N.2       1 <0>        -0.2849
     23 C15        -3.7699    1.5087   -1.6506 C.3       1 <0>        -0.1084
     24 C16        -4.4171    2.5645   -2.5491 C.3       1 <0>        -0.1663
     25 C17        -4.9858    1.1448   -2.5051 C.3       1 <0>        -0.1664
     26 C18         3.0250   -0.4890    1.8083 C.2       1 <0>         0.4854
     27 O1          3.8838   -1.1306    2.3757 O.2       1 <0>        -0.4818
     28 N8          3.0435    0.8576    1.8624 N.am      1 <0>        -0.6582
     29 C19         4.1149    1.5191    2.4758 C.ar      1 <0>         0.0600
     30 C20         5.4063    1.0037    2.3886 C.ar      1 <0>        -0.0399
     31 C21         6.4332    1.6923    3.0108 C.ar      1 <0>        -0.1677
     32 C22         6.1456    2.8626    3.6948 C.ar      1 <0>         0.3115
     33 N9          4.9102    3.3236    3.7580 N.ar      1 <0>        -0.4898
     34 C23         3.9057    2.6998    3.1737 C.ar      1 <0>         0.1268
     35 F1          7.1422    3.5404    4.3052 F         1 <0>        -0.1003
     36 H2          0.9186   -3.0952    1.0817 H         1 <0>         0.0948
     37 H3          2.6632   -3.1900    1.4216 H         1 <0>         0.1103
     38 H4          1.5478   -2.5659    2.6604 H         1 <0>         0.0538
     39 H5          3.3726   -1.1301   -0.5988 H         1 <0>         0.1067
     40 H6          1.9593   -2.1942   -0.8977 H         1 <0>         0.1138
     41 H7          2.0716    0.8748   -0.9127 H         1 <0>         0.0884
     42 H8          1.2917   -0.2196   -2.1036 H         1 <0>         0.1180
     43 H9         -0.2243    0.9238   -0.1775 H         1 <0>         0.1095
     44 H10        -0.4765   -0.8018   -0.5820 H         1 <0>         0.1052
     45 H11        -2.6516    1.0698    6.2632 H         1 <0>         0.1822
     46 H12        -0.7461    0.0739    7.8539 H         1 <0>         0.1890
     47 H13         1.1787   -0.8443    6.3282 H         1 <0>         0.2011
     48 H14        -3.5375    1.6579    4.1012 H         1 <0>         0.4456
     49 H15        -2.1046    0.8854    0.6353 H         1 <0>         0.1821
     50 H16        -2.8023    1.1113   -1.9570 H         1 <0>         0.1357
     51 H17        -4.9935    3.3528   -2.0648 H         1 <0>         0.0972
     52 H18        -3.8753    2.8620   -3.4469 H         1 <0>         0.1127
     53 H19        -4.8180    0.5082   -3.3738 H         1 <0>         0.1125
     54 H20        -5.9362    0.9990   -1.9917 H         1 <0>         0.0972
     55 H21         2.3148    1.3685    1.4766 H         1 <0>         0.4141
     56 H22         5.6014    0.0888    1.8488 H         1 <0>         0.1571
     57 H23         7.4466    1.3217    2.9641 H         1 <0>         0.1613
     58 H24         2.9090    3.1098    3.2433 H         1 <0>         0.1645
     59 H25         1.4487   -0.9095    3.4868 H         1 <0>         0.4476
@<TRIPOS>BOND
     1    1    2 1
     2    1   36 1
     3    1   37 1
     4    1   38 1
     5    2    6 1
     6    2    3 1
     7    2   26 1
     8    3    4 1
     9    3   39 1
    10    3   40 1
    11    4    5 1
    12    4   41 1
    13    4   42 1
    14    5    6 1
    15    5   43 1
    16    5   44 1
    17    6    7 1
    18    7   15 2
    19    7    8 1
    20    8    9 2
    21    9   10 1
    22    9   16 1
    23   10   14 1
    24   10   11 2
    25   11   12 1
    26   11   45 1
    27   12   13 2
    28   12   46 1
    29   13   14 1
    30   13   47 1
    31   14   15 1
    32   15   59 1
    33   16   17 1
    34   16   48 1
    35   17   22 2
    36   17   18 1
    37   18   19 2
    38   18   49 1
    39   19   20 1
    40   19   23 1
    41   20   21 1
    42   20   22 1
    43   23   25 1
    44   23   24 1
    45   23   50 1
    46   24   25 1
    47   24   51 1
    48   24   52 1
    49   25   53 1
    50   25   54 1
    51   26   27 2
    52   26   28 am
    53   28   29 1
    54   28   55 1
    55   29   34 ar
    56   29   30 ar
    57   30   31 ar
    58   30   56 1
    59   31   32 ar
    60   31   57 1
    61   32   33 ar
    62   32   35 1
    63   33   34 ar
    64   34   58 1
@<TRIPOS>MOLECULE
ZINC43203317
   59    64     0     0     0
SMALL
USER_CHARGES

@<TRIPOS>ATOM
      1 C1         -0.2400   -0.0323   -0.4481 C.3       1 <0>        -0.1608
      2 C2         -0.9173   -1.3602   -0.1032 C.3       1 <0>         0.1638
      3 C3         -0.9523   -2.2705   -1.3489 C.3       1 <0>        -0.1176
      4 C4         -0.6761   -3.6784   -0.7582 C.3       1 <0>        -0.1322
      5 C5          0.3239   -3.3483    0.3779 C.3       1 <0>         0.0799
      6 N1         -0.1425   -2.0633    0.9296 N.pl3     1 <0>        -0.5749
      7 C6          0.1088   -1.5945    2.2120 C.cat     1 <0>         0.7200
      8 N2         -0.6553   -0.6140    2.7038 N.2       1 <0>        -0.5959
      9 C7         -0.4614   -0.1295    3.9186 C.2       1 <0>         0.5946
     10 C8          0.5781   -0.6599    4.7174 C.2       1 <0>        -0.1068
     11 C9          1.0359   -0.3876    5.9934 C.2       1 <0>        -0.0422
     12 C10         2.1046   -1.2520    6.2318 C.2       1 <0>        -0.1613
     13 C11         2.2764   -2.0194    5.1220 C.2       1 <0>         0.0935
     14 N3          1.3606   -1.6716    4.1999 N.pl3     1 <0>        -0.2317
     15 N4          1.0846   -2.1313    2.9043 N.pl3     1 <0>        -0.4707
     16 N5         -1.2652    0.8841    4.4022 N.pl3     1 <0>        -0.5597
     17 C12        -2.2770    1.4121    3.6031 C.2       1 <0>         0.2587
     18 C13        -2.2998    1.4336    2.2418 C.2       1 <0>        -0.2133
     19 C14        -3.4890    2.0493    1.8429 C.2       1 <0>         0.1357
     20 N6         -4.1598    2.3873    2.9141 N.2       1 <0>        -0.2440
     21 H1         -3.6859    2.1176    4.9651 H         1 <0>         0.4424
     22 N7         -3.4239    1.9942    4.0393 N.pl3     1 <0>        -0.4751
     23 C15        -3.9249    2.2847    0.4196 C.3       1 <0>        -0.0827
     24 C16        -2.9477    1.8967   -0.6919 C.3       1 <0>        -0.1184
     25 C17        -3.1956    3.3721   -0.3719 C.3       1 <0>        -0.1818
     26 C18        -2.3186   -1.1075    0.3904 C.2       1 <0>         0.5120
     27 O1         -3.0087   -0.2675   -0.1473 O.2       1 <0>        -0.4663
     28 N8         -2.8049   -1.8150    1.4293 N.am      1 <0>        -0.6484
     29 C19        -4.1419   -1.6608    1.8170 C.ar      1 <0>         0.0931
     30 C20        -5.1185   -1.3455    0.8748 C.ar      1 <0>        -0.0458
     31 C21        -6.4264   -1.2030    1.3049 C.ar      1 <0>        -0.1648
     32 C22        -6.7194   -1.3772    2.6481 C.ar      1 <0>         0.2983
     33 N9         -5.7696   -1.6756    3.5150 N.ar      1 <0>        -0.4903
     34 C23        -4.5129   -1.8255    3.1437 C.ar      1 <0>         0.1109
     35 F1         -7.9934   -1.2394    3.0760 F         1 <0>        -0.1066
     36 H2          0.8421   -0.1627   -0.4371 H         1 <0>         0.0770
     37 H3         -0.5571    0.2906   -1.4397 H         1 <0>         0.1035
     38 H4         -0.5225    0.7213    0.2870 H         1 <0>         0.0781
     39 H5         -1.9329   -2.2370   -1.8236 H         1 <0>         0.1107
     40 H6         -0.1711   -1.9884   -2.0548 H         1 <0>         0.1083
     41 H7         -1.5889   -4.1206   -0.3590 H         1 <0>         0.0906
     42 H8         -0.2204   -4.3317   -1.5023 H         1 <0>         0.1146
     43 H9          0.2962   -4.1227    1.1444 H         1 <0>         0.0963
     44 H10         1.3325   -3.2456   -0.0225 H         1 <0>         0.1041
     45 H11         0.6419    0.3520    6.6746 H         1 <0>         0.1796
     46 H12         2.6919   -1.3025    7.1367 H         1 <0>         0.1885
     47 H13         3.0281   -2.7852    5.0004 H         1 <0>         0.2040
     48 H14        -1.1253    1.2284    5.2981 H         1 <0>         0.4411
     49 H15        -1.5346    1.0440    1.5868 H         1 <0>         0.1629
     50 H16        -4.9888    2.1485    0.2251 H         1 <0>         0.1168
     51 H17        -1.9896    1.4711   -0.3937 H         1 <0>         0.0996
     52 H18        -3.3686    1.5049   -1.6179 H         1 <0>         0.1017
     53 H19        -3.7796    3.9511   -1.0874 H         1 <0>         0.1014
     54 H20        -2.4006    3.9173    0.1368 H         1 <0>         0.0905
     55 H21        -2.2289   -2.4311    1.9086 H         1 <0>         0.3988
     56 H22        -4.8613   -1.2151   -0.1660 H         1 <0>         0.1610
     57 H23        -7.2092   -0.9586    0.6021 H         1 <0>         0.1557
     58 H24        -3.7640   -2.0743    3.8810 H         1 <0>         0.1500
     59 H25         1.6178   -2.8440    2.5187 H         1 <0>         0.4537
@<TRIPOS>BOND
     1    1    2 1
     2    1   36 1
     3    1   37 1
     4    1   38 1
     5    2    6 1
     6    2    3 1
     7    2   26 1
     8    3    4 1
     9    3   39 1
    10    3   40 1
    11    4    5 1
    12    4   41 1
    13    4   42 1
    14    5    6 1
    15    5   43 1
    16    5   44 1
    17    6    7 1
    18    7   15 2
    19    7    8 1
    20    8    9 2
    21    9   10 1
    22    9   16 1
    23   10   14 1
    24   10   11 2
    25   11   12 1
    26   11   45 1
    27   12   13 2
    28   12   46 1
    29   13   14 1
    30   13   47 1
    31   14   15 1
    32   15   59 1
    33   16   17 1
    34   16   48 1
    35   17   18 2
    36   17   22 1
    37   18   49 1
    38   18   19 1
    39   19   23 1
    40   19   20 2
    41   20   22 1
    42   21   22 1
    43   23   25 1
    44   23   24 1
    45   23   50 1
    46   24   25 1
    47   24   51 1
    48   24   52 1
    49   25   53 1
    50   25   54 1
    51   26   27 2
    52   26   28 am
    53   28   29 1
    54   28   55 1
    55   29   34 ar
    56   29   30 ar
    57   30   31 ar
    58   30   56 1
    59   31   32 ar
    60   31   57 1
    61   32   33 ar
    62   32   35 1
    63   33   34 ar
    64   34   58 1
