@<TRIPOS>MOLECULE
ZINC01920527
   48    50     0     0     0
SMALL
USER_CHARGES

@<TRIPOS>ATOM
      1 C1         -0.0173    1.4248    0.0099 C.3       1 <0>         0.0230
      2 O1          0.0021   -0.0041    0.0020 O.3       1 <0>        -0.3057
      3 C2          0.6062   -0.6075   -1.0565 C.ar      1 <0>         0.0992
      4 C3          1.1710    0.1586   -2.0588 C.ar      1 <0>        -0.1663
      5 C4          1.7913   -0.4647   -3.1446 C.ar      1 <0>        -0.0288
      6 C5          1.8376   -1.8595   -3.2118 C.ar      1 <0>        -0.0960
      7 C6          1.2720   -2.6172   -2.2081 C.ar      1 <0>        -0.1115
      8 C7          0.6609   -1.9978   -1.1275 C.ar      1 <0>         0.0951
      9 O2          0.1098   -2.7494   -0.1379 O.3       1 <0>        -0.4857
     10 C8          2.3949    0.3473   -4.2169 C.2       1 <0>         0.1146
     11 N1          2.9707   -0.2334   -5.2247 N.2       1 <0>        -0.2227
     12 N2          3.5443    0.5382   -6.2437 N.am      1 <0>        -0.5817
     13 C9          4.1422   -0.0648   -7.2903 C.2       1 <0>         0.5351
     14 O3          4.1837   -1.2758   -7.3500 O.2       1 <0>        -0.4844
     15 C10         4.7592    0.7652   -8.3863 C.3       1 <0>        -0.0373
     16 C11         5.3569   -0.1440   -9.4291 C.2       1 <0>         0.0736
     17 N3          4.8162   -0.6559  -10.5169 N.2       1 <0>        -0.2350
     18 N4          5.4606   -1.4093  -11.2966 N.2       1 <0>        -0.2746
     19 C12         6.7260   -1.7336  -11.0687 C.2       1 <0>         0.2895
     20 S1          7.0062   -0.8307   -9.5479 S.3       1 <0>         0.0131
     21 N5          7.5887   -2.5390  -11.8023 N.am      1 <0>        -0.6065
     22 C13         7.1613   -3.1248  -12.9384 C.2       1 <0>         0.5549
     23 O4          6.0210   -2.9487  -13.3213 O.2       1 <0>        -0.4431
     24 C14         8.0788   -3.9814  -13.7187 C.ar      1 <0>        -0.0833
     25 C15         9.3871   -4.1905  -13.2787 C.ar      1 <0>        -0.0860
     26 C16        10.2382   -4.9915  -14.0115 C.ar      1 <0>        -0.0578
     27 C17         9.7979   -5.5868  -15.1804 C.ar      1 <0>        -0.0215
     28 C18         8.5026   -5.3834  -15.6223 C.ar      1 <0>        -0.0563
     29 C19         7.6393   -4.5897  -14.8958 C.ar      1 <0>        -0.0509
     30 N6         10.7168   -6.4446  -15.9618 N.pl3     1 <0>         0.0262
     31 O5         11.8492   -6.6239  -15.5783 O.2       1 <0>        -0.1464
     32 O6         10.3348   -6.9661  -16.9835 O.3       1 <0>        -0.1449
     33 H1          1.0053    1.8021    0.0021 H         1 <0>         0.0571
     34 H2         -0.5445    1.7859   -0.8732 H         1 <0>         0.0569
     35 H3         -0.5275    1.7763    0.9067 H         1 <0>         0.1033
     36 H4          1.1326    1.2365   -2.0030 H         1 <0>         0.1390
     37 H5          2.3161   -2.3442   -4.0500 H         1 <0>         0.1423
     38 H6          1.3085   -3.6952   -2.2612 H         1 <0>         0.1423
     39 H7         -0.8188   -2.9749   -0.2860 H         1 <0>         0.3909
     40 H8          2.3580    1.4253   -4.1637 H         1 <0>         0.1242
     41 H9          3.5111    1.5065   -6.1959 H         1 <0>         0.3901
     42 H10         3.9923    1.3893   -8.8450 H         1 <0>         0.1439
     43 H11         5.5402    1.3990   -7.9663 H         1 <0>         0.1331
     44 H12         8.4986   -2.6796  -11.4968 H         1 <0>         0.4299
     45 H13         9.7322   -3.7258  -12.3669 H         1 <0>         0.1507
     46 H14        11.2506   -5.1540  -13.6723 H         1 <0>         0.1653
     47 H15         8.1653   -5.8507  -16.5357 H         1 <0>         0.1668
     48 H16         6.6271   -4.4353  -15.2394 H         1 <0>         0.1662
@<TRIPOS>BOND
     1    1    2 1
     2    1   33 1
     3    1   34 1
     4    1   35 1
     5    2    3 1
     6    3    8 ar
     7    3    4 ar
     8    4    5 ar
     9    4   36 1
    10    5    6 ar
    11    5   10 1
    12    6    7 ar
    13    6   37 1
    14    7    8 ar
    15    7   38 1
    16    8    9 1
    17    9   39 1
    18   10   11 2
    19   10   40 1
    20   11   12 1
    21   12   13 am
    22   12   41 1
    23   13   14 2
    24   13   15 1
    25   15   16 1
    26   15   42 1
    27   15   43 1
    28   16   20 1
    29   16   17 2
    30   17   18 1
    31   18   19 2
    32   19   20 1
    33   19   21 1
    34   21   22 am
    35   21   44 1
    36   22   23 2
    37   22   24 1
    38   24   29 ar
    39   24   25 ar
    40   25   26 ar
    41   25   45 1
    42   26   27 ar
    43   26   46 1
    44   27   28 ar
    45   27   30 1
    46   28   29 ar
    47   28   47 1
    48   29   48 1
    49   30   31 2
    50   30   32 1
@<TRIPOS>MOLECULE
ZINC16156255
   50    54     0     0     0
SMALL
USER_CHARGES

@<TRIPOS>ATOM
      1 C1         -0.0184    1.5028    0.0103 C.3       1 <0>        -0.0848
      2 C2          0.0021   -0.0041    0.0020 C.2       1 <0>         0.1470
      3 N1          0.0081   -0.7655   -1.0505 N.2       1 <0>        -0.2411
      4 N2          0.0279   -2.1152   -0.6998 N.am      1 <0>        -0.4152
      5 C3          0.0351   -2.2443    0.6424 C.2       1 <0>         0.5237
      6 O1          0.0524   -3.2840    1.2792 O.2       1 <0>        -0.4597
      7 C4          0.0251   -0.8773    1.1818 C.2       1 <0>        -0.2538
      8 C5          0.0331   -0.4939    2.5206 C.2       1 <0>         0.1164
      9 C6          0.0558   -1.4686    3.5293 C.2       1 <0>        -0.0496
     10 C7          0.0603   -1.2259    4.8971 C.2       1 <0>        -0.1166
     11 C8          0.0852   -2.4688    5.5262 C.2       1 <0>        -0.1962
     12 C9          0.0951   -3.4256    4.5311 C.2       1 <0>         0.0656
     13 O2          0.0712   -2.8051    3.3389 O.3       1 <0>        -0.0976
     14 C10         0.1217   -4.8846    4.7411 C.ar      1 <0>        -0.0044
     15 C11         0.1336   -5.4024    6.0391 C.ar      1 <0>        -0.0681
     16 C12         0.1581   -6.7685    6.2445 C.ar      1 <0>        -0.0398
     17 C13         0.1710   -7.6323    5.1578 C.ar      1 <0>        -0.1302
     18 C14         0.1592   -7.1163    3.8439 C.ar      1 <0>        -0.1383
     19 C15         0.1293   -5.7498    3.6388 C.ar      1 <0>        -0.0180
     20 C16         0.1785   -8.2924    2.9481 C.2       1 <0>         0.5768
     21 O3          0.1761   -8.2592    1.7340 O.2       1 <0>        -0.4498
     22 N3          0.1999   -9.4053    3.7033 N.am      1 <0>        -0.6782
     23 C17         0.1971   -9.1021    5.0136 C.2       1 <0>         0.5777
     24 O4          0.2136   -9.9035    5.9264 O.2       1 <0>        -0.4571
     25 C18         0.0386   -3.1807   -1.6088 C.ar      1 <0>         0.2379
     26 C19         0.0520   -4.4900   -1.1460 C.ar      1 <0>        -0.1733
     27 C20         0.0621   -5.5384   -2.0449 C.ar      1 <0>         0.0106
     28 C21         0.0590   -5.2856   -3.4045 C.ar      1 <0>        -0.7009
     29 C22         0.0461   -3.9830   -3.8685 C.ar      1 <0>         0.0084
     30 C23         0.0302   -2.9301   -2.9747 C.ar      1 <0>        -0.1572
     31 S1          0.0719   -6.6260   -4.5480 S.o2      1 <0>         2.7035
     32 O5          0.6172   -6.1213   -5.7593 O.2       1 <0>        -0.9635
     33 O6          0.6342   -7.7377   -3.8644 O.2       1 <0>        -0.9589
     34 N4         -1.5064   -7.0144   -4.8651 N.pl3     1 <0>        -1.2484
     35 H1          1.0042    1.8801    0.0026 H         1 <0>         0.0954
     36 H2         -0.5455    1.8639   -0.8728 H         1 <0>         0.0909
     37 H3         -0.5286    1.8543    0.9071 H         1 <0>         0.0894
     38 H4          0.0217    0.5539    2.7823 H         1 <0>         0.1806
     39 H5          0.0471   -0.2599    5.3799 H         1 <0>         0.1690
     40 H6          0.0955   -2.6495    6.5909 H         1 <0>         0.1650
     41 H7          0.1239   -4.7316    6.8855 H         1 <0>         0.1516
     42 H8          0.1675   -7.1639    7.2495 H         1 <0>         0.1536
     43 H9          0.1157   -5.3512    2.6351 H         1 <0>         0.1570
     44 H10         0.2157  -10.3082    3.3492 H         1 <0>         0.4334
     45 H11         0.0548   -4.6881   -0.0844 H         1 <0>         0.1613
     46 H12         0.0728   -6.5569   -1.6857 H         1 <0>         0.1517
     47 H13         0.0441   -3.7887   -4.9308 H         1 <0>         0.1494
     48 H14         0.0154   -1.9131   -3.3377 H         1 <0>         0.1461
     49 H15        -1.7513   -7.3821   -5.7286 H         1 <0>         0.4214
     50 H16        -2.1859   -6.8742   -4.1872 H         1 <0>         0.4172
@<TRIPOS>BOND
     1    1    2 1
     2    1   35 1
     3    1   36 1
     4    1   37 1
     5    2    7 1
     6    2    3 2
     7    3    4 1
     8    4    5 am
     9    4   25 1
    10    5    6 2
    11    5    7 1
    12    7    8 2
    13    8    9 1
    14    8   38 1
    15    9   13 1
    16    9   10 2
    17   10   11 1
    18   10   39 1
    19   11   12 2
    20   11   40 1
    21   12   13 1
    22   12   14 1
    23   14   19 ar
    24   14   15 ar
    25   15   16 ar
    26   15   41 1
    27   16   17 ar
    28   16   42 1
    29   17   23 1
    30   17   18 ar
    31   18   19 ar
    32   18   20 1
    33   19   43 1
    34   20   21 2
    35   20   22 am
    36   22   23 am
    37   22   44 1
    38   23   24 2
    39   25   30 ar
    40   25   26 ar
    41   26   27 ar
    42   26   45 1
    43   27   28 ar
    44   27   46 1
    45   28   29 ar
    46   28   31 1
    47   29   30 ar
    48   29   47 1
    49   30   48 1
    50   31   32 2
    51   31   33 2
    52   31   34 1
    53   34   49 1
    54   34   50 1
@<TRIPOS>MOLECULE
ZINC01489583
   40    43     0     0     0
SMALL
USER_CHARGES

@<TRIPOS>ATOM
      1 C1         -0.4141    0.4949   -1.7191 C.3       1 <0>        -0.1016
      2 C2         -0.3980   -0.8905   -1.1263 C.2       1 <0>        -0.0931
      3 C3         -0.6694   -2.0392   -1.7674 C.2       1 <0>        -0.1404
      4 C4         -0.5235   -3.1273   -0.7753 C.2       1 <0>         0.5461
      5 O1         -0.6902   -4.3106   -0.9895 O.2       1 <0>        -0.4413
      6 N1         -0.1743   -2.5828    0.4042 N.am      1 <0>        -0.3836
      7 C5         -0.0740   -1.2479    0.2725 C.2       1 <0>         0.5480
      8 O2          0.2285   -0.4683    1.1527 O.2       1 <0>        -0.4382
      9 N2          0.0555   -3.2973    1.5872 N.pl3     1 <0>        -0.4735
     10 C6          1.2201   -4.0194    1.7414 C.ar      1 <0>         0.4958
     11 C7          1.2865   -5.1029    2.6502 C.ar      1 <0>        -0.2047
     12 C8          2.5086   -5.8105    2.7682 C.ar      1 <0>         0.2291
     13 C9          2.5978   -6.8859    3.6615 C.ar      1 <0>        -0.1439
     14 C10         1.5119   -7.2416    4.4073 C.ar      1 <0>        -0.0289
     15 C11         0.3098   -6.5537    4.2981 C.ar      1 <0>        -0.2285
     16 C12         0.1840   -5.4882    3.4283 C.ar      1 <0>         0.1823
     17 O3         -0.9936   -4.8211    3.3267 O.3       1 <0>        -0.3269
     18 C13        -2.0689   -5.2737    4.1520 C.3       1 <0>         0.0265
     19 N3          3.5510   -5.4278    2.0172 N.ar      1 <0>        -0.5258
     20 C14         3.4361   -4.4077    1.1827 C.ar      1 <0>         0.4612
     21 N4          2.3021   -3.7196    1.0390 N.ar      1 <0>        -0.5778
     22 C15         4.6069   -4.0190    0.3748 C.2       1 <0>        -0.1253
     23 C16         5.8591   -4.5770    0.3437 C.2       1 <0>        -0.0902
     24 C17         6.8020   -4.0390   -0.5005 C.2       1 <0>        -0.1685
     25 C18         6.4664   -2.9741   -1.2762 C.2       1 <0>        -0.1632
     26 S1          4.7607   -2.7042   -0.8234 S.3       1 <0>         0.1114
     27 H1          0.5729    0.7315   -2.1165 H         1 <0>         0.0945
     28 H2         -1.1492    0.5376   -2.5229 H         1 <0>         0.0907
     29 H3         -0.6778    1.2175   -0.9469 H         1 <0>         0.0860
     30 H4         -0.9422   -2.1477   -2.8067 H         1 <0>         0.1911
     31 H5         -0.6047   -3.2841    2.2977 H         1 <0>         0.4473
     32 H6          3.5240   -7.4326    3.7594 H         1 <0>         0.1461
     33 H7          1.5881   -8.0720    5.0936 H         1 <0>         0.1403
     34 H8         -0.5351   -6.8553    4.8994 H         1 <0>         0.1397
     35 H9         -2.9490   -4.6561    3.9732 H         1 <0>         0.1072
     36 H10        -2.2987   -6.3119    3.9123 H         1 <0>         0.0661
     37 H11        -1.7790   -5.1984    5.2001 H         1 <0>         0.0659
     38 H12         6.1003   -5.4228    0.9705 H         1 <0>         0.1468
     39 H13         7.7968   -4.4570   -0.5464 H         1 <0>         0.1414
     40 H14         7.0740   -2.4332   -1.9866 H         1 <0>         0.1919
@<TRIPOS>BOND
     1    1    2 1
     2    1   27 1
     3    1   28 1
     4    1   29 1
     5    2    7 1
     6    2    3 2
     7    3    4 1
     8    3   30 1
     9    4    5 2
    10    4    6 am
    11    6    7 am
    12    6    9 1
    13    7    8 2
    14    9   10 1
    15    9   31 1
    16   10   21 ar
    17   10   11 ar
    18   11   16 ar
    19   11   12 ar
    20   12   13 ar
    21   12   19 ar
    22   13   14 ar
    23   13   32 1
    24   14   15 ar
    25   14   33 1
    26   15   16 ar
    27   15   34 1
    28   16   17 1
    29   17   18 1
    30   18   35 1
    31   18   36 1
    32   18   37 1
    33   19   20 ar
    34   20   21 ar
    35   20   22 1
    36   22   26 1
    37   22   23 2
    38   23   24 1
    39   23   38 1
    40   24   25 2
    41   24   39 1
    42   25   26 1
    43   25   40 1
@<TRIPOS>MOLECULE
ZINC03814434
   62    69     0     0     0
SMALL
USER_CHARGES

@<TRIPOS>ATOM
      1 C1         -0.1295    1.5952   -0.2973 C.3       1 <0>        -0.1687
      2 C2         -0.0862    0.0696   -0.1900 C.3       1 <0>         0.3342
      3 C3          0.5692   -0.4501   -1.4637 C.3       1 <0>         0.0405
      4 H1          1.4796    0.1159   -1.6612 H         1 <0>         0.1372
      5 C4          0.9167   -1.9328   -1.2889 C.3       1 <0>        -0.0061
      6 H2          1.3963   -2.3075   -2.1932 H         1 <0>         0.1555
      7 C5          1.8785   -2.0596   -0.1021 C.3       1 <0>        -0.1827
      8 C6          1.2061   -1.5198    1.1541 C.3       1 <0>         0.2999
      9 H3          1.9797   -1.4243    1.9161 H         1 <0>         0.1550
     10 O1          0.6555   -0.2442    0.9666 O.3       1 <0>        -0.3234
     11 N1          0.2189   -2.4746    1.6600 N.pl3     1 <0>        -0.5366
     12 C7          0.4705   -3.5508    2.4739 C.ar      1 <0>         0.1469
     13 C8          1.6649   -4.0152    3.0240 C.ar      1 <0>        -0.1522
     14 C9          1.5948   -5.1456    3.8201 C.ar      1 <0>        -0.0582
     15 C10         0.4006   -5.7997    4.0696 C.ar      1 <0>        -0.1457
     16 C11        -0.7984   -5.3597    3.5358 C.ar      1 <0>        -0.0280
     17 C12        -0.7487   -4.2198    2.7307 C.ar      1 <0>        -0.1131
     18 C13        -1.7893   -3.4830    2.0197 C.ar      1 <0>         0.0276
     19 C14        -1.1442   -2.4197    1.3841 C.ar      1 <0>         0.0376
     20 C15        -1.8806   -1.5095    0.6175 C.ar      1 <0>         0.0894
     21 N2         -1.4718   -0.3951   -0.1095 N.pl3     1 <0>        -0.5183
     22 C16        -2.5611    0.1913   -0.7090 C.ar      1 <0>         0.1618
     23 C17        -2.6521    1.3277   -1.5118 C.ar      1 <0>        -0.1305
     24 C18        -3.9109    1.6745   -1.9733 C.ar      1 <0>        -0.0737
     25 C19        -5.0393    0.9368   -1.6616 C.ar      1 <0>        -0.1358
     26 C20        -4.9745   -0.1955   -0.8662 C.ar      1 <0>        -0.0503
     27 C21        -3.7147   -0.5596   -0.3919 C.ar      1 <0>        -0.1042
     28 C22        -3.2693   -1.6660    0.4845 C.ar      1 <0>        -0.0360
     29 C23        -3.9084   -2.7313    1.1102 C.ar      1 <0>        -0.0288
     30 C24        -3.1873   -3.6421    1.8754 C.ar      1 <0>        -0.1255
     31 C25        -4.1221   -4.6480    2.4030 C.2       1 <0>         0.5632
     32 O2         -3.8062   -5.5851    3.1110 O.2       1 <0>        -0.5106
     33 N3         -5.3744   -4.3851    1.9926 N.am      1 <0>        -0.7162
     34 C26        -5.3495   -3.1771    1.1601 C.3       1 <0>         0.1358
     35 N4         -0.3067   -2.7008   -1.0216 N.4       1 <0>        -0.5252
     36 C27         0.0145   -4.1336   -0.9773 C.3       1 <0>        -0.0497
     37 O3         -0.3340   -0.2979   -2.5607 O.3       1 <0>        -0.3614
     38 C28         0.3101   -0.0933   -3.8198 C.3       1 <0>         0.0162
     39 H4          0.8261    2.0094    0.0240 H         1 <0>         0.0984
     40 H5         -0.3202    1.8814   -1.3317 H         1 <0>         0.1036
     41 H6         -0.9255    1.9818    0.3392 H         1 <0>         0.0921
     42 H7          2.1370   -3.1081    0.0458 H         1 <0>         0.1233
     43 H8          2.7835   -1.4869   -0.3048 H         1 <0>         0.1455
     44 H9          2.6036   -3.5149    2.8368 H         1 <0>         0.1365
     45 H10         2.5026   -5.5304    4.2610 H         1 <0>         0.1359
     46 H11         0.4045   -6.6780    4.6980 H         1 <0>         0.1352
     47 H12        -1.7278   -5.8736    3.7323 H         1 <0>         0.1600
     48 H13        -1.7792    1.9122   -1.7624 H         1 <0>         0.1440
     49 H14        -4.0153    2.5500   -2.5970 H         1 <0>         0.1336
     50 H15        -5.9967    1.2527   -2.0488 H         1 <0>         0.1332
     51 H16        -5.8575   -0.7687   -0.6249 H         1 <0>         0.1415
     52 H17        -6.1628   -4.9065    2.2103 H         1 <0>         0.4348
     53 H18        -5.9671   -2.3994    1.6094 H         1 <0>         0.1115
     54 H19        -5.7060   -3.4063    0.1559 H         1 <0>         0.1103
     55 H20        -0.6958   -2.4158   -0.1353 H         1 <0>         0.4186
     56 H21         0.4349   -4.4415   -1.9347 H         1 <0>         0.1256
     57 H22         0.7403   -4.3189   -0.1854 H         1 <0>         0.1191
     58 H23        -0.8932   -4.7035   -0.7789 H         1 <0>         0.1256
     59 H24         0.9168    0.8112   -3.7748 H         1 <0>         0.0633
     60 H25         0.9482   -0.9479   -4.0446 H         1 <0>         0.0514
     61 H26        -0.4433    0.0130   -4.6003 H         1 <0>         0.1100
     62 H27        -0.9785   -2.5293   -1.7546 H         1 <0>         0.4274
@<TRIPOS>BOND
     1    1    2 1
     2    1   39 1
     3    1   40 1
     4    1   41 1
     5    2   10 1
     6    2   21 1
     7    2    3 1
     8    3    4 1
     9    3    5 1
    10    3   37 1
    11    5    6 1
    12    5    7 1
    13    5   35 1
    14    7    8 1
    15    7   42 1
    16    7   43 1
    17    8    9 1
    18    8   10 1
    19    8   11 1
    20   11   19 1
    21   11   12 1
    22   12   17 ar
    23   12   13 ar
    24   13   14 ar
    25   13   44 1
    26   14   15 ar
    27   14   45 1
    28   15   16 ar
    29   15   46 1
    30   16   17 ar
    31   16   47 1
    32   17   18 1
    33   18   30 ar
    34   18   19 ar
    35   19   20 ar
    36   20   28 ar
    37   20   21 1
    38   21   22 1
    39   22   27 ar
    40   22   23 ar
    41   23   24 ar
    42   23   48 1
    43   24   25 ar
    44   24   49 1
    45   25   26 ar
    46   25   50 1
    47   26   27 ar
    48   26   51 1
    49   27   28 1
    50   28   29 ar
    51   29   34 1
    52   29   30 ar
    53   30   31 1
    54   31   32 2
    55   31   33 am
    56   33   34 1
    57   33   52 1
    58   34   53 1
    59   34   54 1
    60   35   36 1
    61   35   55 1
    62   35   62 1
    63   36   56 1
    64   36   57 1
    65   36   58 1
    66   37   38 1
    67   38   59 1
    68   38   60 1
    69   38   61 1
@<TRIPOS>MOLECULE
ZINC02140183
   44    46     0     0     0
SMALL
USER_CHARGES
N-[(2-chloro-6-fluoro-phenyl)methyleneamino]-2-[(2,8-dimethyl-4-quinolyl)sulfanyl]acetamide
@<TRIPOS>ATOM
      1 C1         -1.2910   -0.7780    0.0106 C.3       1 <0>        -0.1079
      2 C2          0.0021   -0.0041    0.0020 C.ar      1 <0>        -0.0614
      3 C3          1.1933   -0.6637   -0.0128 C.ar      1 <0>        -0.1005
      4 C4          2.3990    0.0323   -0.0205 C.ar      1 <0>        -0.1067
      5 C5          2.4183    1.3952   -0.0139 C.ar      1 <0>        -0.1008
      6 C6          1.2106    2.1050    0.0018 C.ar      1 <0>        -0.0844
      7 C7         -0.0170    1.4009    0.0097 C.ar      1 <0>         0.1498
      8 N1         -1.1735    2.0742    0.0189 N.ar      1 <0>        -0.4764
      9 C8         -1.2074    3.3868    0.0317 C.ar      1 <0>         0.1743
     10 C9         -0.0483    4.1498    0.0246 C.ar      1 <0>        -0.1938
     11 C10         1.1879    3.5212    0.0095 C.ar      1 <0>        -0.0498
     12 S1          2.6824    4.4545    0.0007 S.3       1 <0>         0.0278
     13 C11         2.0049    6.1329    0.0158 C.3       1 <0>        -0.1661
     14 C12         3.1344    7.1306    0.0107 C.2       1 <0>         0.5515
     15 O1          4.2844    6.7448   -0.0019 O.2       1 <0>        -0.4750
     16 N2          2.8668    8.4515    0.0201 N.am      1 <0>        -0.5815
     17 N3          3.9168    9.3790    0.0154 N.2       1 <0>        -0.1930
     18 C13         3.6591   10.6509    0.0245 C.2       1 <0>         0.0969
     19 C14         4.7639   11.6268    0.0195 C.ar      1 <0>        -0.0838
     20 C15         4.4903   12.9989    0.0293 C.ar      1 <0>         0.1395
     21 C16         5.5318   13.9068    0.0250 C.ar      1 <0>        -0.1537
     22 C17         6.8417   13.4618    0.0106 C.ar      1 <0>        -0.0603
     23 C18         7.1197   12.1067    0.0005 C.ar      1 <0>        -0.1264
     24 C19         6.0903   11.1864    0.0109 C.ar      1 <0>         0.0112
     25 Cl1         6.4427    9.4866    0.0059 Cl        1 <0>         0.0002
     26 F1          3.2116   13.4348    0.0424 F         1 <0>        -0.1260
     27 C20        -2.5430    4.0844    0.0481 C.3       1 <0>        -0.1074
     28 H1         -1.6129   -0.9591   -1.0149 H         1 <0>         0.0722
     29 H2         -1.1406   -1.7310    0.5179 H         1 <0>         0.0665
     30 H3         -2.0547   -0.2038    0.5351 H         1 <0>         0.0780
     31 H4          1.2029   -1.7437   -0.0184 H         1 <0>         0.1326
     32 H5          3.3303   -0.5143   -0.0323 H         1 <0>         0.1316
     33 H6          3.3594    1.9250   -0.0203 H         1 <0>         0.1310
     34 H7         -0.1087    5.2281    0.0305 H         1 <0>         0.1365
     35 H8          1.3843    6.2821   -0.8678 H         1 <0>         0.1272
     36 H9          1.4006    6.2727    0.9121 H         1 <0>         0.1272
     37 H10         1.9472    8.7599    0.0302 H         1 <0>         0.3878
     38 H11         2.6352   10.9944    0.0357 H         1 <0>         0.1313
     39 H12         5.3229   14.9664    0.0325 H         1 <0>         0.1485
     40 H13         7.6516   14.1763    0.0070 H         1 <0>         0.1476
     41 H14         8.1450   11.7675   -0.0111 H         1 <0>         0.1459
     42 H15        -2.8749    4.2581   -0.9755 H         1 <0>         0.0824
     43 H16        -3.2722    3.4611    0.5657 H         1 <0>         0.0817
     44 H17        -2.4481    5.0388    0.5662 H         1 <0>         0.0758
@<TRIPOS>BOND
     1    1    2 1
     2    1   28 1
     3    1   29 1
     4    1   30 1
     5    2    7 ar
     6    2    3 ar
     7    3    4 ar
     8    3   31 1
     9    4    5 ar
    10    4   32 1
    11    5    6 ar
    12    5   33 1
    13    6   11 ar
    14    6    7 ar
    15    7    8 ar
    16    8    9 ar
    17    9   10 ar
    18    9   27 1
    19   10   11 ar
    20   10   34 1
    21   11   12 1
    22   12   13 1
    23   13   14 1
    24   13   35 1
    25   13   36 1
    26   14   15 2
    27   14   16 am
    28   16   17 1
    29   16   37 1
    30   17   18 2
    31   18   19 1
    32   18   38 1
    33   19   24 ar
    34   19   20 ar
    35   20   21 ar
    36   20   26 1
    37   21   22 ar
    38   21   39 1
    39   22   23 ar
    40   22   40 1
    41   23   24 ar
    42   23   41 1
    43   24   25 1
    44   27   42 1
    45   27   43 1
    46   27   44 1
@<TRIPOS>MOLECULE
ZINC00976550
   54    56     0     0     0
SMALL
USER_CHARGES
methyl 4-[2-[3-[(4-methoxyphenyl)methyl]-1-methyl-5-oxo-2-thioxo-imidazolidin-4-yl]acetyl]aminobenzoate
@<TRIPOS>ATOM
      1 C1          5.3685    2.4143   -2.5745 C.3       1 <0>         0.0694
      2 N1          4.0830    1.8041   -2.2258 N.am      1 <0>        -0.5372
      3 C2          3.6605    1.5984   -0.9627 C.2       1 <0>         0.5203
      4 O1          4.2500    1.8731    0.0606 O.2       1 <0>        -0.4406
      5 C3          2.2946    0.9532   -1.0875 C.3       1 <0>         0.0860
      6 H1          2.2940   -0.0393   -0.6369 H         1 <0>         0.1547
      7 N2          2.0865    0.8617   -2.5430 N.pl3     1 <0>        -0.5429
      8 C4          3.1833    1.3830   -3.1219 C.2       1 <0>         0.5309
      9 S1          3.4031    1.4949   -4.8161 S.2       1 <0>        -0.5491
     10 C5          0.9136    0.3112   -3.2266 C.3       1 <0>         0.1735
     11 C6          1.1590   -1.1385   -3.5568 C.ar      1 <0>        -0.1641
     12 C7          1.8158   -1.4787   -4.7250 C.ar      1 <0>        -0.0472
     13 C8          2.0470   -2.8067   -5.0272 C.ar      1 <0>        -0.2172
     14 C9          1.6096   -3.7999   -4.1629 C.ar      1 <0>         0.1408
     15 C10         0.9459   -3.4561   -2.9942 C.ar      1 <0>        -0.1645
     16 C11         0.7221   -2.1264   -2.6938 C.ar      1 <0>        -0.0516
     17 O2          1.8314   -5.1072   -4.4604 O.3       1 <0>        -0.3177
     18 C12         2.5208   -5.3870   -5.6804 C.3       1 <0>         0.0262
     19 C13         1.2220    1.8350   -0.4448 C.3       1 <0>        -0.1394
     20 C14        -0.1122    1.1384   -0.5197 C.2       1 <0>         0.5200
     21 O3         -0.1613   -0.0602   -0.6984 O.2       1 <0>        -0.5026
     22 N3         -1.2510    1.8481   -0.3938 N.am      1 <0>        -0.6681
     23 C15        -2.4788    1.1907   -0.3312 C.ar      1 <0>         0.1785
     24 C16        -2.5767   -0.0366    0.3171 C.ar      1 <0>        -0.1321
     25 C17        -3.7885   -0.6858    0.3858 C.ar      1 <0>        -0.0387
     26 C18        -4.9193   -0.1163   -0.2072 C.ar      1 <0>        -0.1397
     27 C19        -4.8160    1.1142   -0.8627 C.ar      1 <0>        -0.0312
     28 C20        -3.6022    1.7607   -0.9222 C.ar      1 <0>        -0.1526
     29 C21        -6.2178   -0.8122   -0.1419 C.2       1 <0>         0.5086
     30 O4         -7.1995   -0.3161   -0.6581 O.2       1 <0>        -0.5047
     31 O5         -6.3155   -1.9981    0.4903 O.3       1 <0>        -0.3551
     32 C22        -7.6246   -2.6258    0.5154 C.3       1 <0>         0.0364
     33 H2          5.4643    2.4649   -3.6591 H         1 <0>         0.1208
     34 H3          5.4179    3.4204   -2.1581 H         1 <0>         0.0863
     35 H4          6.1795    1.8117   -2.1658 H         1 <0>         0.0857
     36 H5          0.0424    0.3934   -2.5767 H         1 <0>         0.1133
     37 H6          0.7345    0.8681   -4.1464 H         1 <0>         0.1093
     38 H7          2.1522   -0.7053   -5.3996 H         1 <0>         0.1458
     39 H8          2.5640   -3.0717   -5.9376 H         1 <0>         0.1287
     40 H9          0.6041   -4.2275   -2.3199 H         1 <0>         0.1301
     41 H10         0.2051   -1.8584   -1.7842 H         1 <0>         0.1452
     42 H11         2.6317   -6.4652   -5.7961 H         1 <0>         0.1012
     43 H12         1.9508   -4.9883   -6.5196 H         1 <0>         0.0572
     44 H13         3.5059   -4.9210   -5.6562 H         1 <0>         0.0564
     45 H14         1.1662    2.7850   -0.9763 H         1 <0>         0.1097
     46 H15         1.4787    2.0171    0.5988 H         1 <0>         0.1387
     47 H16        -1.2163    2.8164   -0.3467 H         1 <0>         0.4182
     48 H17        -1.7017   -0.4782    0.7708 H         1 <0>         0.1427
     49 H18        -3.8648   -1.6361    0.8933 H         1 <0>         0.1440
     50 H19        -5.6874    1.5569   -1.3222 H         1 <0>         0.1442
     51 H20        -3.5217    2.7113   -1.4284 H         1 <0>         0.1386
     52 H21        -8.3338   -1.9673    1.0168 H         1 <0>         0.0650
     53 H22        -7.9589   -2.8098   -0.5057 H         1 <0>         0.0652
     54 H23        -7.5638   -3.5717    1.0537 H         1 <0>         0.1047
@<TRIPOS>BOND
     1    1    2 1
     2    1   33 1
     3    1   34 1
     4    1   35 1
     5    2    8 1
     6    2    3 am
     7    3    4 2
     8    3    5 1
     9    5    6 1
    10    5    7 1
    11    5   19 1
    12    7    8 1
    13    7   10 1
    14    8    9 2
    15   10   11 1
    16   10   36 1
    17   10   37 1
    18   11   16 ar
    19   11   12 ar
    20   12   13 ar
    21   12   38 1
    22   13   14 ar
    23   13   39 1
    24   14   15 ar
    25   14   17 1
    26   15   16 ar
    27   15   40 1
    28   16   41 1
    29   17   18 1
    30   18   42 1
    31   18   43 1
    32   18   44 1
    33   19   20 1
    34   19   45 1
    35   19   46 1
    36   20   21 2
    37   20   22 am
    38   22   23 1
    39   22   47 1
    40   23   28 ar
    41   23   24 ar
    42   24   25 ar
    43   24   48 1
    44   25   26 ar
    45   25   49 1
    46   26   27 ar
    47   26   29 1
    48   27   28 ar
    49   27   50 1
    50   28   51 1
    51   29   30 2
    52   29   31 1
    53   31   32 1
    54   32   52 1
    55   32   53 1
    56   32   54 1
@<TRIPOS>MOLECULE
ZINC00976551
   54    56     0     0     0
SMALL
USER_CHARGES
methyl 4-[2-[3-[(4-methoxyphenyl)methyl]-1-methyl-5-oxo-2-thioxo-imidazolidin-4-yl]acetyl]aminobenzoate
@<TRIPOS>ATOM
      1 C1          3.2497    0.0859   -0.4586 C.3       1 <0>         0.0693
      2 N1          1.8154    0.3801   -0.4075 N.am      1 <0>        -0.5393
      3 C2          1.2959    1.6231   -0.4415 C.2       1 <0>         0.5149
      4 O1          1.9041    2.6692   -0.5186 O.2       1 <0>        -0.4223
      5 C3         -0.2070    1.4414   -0.3644 C.3       1 <0>         0.0889
      6 H1         -0.6876    1.8371   -1.2592 H         1 <0>         0.1500
      7 N2         -0.3756   -0.0201   -0.2889 N.pl3     1 <0>        -0.5520
      8 C4          0.8596   -0.5521   -0.3206 C.2       1 <0>         0.5354
      9 S1          1.1735   -2.2338   -0.2568 S.2       1 <0>        -0.5477
     10 C5         -1.6416   -0.7517   -0.1978 C.3       1 <0>         0.1801
     11 C6         -2.1545   -1.0427   -1.5846 C.ar      1 <0>        -0.1672
     12 C7         -2.9931   -0.1411   -2.2136 C.ar      1 <0>        -0.0601
     13 C8         -3.4601   -0.4029   -3.4871 C.ar      1 <0>        -0.2149
     14 C9         -3.0957   -1.5767   -4.1306 C.ar      1 <0>         0.1429
     15 C10        -2.2586   -2.4823   -3.4951 C.ar      1 <0>        -0.1550
     16 C11        -1.7902   -2.2134   -2.2236 C.ar      1 <0>        -0.0432
     17 O2         -3.5582   -1.8391   -5.3812 O.3       1 <0>        -0.3152
     18 C12        -4.4158   -0.8618   -5.9741 C.3       1 <0>         0.0256
     19 C13        -0.7668    2.1134    0.8909 C.3       1 <0>        -0.1383
     20 C14        -0.7014    3.6105    0.7309 C.2       1 <0>         0.5154
     21 O3         -0.3655    4.0928   -0.3299 O.2       1 <0>        -0.4876
     22 N3         -1.0161    4.4133    1.7667 N.am      1 <0>        -0.6710
     23 C15        -0.8551    5.7934    1.6529 C.ar      1 <0>         0.1829
     24 C16         0.1865    6.3100    0.8884 C.ar      1 <0>        -0.1348
     25 C17         0.3451    7.6721    0.7692 C.ar      1 <0>        -0.0380
     26 C18        -0.5353    8.5368    1.4263 C.ar      1 <0>        -0.1442
     27 C19        -1.5773    8.0142    2.1982 C.ar      1 <0>        -0.0317
     28 C20        -1.7330    6.6510    2.3087 C.ar      1 <0>        -0.1570
     29 C21        -0.3655    9.9965    1.3052 C.2       1 <0>         0.5098
     30 O4         -1.1317   10.7468    1.8766 O.2       1 <0>        -0.5065
     31 O5          0.6393   10.4985    0.5608 O.3       1 <0>        -0.3551
     32 C22         0.7458   11.9447    0.4866 C.3       1 <0>         0.0365
     33 H2          3.4011   -0.9927   -0.4153 H         1 <0>         0.1208
     34 H3          3.6674    0.4745   -1.3874 H         1 <0>         0.0855
     35 H4          3.7476    0.5570    0.3889 H         1 <0>         0.0853
     36 H5         -1.4819   -1.6892    0.3347 H         1 <0>         0.1225
     37 H6         -2.3722   -0.1479    0.3406 H         1 <0>         0.1026
     38 H7         -3.2801    0.7704   -1.7104 H         1 <0>         0.1231
     39 H8         -4.1113    0.3038   -3.9799 H         1 <0>         0.1301
     40 H9         -1.9732   -3.3966   -3.9941 H         1 <0>         0.1347
     41 H10        -1.1385   -2.9181   -1.7285 H         1 <0>         0.1472
     42 H11        -5.3034   -0.7336   -5.3545 H         1 <0>         0.0573
     43 H12        -3.8861    0.0877   -6.0510 H         1 <0>         0.0565
     44 H13        -4.7122   -1.1942   -6.9690 H         1 <0>         0.1028
     45 H14        -1.8033    1.8084    1.0348 H         1 <0>         0.1265
     46 H15        -0.1765    1.8145    1.7571 H         1 <0>         0.1122
     47 H16        -1.3547    4.0309    2.5913 H         1 <0>         0.4160
     48 H17         0.8687    5.6414    0.3843 H         1 <0>         0.1471
     49 H18         1.1509    8.0723    0.1718 H         1 <0>         0.1434
     50 H19        -2.2594    8.6792    2.7069 H         1 <0>         0.1437
     51 H20        -2.5376    6.2466    2.9048 H         1 <0>         0.1380
     52 H21         0.8922   12.3501    1.4877 H         1 <0>         0.0649
     53 H22         1.5941   12.2147   -0.1424 H         1 <0>         0.1044
     54 H23        -0.1689   12.3549    0.0586 H         1 <0>         0.0648
@<TRIPOS>BOND
     1    1    2 1
     2    1   33 1
     3    1   34 1
     4    1   35 1
     5    2    8 1
     6    2    3 am
     7    3    4 2
     8    3    5 1
     9    5    6 1
    10    5    7 1
    11    5   19 1
    12    7    8 1
    13    7   10 1
    14    8    9 2
    15   10   11 1
    16   10   36 1
    17   10   37 1
    18   11   16 ar
    19   11   12 ar
    20   12   13 ar
    21   12   38 1
    22   13   14 ar
    23   13   39 1
    24   14   15 ar
    25   14   17 1
    26   15   16 ar
    27   15   40 1
    28   16   41 1
    29   17   18 1
    30   18   42 1
    31   18   43 1
    32   18   44 1
    33   19   20 1
    34   19   45 1
    35   19   46 1
    36   20   21 2
    37   20   22 am
    38   22   23 1
    39   22   47 1
    40   23   28 ar
    41   23   24 ar
    42   24   25 ar
    43   24   48 1
    44   25   26 ar
    45   25   49 1
    46   26   27 ar
    47   26   29 1
    48   27   28 ar
    49   27   50 1
    50   28   51 1
    51   29   30 2
    52   29   31 1
    53   31   32 1
    54   32   52 1
    55   32   53 1
    56   32   54 1
@<TRIPOS>MOLECULE
ZINC00081904
   22    23     0     0     0
SMALL
USER_CHARGES

@<TRIPOS>ATOM
      1 C1         -0.0169    1.3925    0.0097 C.2       1 <0>        -0.1377
      2 C2          1.1862    2.0087    0.0015 C.2       1 <0>        -0.2003
      3 S1          2.3195    0.6341   -0.0167 S.3       1 <0>         0.1973
      4 C3          1.2142   -0.6306   -0.0129 C.2       1 <0>        -0.2159
      5 C4          0.0021   -0.0041    0.0020 C.2       1 <0>        -0.0769
      6 C5         -1.2541   -0.7806    0.0103 C.2       1 <0>        -0.0079
      7 C6         -1.4246   -2.1536    0.0103 C.2       1 <0>        -0.2276
      8 C7         -2.7006   -2.6612    0.0190 C.2       1 <0>         0.2871
      9 C8         -3.7701   -1.7641    0.0275 C.2       1 <0>        -0.3634
     10 S2         -2.9367   -0.1856    0.0308 S.3       1 <0>         0.0897
     11 C9         -5.1556   -2.0356    0.0367 C.2       1 <0>         0.6222
     12 O1         -5.5505   -3.1884    0.0381 O.2       1 <0>        -0.5617
     13 N1         -6.0414   -1.0198    0.0441 N.am      1 <0>        -0.8550
     14 N2         -2.9221   -4.0361    0.0188 N.pl3     1 <0>        -0.8380
     15 H1         -0.9420    1.9495    0.0259 H         1 <0>         0.1439
     16 H2          1.4050    3.0663    0.0051 H         1 <0>         0.1923
     17 H3          1.4157   -1.6916   -0.0205 H         1 <0>         0.1890
     18 H4         -0.5700   -2.8139    0.0032 H         1 <0>         0.1419
     19 H5         -5.7270   -0.1022    0.0430 H         1 <0>         0.3983
     20 H6         -6.9932   -1.2064    0.0505 H         1 <0>         0.4055
     21 H7         -2.1698   -4.6485    0.0129 H         1 <0>         0.3985
     22 H8         -3.8285   -4.3814    0.0247 H         1 <0>         0.4189
@<TRIPOS>BOND
     1    1    5 1
     2    1    2 2
     3    1   15 1
     4    2    3 1
     5    2   16 1
     6    3    4 1
     7    4    5 2
     8    4   17 1
     9    5    6 1
    10    6   10 1
    11    6    7 2
    12    7    8 1
    13    7   18 1
    14    8    9 2
    15    8   14 1
    16    9   10 1
    17    9   11 1
    18   11   12 2
    19   11   13 am
    20   13   19 1
    21   13   20 1
    22   14   21 1
    23   14   22 1
@<TRIPOS>MOLECULE
ZINC13831229
   65    70     0     0     0
SMALL
USER_CHARGES

@<TRIPOS>ATOM
      1 C1         -2.0927    0.6313   -0.5689 C.ar      1 <0>        -0.1231
      2 C2         -3.0798    0.7519    0.4011 C.ar      1 <0>        -0.0799
      3 C3         -3.3236   -0.3016    1.2591 C.ar      1 <0>        -0.0820
      4 C4         -2.5838   -1.4595    1.1414 C.ar      1 <0>        -0.1033
      5 C5         -1.5742   -1.6084    0.1639 C.ar      1 <0>        -0.1072
      6 C6         -1.3562   -0.5034   -0.6962 C.ar      1 <0>        -0.0635
      7 C7         -0.8946   -2.8910    0.1815 C.2       1 <0>        -0.0634
      8 C8         -1.2627   -3.8182    1.0988 C.2       1 <0>        -0.1297
      9 S1         -2.5653   -3.0081    2.0069 S.3       1 <0>         0.0748
     10 C9         -0.7157   -5.1758    1.2982 C.ar      1 <0>         0.3071
     11 C10        -1.2260   -6.0080    2.3019 C.ar      1 <0>        -0.2582
     12 C11        -0.6818   -7.2701    2.4501 C.ar      1 <0>         0.1966
     13 N1          0.2980   -7.6522    1.6454 N.ar      1 <0>        -0.5578
     14 C12         0.7625   -6.8443    0.7033 C.ar      1 <0>         0.5645
     15 N2          0.2679   -5.6302    0.5219 N.ar      1 <0>        -0.5506
     16 N3          1.7890   -7.2843   -0.1173 N.pl3     1 <0>        -0.6396
     17 C13         2.2383   -8.5990   -0.0259 C.ar      1 <0>         0.2030
     18 C14         3.5947   -8.8804   -0.1620 C.ar      1 <0>        -0.1525
     19 C15         4.0420  -10.1789   -0.0727 C.ar      1 <0>        -0.0739
     20 C16         3.1326  -11.2156    0.1555 C.ar      1 <0>        -0.1606
     21 C17         1.7712  -10.9297    0.2922 C.ar      1 <0>        -0.0414
     22 C18         1.3309   -9.6285    0.2070 C.ar      1 <0>        -0.1141
     23 C19         3.6087  -12.6089    0.2513 C.2       1 <0>         0.5713
     24 O1          3.0241  -13.4934   -0.3439 O.2       1 <0>        -0.5158
     25 N4          4.6915  -12.9011    0.9987 N.am      1 <0>        -0.6198
     26 C20         5.1265  -14.2935    1.1739 C.3       1 <0>         0.1161
     27 C21         5.2477  -14.5874    2.6725 C.3       1 <0>        -0.1547
     28 C22         6.1736  -13.5537    3.3177 C.3       1 <0>         0.0296
     29 C23         5.5771  -12.1547    3.1465 C.3       1 <0>        -0.1571
     30 C24         5.4629  -11.8329    1.6487 C.3       1 <0>         0.0965
     31 N5          6.3185  -13.8521    4.7488 N.4       1 <0>        -0.3932
     32 C25         6.9782  -15.1701    4.9328 C.3       1 <0>        -0.0065
     33 C26         7.5533  -15.0812    6.3688 C.3       1 <0>        -0.1453
     34 C27         8.0201  -13.6105    6.4637 C.3       1 <0>        -0.1447
     35 C28         7.2112  -12.8615    5.3885 C.3       1 <0>        -0.0094
     36 H1         -1.9095    1.4571   -1.2403 H         1 <0>         0.1325
     37 H2         -3.6523    1.6640    0.4837 H         1 <0>         0.1396
     38 H3         -4.0881   -0.2195    2.0175 H         1 <0>         0.1361
     39 H4         -0.5967   -0.5640   -1.4616 H         1 <0>         0.1293
     40 H5         -0.1072   -3.1035   -0.5264 H         1 <0>         0.1476
     41 H6         -2.0256   -5.6717    2.9453 H         1 <0>         0.1513
     42 H7         -1.0516   -7.9375    3.2145 H         1 <0>         0.1781
     43 H8          2.1944   -6.6764   -0.7552 H         1 <0>         0.4283
     44 H9          4.2968   -8.0789   -0.3383 H         1 <0>         0.1353
     45 H10         5.0945  -10.3966   -0.1791 H         1 <0>         0.1339
     46 H11         1.0661  -11.7285    0.4685 H         1 <0>         0.1340
     47 H12         0.2797   -9.4064    0.3165 H         1 <0>         0.1396
     48 H13         4.3923  -14.9646    0.7282 H         1 <0>         0.1136
     49 H14         6.0946  -14.4370    0.6939 H         1 <0>         0.0811
     50 H15         4.2622  -14.5319    3.1349 H         1 <0>         0.0918
     51 H16         5.6614  -15.5856    2.8152 H         1 <0>         0.1002
     52 H17         7.1516  -13.5926    2.8380 H         1 <0>         0.1384
     53 H18         4.5885  -12.1222    3.6045 H         1 <0>         0.0931
     54 H19         6.2253  -11.4216    3.6266 H         1 <0>         0.1000
     55 H20         6.4579  -11.7798    1.2067 H         1 <0>         0.0838
     56 H21         4.9507  -10.8799    1.5163 H         1 <0>         0.1218
     57 H22         6.2504  -15.9782    4.8593 H         1 <0>         0.1352
     58 H23         7.7787  -15.3046    4.2054 H         1 <0>         0.1338
     59 H24         6.7794  -15.2888    7.1078 H         1 <0>         0.0979
     60 H25         8.3960  -15.7619    6.4896 H         1 <0>         0.1168
     61 H26         7.8002  -13.2069    7.4521 H         1 <0>         0.1049
     62 H27         9.0872  -13.5379    6.2534 H         1 <0>         0.1037
     63 H28         7.8859  -12.4356    4.6459 H         1 <0>         0.1302
     64 H29         6.6189  -12.0726    5.8519 H         1 <0>         0.1313
     65 H30         5.4153  -13.8482    5.1986 H         1 <0>         0.4250
@<TRIPOS>BOND
     1    1    6 ar
     2    1    2 ar
     3    1   36 1
     4    2    3 ar
     5    2   37 1
     6    3    4 ar
     7    3   38 1
     8    4    9 1
     9    4    5 ar
    10    5    6 ar
    11    5    7 1
    12    6   39 1
    13    7    8 2
    14    7   40 1
    15    8    9 1
    16    8   10 1
    17   10   15 ar
    18   10   11 ar
    19   11   12 ar
    20   11   41 1
    21   12   13 ar
    22   12   42 1
    23   13   14 ar
    24   14   15 ar
    25   14   16 1
    26   16   17 1
    27   16   43 1
    28   17   22 ar
    29   17   18 ar
    30   18   19 ar
    31   18   44 1
    32   19   20 ar
    33   19   45 1
    34   20   21 ar
    35   20   23 1
    36   21   22 ar
    37   21   46 1
    38   22   47 1
    39   23   24 2
    40   23   25 am
    41   25   30 1
    42   25   26 1
    43   26   27 1
    44   26   48 1
    45   26   49 1
    46   27   28 1
    47   27   50 1
    48   27   51 1
    49   28   29 1
    50   28   31 1
    51   28   52 1
    52   29   30 1
    53   29   53 1
    54   29   54 1
    55   30   55 1
    56   30   56 1
    57   31   35 1
    58   31   32 1
    59   31   65 1
    60   32   33 1
    61   32   57 1
    62   32   58 1
    63   33   34 1
    64   33   59 1
    65   33   60 1
    66   34   35 1
    67   34   61 1
    68   34   62 1
    69   35   63 1
    70   35   64 1
@<TRIPOS>MOLECULE
ZINC19890815
   23    24     0     0     0
SMALL
USER_CHARGES

@<TRIPOS>ATOM
      1 C1          0.2383    1.5731   -0.0605 C.ar      1 <0>        -0.1456
      2 C2          1.4875    2.1899   -0.0652 C.ar      1 <0>        -0.0710
      3 C3          2.6338    1.4554   -0.0564 C.ar      1 <0>        -0.1237
      4 C4          2.5645    0.0517   -0.0419 C.ar      1 <0>         0.2120
      5 C5          1.2923   -0.5740   -0.0367 C.ar      1 <0>        -0.1682
      6 C6          0.1301    0.2159   -0.0465 C.ar      1 <0>        -0.0681
      7 C7          1.2162   -1.9777   -0.0222 C.ar      1 <0>         0.0281
      8 C8          2.4040   -2.6971   -0.0136 C.ar      1 <0>        -0.2490
      9 C9          3.6362   -2.0025   -0.0196 C.ar      1 <0>         0.4730
     10 N1          3.6798   -0.6875   -0.0327 N.ar      1 <0>        -0.5582
     11 N2          4.8179   -2.7194   -0.0105 N.pl3     1 <0>        -0.8266
     12 C10         2.3809   -4.1718    0.0022 C.2       1 <0>         0.5801
     13 O1          3.4186   -4.7972   -0.1000 O.2       1 <0>        -0.5443
     14 N3          1.2095   -4.8261    0.1298 N.am      1 <0>        -0.8451
     15 H1         -0.6556    2.1793   -0.0635 H         1 <0>         0.1280
     16 H2          1.5476    3.2681   -0.0763 H         1 <0>         0.1307
     17 H3          3.5939    1.9500   -0.0610 H         1 <0>         0.1360
     18 H4         -0.8438   -0.2510   -0.0426 H         1 <0>         0.1298
     19 H5          0.2613   -2.4822   -0.0176 H         1 <0>         0.1441
     20 H6          4.7990   -3.6866   -0.0816 H         1 <0>         0.4242
     21 H7          5.6662   -2.2553    0.0670 H         1 <0>         0.4016
     22 H8          0.3816   -4.3271    0.2113 H         1 <0>         0.4025
     23 H9          1.1943   -5.7959    0.1402 H         1 <0>         0.4098
@<TRIPOS>BOND
     1    1    6 ar
     2    1    2 ar
     3    1   15 1
     4    2    3 ar
     5    2   16 1
     6    3    4 ar
     7    3   17 1
     8    4   10 ar
     9    4    5 ar
    10    5    6 ar
    11    5    7 ar
    12    6   18 1
    13    7    8 ar
    14    7   19 1
    15    8    9 ar
    16    8   12 1
    17    9   10 ar
    18    9   11 1
    19   11   20 1
    20   11   21 1
    21   12   13 2
    22   12   14 am
    23   14   22 1
    24   14   23 1
@<TRIPOS>MOLECULE
ZINC12375034
   20    21     0     0     0
SMALL
USER_CHARGES
3-aminothieno[5,4-b]pyridine-2-carboxamide
@<TRIPOS>ATOM
      1 C1         -2.5733    7.6677    0.0544 C.ar      1 <0>        -0.1863
      2 C2         -3.0174    6.3662    0.0499 C.ar      1 <0>        -0.0106
      3 C3         -2.0664    5.3160    0.0402 C.ar      1 <0>        -0.1880
      4 C4         -2.2989    3.8799    0.0284 C.2       1 <0>         0.3033
      5 C5         -1.2065    3.0410    0.0243 C.2       1 <0>        -0.3511
      6 S1          0.1768    4.1644    0.0232 S.3       1 <0>         0.1116
      7 C6         -0.7072    5.7043    0.0355 C.ar      1 <0>         0.1298
      8 N1         -0.3323    6.9653    0.0398 N.ar      1 <0>        -0.4533
      9 C7         -1.2147    7.9454    0.0487 C.ar      1 <0>         0.1577
     10 C8         -1.1873    1.6238    0.0165 C.2       1 <0>         0.6245
     11 O1         -2.2336    1.0006    0.0181 O.2       1 <0>        -0.5596
     12 N2         -0.0111    0.9658    0.0074 N.am      1 <0>        -0.8501
     13 N3         -3.5889    3.3680    0.0254 N.pl3     1 <0>        -0.8235
     14 H1         -3.2869    8.4784    0.0621 H         1 <0>         0.1487
     15 H2         -4.0751    6.1478    0.0539 H         1 <0>         0.1389
     16 H3         -0.8769    8.9712    0.0520 H         1 <0>         0.1758
     17 H4          0.0021   -0.0041    0.0020 H         1 <0>         0.4077
     18 H5          0.8223    1.4622    0.0021 H         1 <0>         0.4009
     19 H6         -3.7299    2.4083    0.0207 H         1 <0>         0.4245
     20 H7         -4.3495    3.9700    0.0280 H         1 <0>         0.3992
@<TRIPOS>BOND
     1    1    9 ar
     2    1    2 ar
     3    1   14 1
     4    2    3 ar
     5    2   15 1
     6    3    7 ar
     7    3    4 1
     8    4    5 2
     9    4   13 1
    10    5    6 1
    11    5   10 1
    12    6    7 1
    13    7    8 ar
    14    8    9 ar
    15    9   16 1
    16   10   11 2
    17   10   12 am
    18   12   17 1
    19   12   18 1
    20   13   19 1
    21   13   20 1
@<TRIPOS>MOLECULE
ZINC02539764
   25    26     0     0     0
SMALL
USER_CHARGES
3-amino-5-phenyl-thiophene-2-carboxamide
@<TRIPOS>ATOM
      1 C1          2.0182   -4.8251   -0.0412 C.ar      1 <0>        -0.1038
      2 C2          3.0679   -3.9237   -0.0471 C.ar      1 <0>        -0.1162
      3 C3          2.8163   -2.5673   -0.0380 C.ar      1 <0>        -0.0962
      4 C4          1.4994   -2.1049   -0.0229 C.ar      1 <0>        -0.0257
      5 C5          0.4451   -3.0197   -0.0111 C.ar      1 <0>        -0.0881
      6 C6          0.7105   -4.3734   -0.0261 C.ar      1 <0>        -0.1177
      7 C7          1.2225   -0.6530   -0.0131 C.2       1 <0>        -0.0326
      8 C8          0.0021   -0.0041    0.0020 C.2       1 <0>        -0.2195
      9 C9         -0.0166    1.3700    0.0096 C.2       1 <0>         0.2833
     10 C10         1.2025    2.0483    0.0016 C.2       1 <0>        -0.3592
     11 S1          2.3792    0.7062   -0.0169 S.3       1 <0>         0.0936
     12 C11         1.4441    3.4422    0.0064 C.2       1 <0>         0.6221
     13 O1          0.5088    4.2224    0.0191 O.2       1 <0>        -0.5598
     14 N1          2.7092    3.9069   -0.0031 N.am      1 <0>        -0.8545
     15 N2         -1.2220    2.0677    0.0191 N.pl3     1 <0>        -0.8378
     16 H1          2.2205   -5.8859   -0.0487 H         1 <0>         0.1283
     17 H2          4.0863   -4.2828   -0.0592 H         1 <0>         0.1307
     18 H3          3.6366   -1.8647   -0.0430 H         1 <0>         0.1272
     19 H4         -0.5760   -2.6685    0.0055 H         1 <0>         0.1284
     20 H5         -0.1044   -5.0823   -0.0216 H         1 <0>         0.1304
     21 H6         -0.9198   -0.5666    0.0082 H         1 <0>         0.1445
     22 H7          3.4540    3.2856   -0.0133 H         1 <0>         0.3985
     23 H8          2.8749    4.8627    0.0001 H         1 <0>         0.4060
     24 H9         -2.0625    1.5837    0.0209 H         1 <0>         0.3990
     25 H10        -1.2208    3.0377    0.0240 H         1 <0>         0.4190
@<TRIPOS>BOND
     1    1    6 ar
     2    1    2 ar
     3    1   16 1
     4    2    3 ar
     5    2   17 1
     6    3    4 ar
     7    3   18 1
     8    4    5 ar
     9    4    7 1
    10    5    6 ar
    11    5   19 1
    12    6   20 1
    13    7   11 1
    14    7    8 2
    15    8    9 1
    16    8   21 1
    17    9   10 2
    18    9   15 1
    19   10   11 1
    20   10   12 1
    21   12   13 2
    22   12   14 am
    23   14   22 1
    24   14   23 1
    25   15   24 1
    26   15   25 1
@<TRIPOS>MOLECULE
ZINC02565073
   25    26     0     0     0
SMALL
USER_CHARGES
3-amino-5-(4-fluorophenyl)-thiophene-2-carboxamide
@<TRIPOS>ATOM
      1 C1          0.4448   -3.0192   -0.0134 C.ar      1 <0>        -0.0588
      2 C2          0.7088   -4.3726   -0.0290 C.ar      1 <0>        -0.1506
      3 C3          2.0186   -4.8256   -0.0434 C.ar      1 <0>         0.1150
      4 C4          3.0697   -3.9221   -0.0486 C.ar      1 <0>        -0.1491
      5 C5          2.8170   -2.5665   -0.0390 C.ar      1 <0>        -0.0670
      6 C6          1.4996   -2.1047   -0.0240 C.ar      1 <0>        -0.0341
      7 C7          1.2227   -0.6531   -0.0131 C.2       1 <0>        -0.0369
      8 C8          0.0021   -0.0041    0.0020 C.2       1 <0>        -0.2156
      9 C9         -0.0166    1.3698    0.0096 C.2       1 <0>         0.2825
     10 C10         1.2026    2.0483    0.0016 C.2       1 <0>        -0.3566
     11 S1          2.3793    0.7062   -0.0169 S.3       1 <0>         0.0976
     12 C11         1.4441    3.4417    0.0068 C.2       1 <0>         0.6216
     13 O1          0.5087    4.2219    0.0199 O.2       1 <0>        -0.5590
     14 N1          2.7092    3.9064   -0.0028 N.am      1 <0>        -0.8542
     15 N2         -1.2219    2.0675    0.0191 N.pl3     1 <0>        -0.8373
     16 F1          2.2718   -6.1526   -0.0528 F         1 <0>        -0.1331
     17 H1         -0.5761   -2.6673    0.0023 H         1 <0>         0.1398
     18 H2         -0.1065   -5.0809   -0.0253 H         1 <0>         0.1442
     19 H3          4.0884   -4.2804   -0.0598 H         1 <0>         0.1445
     20 H4          3.6367   -1.8633   -0.0427 H         1 <0>         0.1381
     21 H5         -0.9198   -0.5666    0.0082 H         1 <0>         0.1454
     22 H6          3.4540    3.2851   -0.0133 H         1 <0>         0.3986
     23 H7          2.8748    4.8622    0.0007 H         1 <0>         0.4064
     24 H8         -2.0625    1.5835    0.0209 H         1 <0>         0.3994
     25 H9         -1.2208    3.0375    0.0240 H         1 <0>         0.4193
@<TRIPOS>BOND
     1    1    6 ar
     2    1    2 ar
     3    1   17 1
     4    2    3 ar
     5    2   18 1
     6    3    4 ar
     7    3   16 1
     8    4    5 ar
     9    4   19 1
    10    5    6 ar
    11    5   20 1
    12    6    7 1
    13    7   11 1
    14    7    8 2
    15    8    9 1
    16    8   21 1
    17    9   10 2
    18    9   15 1
    19   10   11 1
    20   10   12 1
    21   12   13 2
    22   12   14 am
    23   14   22 1
    24   14   23 1
    25   15   24 1
    26   15   25 1
@<TRIPOS>MOLECULE
ZINC13686762
   24    25     0     0     0
SMALL
USER_CHARGES
5-amino-2-(2-chlorophenyl)oxazole-4-carboxamide
@<TRIPOS>ATOM
      1 C1         -4.1047   -4.5168   -0.0061 C.ar      1 <0>        -0.1124
      2 C2         -5.4769   -4.6971   -0.0003 C.ar      1 <0>        -0.0924
      3 C3         -6.3245   -3.6043    0.0108 C.ar      1 <0>        -0.1085
      4 C4         -5.8055   -2.3244    0.0158 C.ar      1 <0>        -0.0209
      5 C5         -4.4215   -2.1359    0.0100 C.ar      1 <0>         0.0036
      6 C6         -3.5727   -3.2442   -0.0066 C.ar      1 <0>        -0.0664
      7 C7         -3.8583   -0.7698    0.0154 C.2       1 <0>         0.2014
      8 N1         -2.5839   -0.4798    0.0057 N.2       1 <0>        -0.4038
      9 C8         -2.4468    0.8736    0.0184 C.2       1 <0>        -0.1751
     10 C9         -3.7270    1.4081    0.0274 C.2       1 <0>         0.3498
     11 O1         -4.5798    0.3678    0.0253 O.3       1 <0>        -0.1989
     12 N2         -4.0597    2.7429    0.0366 N.pl3     1 <0>        -0.7888
     13 C10        -1.1873    1.6238    0.0165 C.2       1 <0>         0.6216
     14 O2         -1.2038    2.8409    0.0232 O.2       1 <0>        -0.5608
     15 N3         -0.0111    0.9658    0.0074 N.am      1 <0>        -0.8380
     16 Cl1        -6.8705   -0.9535    0.0287 Cl        1 <0>        -0.0482
     17 H1         -3.4488   -5.3747   -0.0148 H         1 <0>         0.1400
     18 H2         -5.8877   -5.6959   -0.0049 H         1 <0>         0.1389
     19 H3         -7.3943   -3.7521    0.0153 H         1 <0>         0.1413
     20 H4         -2.5017   -3.1054   -0.0156 H         1 <0>         0.1478
     21 H5         -3.3620    3.4167    0.0373 H         1 <0>         0.4422
     22 H6         -4.9921    3.0103    0.0425 H         1 <0>         0.4117
     23 H7          0.0021   -0.0041    0.0020 H         1 <0>         0.4097
     24 H8          0.8223    1.4622    0.0021 H         1 <0>         0.4063
@<TRIPOS>BOND
     1    1    6 ar
     2    1    2 ar
     3    1   17 1
     4    2    3 ar
     5    2   18 1
     6    3    4 ar
     7    3   19 1
     8    4    5 ar
     9    4   16 1
    10    5    6 ar
    11    5    7 1
    12    6   20 1
    13    7   11 1
    14    7    8 2
    15    8    9 1
    16    9   10 2
    17    9   13 1
    18   10   11 1
    19   10   12 1
    20   12   21 1
    21   12   22 1
    22   13   14 2
    23   13   15 am
    24   15   23 1
    25   15   24 1
@<TRIPOS>MOLECULE
ZINC12395125
   27    28     0     0     0
SMALL
USER_CHARGES
5-amino-2-(o-tolyl)oxazole-4-carboxamide
@<TRIPOS>ATOM
      1 C1         -6.7186   -1.1390    0.2456 C.3       1 <0>        -0.1186
      2 C2         -5.7995   -2.3268    0.1200 C.ar      1 <0>        -0.0534
      3 C3         -6.2850   -3.6016    0.3271 C.ar      1 <0>        -0.1215
      4 C4         -5.4427   -4.6930    0.2122 C.ar      1 <0>        -0.0957
      5 C5         -4.1090   -4.5145   -0.1108 C.ar      1 <0>        -0.1258
      6 C6         -3.6118   -3.2457   -0.3246 C.ar      1 <0>        -0.0695
      7 C7         -4.4553   -2.1397   -0.2055 C.ar      1 <0>        -0.0140
      8 C8         -3.9285   -0.7770   -0.4292 C.2       1 <0>         0.2129
      9 N1         -2.8219   -0.3038    0.0802 N.2       1 <0>        -0.4074
     10 C9         -2.6642    0.9797   -0.3412 C.2       1 <0>        -0.1777
     11 C10        -3.7472    1.2713   -1.1580 C.2       1 <0>         0.3457
     12 O1         -4.5125    0.1658   -1.1939 O.3       1 <0>        -0.2128
     13 N2         -3.9907    2.4602   -1.8058 N.pl3     1 <0>        -0.7914
     14 C11        -1.5584    1.8806   -0.0024 C.2       1 <0>         0.6214
     15 O2         -1.5339    3.0108   -0.4537 O.2       1 <0>        -0.5619
     16 N3         -0.5688    1.4573    0.8088 N.am      1 <0>        -0.8382
     17 H1         -7.0976   -0.8672   -0.7396 H         1 <0>         0.0764
     18 H2         -7.5534   -1.3931    0.8987 H         1 <0>         0.0736
     19 H3         -6.1694   -0.2978    0.6684 H         1 <0>         0.0643
     20 H4         -7.3250   -3.7478    0.5790 H         1 <0>         0.1307
     21 H5         -5.8278   -5.6888    0.3749 H         1 <0>         0.1292
     22 H6         -3.4568   -5.3708   -0.1996 H         1 <0>         0.1320
     23 H7         -2.5717   -3.1081   -0.5806 H         1 <0>         0.1325
     24 H8         -3.3699    3.1996   -1.7122 H         1 <0>         0.4420
     25 H9         -4.7833    2.5591   -2.3563 H         1 <0>         0.4112
     26 H10        -0.5882    0.5567    1.1684 H         1 <0>         0.4100
     27 H11         0.1650    2.0520    1.0297 H         1 <0>         0.4060
@<TRIPOS>BOND
     1    1    2 1
     2    1   17 1
     3    1   18 1
     4    1   19 1
     5    2    7 ar
     6    2    3 ar
     7    3    4 ar
     8    3   20 1
     9    4    5 ar
    10    4   21 1
    11    5    6 ar
    12    5   22 1
    13    6    7 ar
    14    6   23 1
    15    7    8 1
    16    8   12 1
    17    8    9 2
    18    9   10 1
    19   10   11 2
    20   10   14 1
    21   11   12 1
    22   11   13 1
    23   13   24 1
    24   13   25 1
    25   14   15 2
    26   14   16 am
    27   16   26 1
    28   16   27 1
@<TRIPOS>MOLECULE
ZINC13686718
   28    29     0     0     0
SMALL
USER_CHARGES
5-(4-fluorophenyl)-3-methylamino-thiophene-2-carboxamide
@<TRIPOS>ATOM
      1 C1         -1.2953    2.1037    0.0196 C.3       1 <0>         0.0808
      2 N1         -0.0168    1.3886    0.0097 N.pl3     1 <0>        -0.7143
      3 C2          0.0021   -0.0041    0.0020 C.2       1 <0>         0.2785
      4 C3         -1.1679   -0.7245    0.0088 C.2       1 <0>        -0.2134
      5 C4         -1.0994   -2.1053    0.0008 C.2       1 <0>        -0.0381
      6 S1          0.6605   -2.4015   -0.0168 S.3       1 <0>         0.0973
      7 C5          1.2095   -0.7030   -0.0186 C.2       1 <0>        -0.3555
      8 C6          2.5296   -0.1958   -0.0344 C.2       1 <0>         0.6219
      9 O1          2.7199    1.0074   -0.0308 O.2       1 <0>        -0.5595
     10 N2          3.5770   -1.0437   -0.0535 N.am      1 <0>        -0.8542
     11 C7         -2.2037   -3.0873    0.0056 C.ar      1 <0>        -0.0332
     12 C8         -3.5296   -2.6505    0.0258 C.ar      1 <0>        -0.0591
     13 C9         -4.5562   -3.5712    0.0254 C.ar      1 <0>        -0.1504
     14 C10        -4.2737   -4.9280    0.0160 C.ar      1 <0>         0.1146
     15 C11        -2.9592   -5.3672    0.0008 C.ar      1 <0>        -0.1489
     16 C12        -1.9249   -4.4552   -0.0042 C.ar      1 <0>        -0.0672
     17 F1         -5.2832   -5.8258    0.0213 F         1 <0>        -0.1332
     18 H1         -1.8675    1.8375   -0.8691 H         1 <0>         0.0576
     19 H2         -1.8591    1.8278    0.9108 H         1 <0>         0.0578
     20 H3         -1.1107    3.1780    0.0246 H         1 <0>         0.0806
     21 H4          0.8165    1.8849    0.0044 H         1 <0>         0.4216
     22 H5         -2.1235   -0.2213    0.0205 H         1 <0>         0.1457
     23 H6          3.4255   -2.0018   -0.0564 H         1 <0>         0.3986
     24 H7          4.4824   -0.6959   -0.0644 H         1 <0>         0.4062
     25 H8         -3.7508   -1.5935    0.0377 H         1 <0>         0.1392
     26 H9         -5.5823   -3.2343    0.0369 H         1 <0>         0.1441
     27 H10        -2.7446   -6.4257   -0.0068 H         1 <0>         0.1444
     28 H11        -0.9009   -4.7985   -0.0154 H         1 <0>         0.1380
@<TRIPOS>BOND
     1    1    2 1
     2    1   18 1
     3    1   19 1
     4    1   20 1
     5    2    3 1
     6    2   21 1
     7    3    7 2
     8    3    4 1
     9    4    5 2
    10    4   22 1
    11    5    6 1
    12    5   11 1
    13    6    7 1
    14    7    8 1
    15    8    9 2
    16    8   10 am
    17   10   23 1
    18   10   24 1
    19   11   16 ar
    20   11   12 ar
    21   12   13 ar
    22   12   25 1
    23   13   14 ar
    24   13   26 1
    25   14   15 ar
    26   14   17 1
    27   15   16 ar
    28   15   27 1
    29   16   28 1
@<TRIPOS>MOLECULE
ZINC12504479
   39    42     0     0     0
SMALL
USER_CHARGES
tert-butyl-fluoro-BLAHone
@<TRIPOS>ATOM
      1 C1          0.0306    7.5665   -1.3573 C.3       1 <0>        -0.1435
      2 C2         -0.0131    6.9316    0.0341 C.3       1 <0>         0.0141
      3 C3         -1.4663    6.6486    0.4201 C.3       1 <0>        -0.1303
      4 C4          0.6075    7.8907    1.0520 C.3       1 <0>        -0.1484
      5 C5          0.7640    5.6405    0.0218 C.2       1 <0>         0.2640
      6 N1          2.1200    5.5432    0.0086 N.pl3     1 <0>        -0.5660
      7 H1          2.7692    6.3038    0.0059 H         1 <0>         0.4300
      8 C6          2.4322    4.2055   -0.0004 C.ar      1 <0>         0.0707
      9 C7          3.6945    3.4726   -0.0160 C.ar      1 <0>        -0.0387
     10 C8          4.9179    4.1553   -0.0241 C.ar      1 <0>        -0.0830
     11 C9          6.0889    3.4567   -0.0382 C.ar      1 <0>        -0.1479
     12 C10         6.0877    2.0644   -0.0451 C.ar      1 <0>         0.1067
     13 C11         4.9015    1.3651   -0.0371 C.ar      1 <0>        -0.1434
     14 C12         3.6874    2.0596   -0.0226 C.ar      1 <0>         0.0348
     15 C13         2.4115    1.3424   -0.0138 C.ar      1 <0>        -0.1820
     16 C14         1.2049    2.0599    0.0016 C.ar      1 <0>         0.1180
     17 C15         1.2195    3.5214    0.0080 C.ar      1 <0>         0.0317
     18 N2          0.2386    4.4495    0.0214 N.2       1 <0>        -0.4565
     19 C16        -0.0162    1.3425    0.0094 C.2       1 <0>        -0.2034
     20 C17         0.0021   -0.0041    0.0020 C.2       1 <0>         0.1350
     21 N3          1.1742   -0.7011   -0.0125 N.am      1 <0>        -0.6142
     22 H2          1.1491   -1.6708   -0.0168 H         1 <0>         0.4195
     23 C18         2.3662   -0.0731   -0.0205 C.2       1 <0>         0.5428
     24 O1          3.3998   -0.7196   -0.0338 O.2       1 <0>        -0.5363
     25 F1          7.2604    1.3938   -0.0600 F         1 <0>        -0.1343
     26 H3         -0.4115    6.8833   -2.0824 H         1 <0>         0.0650
     27 H4         -0.5315    8.5004   -1.3483 H         1 <0>         0.0730
     28 H5          1.0659    7.7682   -1.6323 H         1 <0>         0.0547
     29 H6         -1.4974    6.1963    1.4114 H         1 <0>         0.0620
     30 H7         -2.0283    7.5824    0.4291 H         1 <0>         0.0642
     31 H8         -1.9084    5.9653   -0.3050 H         1 <0>         0.0701
     32 H9          1.6428    8.0923    0.7770 H         1 <0>         0.0535
     33 H10         0.0454    8.8245    1.0609 H         1 <0>         0.0757
     34 H11         0.5764    7.4384    2.0432 H         1 <0>         0.0638
     35 H12         4.9335    5.2351   -0.0195 H         1 <0>         0.1298
     36 H13         7.0282    3.9897   -0.0443 H         1 <0>         0.1393
     37 H14         4.9085    0.2852   -0.0418 H         1 <0>         0.1812
     38 H15        -0.9571    1.8725    0.0168 H         1 <0>         0.1577
     39 H16        -0.9330   -0.5444    0.0080 H         1 <0>         0.1706
@<TRIPOS>BOND
     1    1    2 1
     2    1   26 1
     3    1   27 1
     4    1   28 1
     5    2    3 1
     6    2    4 1
     7    2    5 1
     8    3   29 1
     9    3   30 1
    10    3   31 1
    11    4   32 1
    12    4   33 1
    13    4   34 1
    14    5   18 2
    15    5    6 1
    16    6    7 1
    17    6    8 1
    18    8   17 ar
    19    8    9 ar
    20    9   14 ar
    21    9   10 ar
    22   10   11 ar
    23   10   35 1
    24   11   12 ar
    25   11   36 1
    26   12   13 ar
    27   12   25 1
    28   13   14 ar
    29   13   37 1
    30   14   15 ar
    31   15   23 1
    32   15   16 ar
    33   16   17 ar
    34   16   19 1
    35   17   18 1
    36   19   20 2
    37   19   38 1
    38   20   21 1
    39   20   39 1
    40   21   22 1
    41   21   23 am
    42   23   24 2
@<TRIPOS>MOLECULE
ZINC13285379
   37    39     0     0     0
SMALL
USER_CHARGES

@<TRIPOS>ATOM
      1 C1         -0.1691    1.4999    0.0133 C.3       1 <0>        -0.1207
      2 C2         -0.1324   -0.0066    0.0047 C.ar      1 <0>        -0.0625
      3 C3         -0.1566   -0.6897   -1.2024 C.ar      1 <0>        -0.1000
      4 C4         -0.1236   -2.0647   -1.2260 C.ar      1 <0>        -0.0777
      5 C5         -0.0647   -2.7834   -0.0247 C.ar      1 <0>         0.1217
      6 C6         -0.0400   -2.0862    1.1945 C.ar      1 <0>         0.0674
      7 C7         -0.0692   -0.6972    1.1965 C.ar      1 <0>        -0.1239
      8 N1          0.0182   -2.7878    2.3884 N.pl3     1 <0>        -0.3561
      9 C8          0.0539   -2.4134    3.6956 C.2       1 <0>         0.0033
     10 C9          0.1071   -3.5485    4.4325 C.2       1 <0>         0.0091
     11 N2          0.1043   -4.5925    3.6025 N.2       1 <0>        -0.4435
     12 C10         0.0509   -4.1577    2.3589 C.2       1 <0>         0.1393
     13 C11         0.0232   -4.8407    1.0614 C.2       1 <0>         0.4957
     14 N3         -0.0326   -4.1400   -0.0479 N.2       1 <0>        -0.5390
     15 N4          0.0553   -6.2216    1.0061 N.pl3     1 <0>        -0.6977
     16 C12         0.0276   -6.9036   -0.2902 C.3       1 <0>         0.1069
     17 C13         0.0724   -8.4172   -0.0713 C.3       1 <0>        -0.0225
     18 N5          0.0446   -9.1010   -1.3711 N.4       1 <0>        -0.6304
     19 C14         0.0381   -1.0022    4.2239 C.3       1 <0>        -0.0925
     20 H1          0.8486    1.8884   -0.0244 H         1 <0>         0.0797
     21 H2         -0.7258    1.8548   -0.8540 H         1 <0>         0.0764
     22 H3         -0.6566    1.8463    0.9246 H         1 <0>         0.0719
     23 H4         -0.2020   -0.1383   -2.1299 H         1 <0>         0.1405
     24 H5         -0.1435   -2.5898   -2.1696 H         1 <0>         0.1433
     25 H6         -0.0462   -0.1582    2.1320 H         1 <0>         0.1436
     26 H7          0.1453   -3.5996    5.5106 H         1 <0>         0.1920
     27 H8          0.0962   -6.7390    1.8255 H         1 <0>         0.4260
     28 H9         -0.8879   -6.6400   -0.8199 H         1 <0>         0.0917
     29 H10         0.8905   -6.5962   -0.8810 H         1 <0>         0.0917
     30 H11         0.9878   -8.6807    0.4584 H         1 <0>         0.1427
     31 H12        -0.7905   -8.7245    0.5195 H         1 <0>         0.1427
     32 H13        -0.8028   -8.8570   -1.8614 H         1 <0>         0.4391
     33 H14         0.8434   -8.8165   -1.9180 H         1 <0>         0.4391
     34 H15        -0.9902   -0.6438    4.2724 H         1 <0>         0.0843
     35 H16         0.4771   -0.9828    5.2215 H         1 <0>         0.0972
     36 H17         0.6160   -0.3592    3.5601 H         1 <0>         0.0768
     37 H18         0.0741  -10.0992   -1.2267 H         1 <0>         0.4446
@<TRIPOS>BOND
     1    1    2 1
     2    1   20 1
     3    1   21 1
     4    1   22 1
     5    2    7 ar
     6    2    3 ar
     7    3    4 ar
     8    3   23 1
     9    4    5 ar
    10    4   24 1
    11    5   14 1
    12    5    6 ar
    13    6    7 ar
    14    6    8 1
    15    7   25 1
    16    8   12 1
    17    8    9 1
    18    9   10 2
    19    9   19 1
    20   10   11 1
    21   10   26 1
    22   11   12 2
    23   12   13 1
    24   13   14 2
    25   13   15 1
    26   15   16 1
    27   15   27 1
    28   16   17 1
    29   16   28 1
    30   16   29 1
    31   17   18 1
    32   17   30 1
    33   17   31 1
    34   18   32 1
    35   18   33 1
    36   18   37 1
    37   19   34 1
    38   19   35 1
    39   19   36 1
@<TRIPOS>MOLECULE
ZINC03960707
   29    30     0     0     0
SMALL
USER_CHARGES

@<TRIPOS>ATOM
      1 C1         -0.0169    1.3916    0.0097 C.ar      1 <0>        -0.0852
      2 C2          1.1697    2.0949    0.0021 C.ar      1 <0>        -0.1431
      3 C3          2.3789    1.4185   -0.0135 C.ar      1 <0>         0.0976
      4 C4          2.4036    0.0330   -0.0212 C.ar      1 <0>        -0.1452
      5 C5          1.2231   -0.6803   -0.0137 C.ar      1 <0>        -0.0781
      6 C6          0.0021   -0.0041    0.0020 C.ar      1 <0>        -0.0007
      7 C7         -1.2663   -0.7632    0.0105 C.2       1 <0>        -0.2065
      8 C8         -1.4491   -2.1118    0.0107 C.2       1 <0>        -0.0829
      9 C9         -2.7731   -2.5575    0.0207 C.2       1 <0>        -0.2667
     10 C10        -3.7751   -1.5939    0.0295 C.2       1 <0>         0.0994
     11 S1         -2.9347   -0.1400    0.0311 S.3       1 <0>         0.3342
     12 N1         -5.1466   -1.7878    0.0397 N.am      1 <0>        -0.6198
     13 C11        -5.9772   -0.7264    0.0473 C.2       1 <0>         0.6992
     14 O1         -5.5226    0.4012    0.0452 O.2       1 <0>        -0.5593
     15 N2         -7.3116   -0.9150    0.0572 N.am      1 <0>        -0.8471
     16 C12        -3.0940   -3.9887    0.0214 C.2       1 <0>         0.5918
     17 O2         -4.2556   -4.3519    0.0297 O.2       1 <0>        -0.5653
     18 N3         -2.1026   -4.9016    0.0128 N.am      1 <0>        -0.8480
     19 F1          3.5381    2.1123   -0.0217 F         1 <0>        -0.1375
     20 H1         -0.9587    1.9198    0.0260 H         1 <0>         0.1345
     21 H2          1.1562    3.1748    0.0081 H         1 <0>         0.1408
     22 H3          3.3488   -0.4892   -0.0334 H         1 <0>         0.1400
     23 H4          1.2434   -1.7601   -0.0204 H         1 <0>         0.1352
     24 H5         -0.6164   -2.7996    0.0032 H         1 <0>         0.1418
     25 H6         -5.5092   -2.6875    0.0414 H         1 <0>         0.4318
     26 H7         -7.6743   -1.8147    0.0589 H         1 <0>         0.4057
     27 H8         -7.9094   -0.1512    0.0627 H         1 <0>         0.4259
     28 H9         -1.1768   -4.6121    0.0061 H         1 <0>         0.4018
     29 H10        -2.3148   -5.8481    0.0132 H         1 <0>         0.4056
@<TRIPOS>BOND
     1    1    6 ar
     2    1    2 ar
     3    1   20 1
     4    2    3 ar
     5    2   21 1
     6    3    4 ar
     7    3   19 1
     8    4    5 ar
     9    4   22 1
    10    5    6 ar
    11    5   23 1
    12    6    7 1
    13    7   11 1
    14    7    8 2
    15    8    9 1
    16    8   24 1
    17    9   10 2
    18    9   16 1
    19   10   11 1
    20   10   12 1
    21   12   13 am
    22   12   25 1
    23   13   14 2
    24   13   15 am
    25   15   26 1
    26   15   27 1
    27   16   17 2
    28   16   18 am
    29   18   28 1
    30   18   29 1
@<TRIPOS>MOLECULE
ZINC13588156
   25    27     0     0     0
SMALL
USER_CHARGES
6-phenylthieno[2,3-e]pyrimidin-4-amine
@<TRIPOS>ATOM
      1 C1          0.0021   -0.0041    0.0020 C.ar      1 <0>        -0.1028
      2 C2         -0.0167    1.3793    0.0096 C.ar      1 <0>        -0.1164
      3 C3          1.1669    2.0883    0.0021 C.ar      1 <0>        -0.0873
      4 C4          2.3846    1.4070   -0.0132 C.ar      1 <0>        -0.0259
      5 C5          2.3966    0.0117   -0.0209 C.ar      1 <0>        -0.0961
      6 C6          1.2061   -0.6854   -0.0132 C.ar      1 <0>        -0.1162
      7 C7          3.6571    2.1607   -0.0219 C.2       1 <0>        -0.0351
      8 C8          3.8450    3.5076   -0.0221 C.2       1 <0>        -0.1534
      9 C9          5.1458    4.0321   -0.0272 C.ar      1 <0>         0.2012
     10 C10         6.1866    3.0769   -0.0431 C.ar      1 <0>        -0.3067
     11 S1          5.3259    1.5272   -0.0425 S.3       1 <0>         0.0979
     12 C11         7.5145    3.4668   -0.0547 C.ar      1 <0>         0.5015
     13 N1          7.7906    4.7715   -0.0514 N.ar      1 <0>        -0.5694
     14 C12         6.8087    5.6557   -0.0365 C.ar      1 <0>         0.3458
     15 N2          5.5424    5.3301   -0.0247 N.ar      1 <0>        -0.5376
     16 N3          8.5312    2.5255   -0.0699 N.pl3     1 <0>        -0.8275
     17 H1         -0.9272   -0.5544    0.0083 H         1 <0>         0.1290
     18 H2         -0.9599    1.9054    0.0170 H         1 <0>         0.1317
     19 H3          1.1509    3.1681    0.0078 H         1 <0>         0.1309
     20 H4          3.3358   -0.5213   -0.0331 H         1 <0>         0.1261
     21 H5          1.2140   -1.7654   -0.0194 H         1 <0>         0.1309
     22 H6          2.9938    4.1724   -0.0153 H         1 <0>         0.1519
     23 H7          7.0662    6.7045   -0.0335 H         1 <0>         0.2007
     24 H8          8.3164    1.5796   -0.0725 H         1 <0>         0.4123
     25 H9          9.4578    2.8125   -0.0779 H         1 <0>         0.4147
@<TRIPOS>BOND
     1    1    6 ar
     2    1    2 ar
     3    1   17 1
     4    2    3 ar
     5    2   18 1
     6    3    4 ar
     7    3   19 1
     8    4    5 ar
     9    4    7 1
    10    5    6 ar
    11    5   20 1
    12    6   21 1
    13    7   11 1
    14    7    8 2
    15    8    9 1
    16    8   22 1
    17    9   15 ar
    18    9   10 ar
    19   10   11 1
    20   10   12 ar
    21   12   13 ar
    22   12   16 1
    23   13   14 ar
    24   14   15 ar
    25   14   23 1
    26   16   24 1
    27   16   25 1
@<TRIPOS>MOLECULE
ZINC28332410
   52    55     0     0     0
SMALL
USER_CHARGES
2-amino-6-[2-(cyclopropylmethoxy)-6-hydroxy-phenyl]-4-(4-piperidyl)pyridine-3-carbonitrile
@<TRIPOS>ATOM
      1 C1          1.2296   -2.0678   -0.0293 C.ar      1 <0>        -0.0144
      2 C2          1.0414   -0.9626   -0.8387 C.ar      1 <0>        -0.2020
      3 C3         -0.1660   -0.2835   -0.8212 C.ar      1 <0>         0.2405
      4 C4         -1.1987   -0.7223    0.0155 C.ar      1 <0>        -0.2008
      5 C5         -0.9973   -1.8384    0.8349 C.ar      1 <0>         0.1982
      6 C6          0.2170   -2.5054    0.8038 C.ar      1 <0>        -0.2563
      7 O1         -1.9906   -2.2700    1.6540 O.3       1 <0>        -0.3111
      8 C7         -1.7155   -3.4192    2.4575 C.3       1 <0>         0.0599
      9 C8         -2.9431   -3.7529    3.3075 C.3       1 <0>        -0.2555
     10 C9         -2.7976   -3.6550    4.8275 C.3       1 <0>        -0.1225
     11 C10        -2.8910   -5.0259    4.1546 C.3       1 <0>        -0.1087
     12 C11        -2.4935   -0.0069    0.0374 C.ar      1 <0>         0.2858
     13 C12        -3.6824   -0.7333   -0.0553 C.ar      1 <0>        -0.2100
     14 C13        -4.8886   -0.0641   -0.0346 C.ar      1 <0>         0.0482
     15 C14        -4.8760    1.3332    0.0797 C.ar      1 <0>        -0.1668
     16 C15        -3.6403    1.9989    0.1688 C.ar      1 <0>         0.4751
     17 N1         -2.5080    1.3165    0.1504 N.ar      1 <0>        -0.5511
     18 N2         -3.6095    3.3779    0.2821 N.pl3     1 <0>        -0.8528
     19 C16        -6.1028    2.0714    0.1050 C.1       1 <0>         0.2517
     20 N3         -7.0760    2.6571    0.1250 N.1       1 <0>        -0.4106
     21 C17        -6.1899   -0.8177   -0.1331 C.3       1 <0>        -0.0658
     22 C18        -6.3023   -1.7999    1.0362 C.3       1 <0>        -0.1414
     23 C19        -7.5957   -2.6059    0.8964 C.3       1 <0>        -0.0010
     24 N4         -7.5870   -3.3329   -0.3795 N.4       1 <0>        -0.5357
     25 C20        -7.5281   -2.4071   -1.5178 C.3       1 <0>        -0.0035
     26 C21        -6.2319   -1.5962   -1.4510 C.3       1 <0>        -0.1426
     27 O2         -0.3485    0.8017   -1.6166 O.3       1 <0>        -0.4913
     28 H1          2.1733   -2.5925   -0.0483 H         1 <0>         0.1385
     29 H2          1.8382   -0.6275   -1.4862 H         1 <0>         0.1387
     30 H3          0.3729   -3.3696    1.4326 H         1 <0>         0.1336
     31 H4         -1.4771   -4.2732    1.8065 H         1 <0>         0.0666
     32 H5         -0.8595   -3.2099    3.1159 H         1 <0>         0.0612
     33 H6         -3.6414   -3.3407    2.5642 H         1 <0>         0.1253
     34 H7         -1.8607   -3.1337    5.0733 H         1 <0>         0.1037
     35 H8         -3.6486   -3.0946    5.2420 H         1 <0>         0.1043
     36 H9         -3.8192   -5.5989    4.0129 H         1 <0>         0.1042
     37 H10        -2.0313   -5.6380    3.8442 H         1 <0>         0.1027
     38 H11        -3.6579   -1.8095   -0.1427 H         1 <0>         0.1403
     39 H12        -2.6452    3.9026    0.3521 H         1 <0>         0.4417
     40 H13        -4.5493    3.9492    0.3022 H         1 <0>         0.4353
     41 H14        -7.0160   -0.0923   -0.0970 H         1 <0>         0.0969
     42 H15        -5.4398   -2.4826    1.0258 H         1 <0>         0.0981
     43 H16        -6.3167   -1.2417    1.9839 H         1 <0>         0.1144
     44 H17        -7.6716   -3.3242    1.7261 H         1 <0>         0.1367
     45 H18        -8.4578   -1.9232    0.9224 H         1 <0>         0.1277
     46 H19        -6.7086   -3.9938   -0.4189 H         1 <0>         0.4499
     47 H20        -7.5544   -2.9789   -2.4572 H         1 <0>         0.1374
     48 H21        -8.3896   -1.7242   -1.4800 H         1 <0>         0.1277
     49 H22        -6.1945   -0.8913   -2.2946 H         1 <0>         0.1148
     50 H23        -5.3688   -2.2762   -1.5029 H         1 <0>         0.0975
     51 H24        -1.3078    1.3397   -1.6014 H         1 <0>         0.4315
     52 H25        -8.5033   -3.9355   -0.4644 H         1 <0>         0.4561
@<TRIPOS>BOND
     1    1    6 ar
     2    1    2 ar
     3    1   28 1
     4    2    3 ar
     5    2   29 1
     6    3    4 ar
     7    3   27 1
     8    4    5 ar
     9    4   12 1
    10    5    6 ar
    11    5    7 1
    12    6   30 1
    13    7    8 1
    14    8    9 1
    15    8   31 1
    16    8   32 1
    17    9   11 1
    18    9   10 1
    19    9   33 1
    20   10   11 1
    21   10   34 1
    22   10   35 1
    23   11   36 1
    24   11   37 1
    25   12   17 ar
    26   12   13 ar
    27   13   14 ar
    28   13   38 1
    29   14   15 ar
    30   14   21 1
    31   15   16 ar
    32   15   19 1
    33   16   17 ar
    34   16   18 1
    35   18   39 1
    36   18   40 1
    37   19   20 3
    38   21   26 1
    39   21   22 1
    40   21   41 1
    41   22   23 1
    42   22   42 1
    43   22   43 1
    44   23   24 1
    45   23   44 1
    46   23   45 1
    47   24   25 1
    48   24   46 1
    49   24   52 1
    50   25   26 1
    51   25   47 1
    52   25   48 1
    53   26   49 1
    54   26   50 1
    55   27   51 1
@<TRIPOS>MOLECULE
ZINC00045266
   26    27     0     0     0
SMALL
USER_CHARGES
3-amino-4,6-dimethyl-thieno[5,4-b]pyridine-2-carboxamide
@<TRIPOS>ATOM
      1 C1         -1.3249   -0.7217    0.0403 C.3       1 <0>        -0.1408
      2 C2         -0.0334    0.0547    0.0292 C.ar      1 <0>         0.0281
      3 C3          1.1754   -0.6008    0.0525 C.ar      1 <0>        -0.1913
      4 C4          2.3624    0.1160    0.0431 C.ar      1 <0>         0.1886
      5 N1          2.3467    1.4344    0.0112 N.ar      1 <0>        -0.4599
      6 C5          1.2164    2.1069   -0.0125 C.ar      1 <0>         0.1390
      7 C6         -0.0461    1.4710   -0.0051 C.ar      1 <0>        -0.1955
      8 C7         -1.1904    2.3688   -0.0396 C.2       1 <0>         0.3005
      9 C8         -0.9560    3.7258   -0.0650 C.2       1 <0>        -0.3388
     10 S1          0.8224    3.8378   -0.0566 S.3       1 <0>         0.1099
     11 C9         -1.9025    4.7803   -0.0963 C.2       1 <0>         0.6223
     12 O1         -3.0941    4.5291   -0.0982 O.2       1 <0>        -0.5543
     13 N2         -1.4838    6.0611   -0.1241 N.am      1 <0>        -0.8511
     14 N3         -2.4857    1.8705   -0.0428 N.pl3     1 <0>        -0.8367
     15 C10         3.6792   -0.6164    0.0689 C.3       1 <0>        -0.1088
     16 H1         -1.6900   -0.8344   -0.9805 H         1 <0>         0.0880
     17 H2         -1.1532   -1.7062    0.4755 H         1 <0>         0.0854
     18 H3         -2.0657   -0.1862    0.6341 H         1 <0>         0.0843
     19 H4          1.2003   -1.6802    0.0787 H         1 <0>         0.1465
     20 H5         -0.5346    6.2612   -0.1226 H         1 <0>         0.4004
     21 H6         -2.1315    6.7828   -0.1455 H         1 <0>         0.4074
     22 H7         -3.2148    2.4126    0.2970 H         1 <0>         0.4186
     23 H8         -2.6619    0.9800   -0.3848 H         1 <0>         0.4013
     24 H9          4.0033   -0.8174   -0.9522 H         1 <0>         0.0883
     25 H10         4.4262   -0.0032    0.5731 H         1 <0>         0.0848
     26 H11         3.5606   -1.5583    0.6045 H         1 <0>         0.0836
@<TRIPOS>BOND
     1    1    2 1
     2    1   16 1
     3    1   17 1
     4    1   18 1
     5    2    7 ar
     6    2    3 ar
     7    3    4 ar
     8    3   19 1
     9    4    5 ar
    10    4   15 1
    11    5    6 ar
    12    6   10 1
    13    6    7 ar
    14    7    8 1
    15    8    9 2
    16    8   14 1
    17    9   10 1
    18    9   11 1
    19   11   12 2
    20   11   13 am
    21   13   20 1
    22   13   21 1
    23   14   22 1
    24   14   23 1
    25   15   24 1
    26   15   25 1
    27   15   26 1
@<TRIPOS>MOLECULE
ZINC00087504
   25    26     0     0     0
SMALL
USER_CHARGES
2-amino-5-phenyl-thiophene-3-carboxamide
@<TRIPOS>ATOM
      1 C1         -4.5006   -5.3093   -0.0050 C.ar      1 <0>        -0.1237
      2 C2         -5.5418   -4.3981    0.0040 C.ar      1 <0>        -0.1098
      3 C3         -5.2776   -3.0441    0.0097 C.ar      1 <0>        -0.1183
      4 C4         -3.9561   -2.5941    0.0065 C.ar      1 <0>         0.0125
      5 C5         -2.9104   -3.5188   -0.0083 C.ar      1 <0>        -0.1104
      6 C6         -3.1886   -4.8699   -0.0082 C.ar      1 <0>        -0.1107
      7 C7         -3.6655   -1.1451    0.0128 C.2       1 <0>        -0.1752
      8 C8         -2.4568   -0.5220    0.0055 C.2       1 <0>        -0.0604
      9 C9         -2.4463    0.8739    0.0184 C.2       1 <0>        -0.3174
     10 C10        -3.6775    1.5290    0.0273 C.2       1 <0>         0.1996
     11 S1         -4.8125    0.2193    0.0251 S.3       1 <0>         0.1336
     12 N1         -3.9298    2.8858    0.0361 N.pl3     1 <0>        -0.7885
     13 C11        -1.1873    1.6238    0.0165 C.2       1 <0>         0.5927
     14 O1         -1.2038    2.8409    0.0232 O.2       1 <0>        -0.5689
     15 N2         -0.0111    0.9658    0.0074 N.am      1 <0>        -0.8529
     16 H1         -4.7130   -6.3682   -0.0091 H         1 <0>         0.1237
     17 H2         -6.5637   -4.7476    0.0068 H         1 <0>         0.1256
     18 H3         -6.0912   -2.3339    0.0171 H         1 <0>         0.1211
     19 H4         -1.8859   -3.1771   -0.0157 H         1 <0>         0.1238
     20 H5         -2.3805   -5.5864   -0.0152 H         1 <0>         0.1261
     21 H6         -1.5367   -1.0875   -0.0059 H         1 <0>         0.1370
     22 H7         -3.1926    3.5162    0.0367 H         1 <0>         0.4272
     23 H8         -4.8444    3.2090    0.0418 H         1 <0>         0.4102
     24 H9          0.0021   -0.0041    0.0020 H         1 <0>         0.3998
     25 H10         0.8223    1.4622    0.0021 H         1 <0>         0.4033
@<TRIPOS>BOND
     1    1    6 ar
     2    1    2 ar
     3    1   16 1
     4    2    3 ar
     5    2   17 1
     6    3    4 ar
     7    3   18 1
     8    4    5 ar
     9    4    7 1
    10    5    6 ar
    11    5   19 1
    12    6   20 1
    13    7   11 1
    14    7    8 2
    15    8    9 1
    16    8   21 1
    17    9   10 2
    18    9   13 1
    19   10   11 1
    20   10   12 1
    21   12   22 1
    22   12   23 1
    23   13   14 2
    24   13   15 am
    25   15   24 1
    26   15   25 1
@<TRIPOS>MOLECULE
ZINC13686757
   36    37     0     0     0
SMALL
USER_CHARGES
5-amino-2-(4-tert-butylphenyl)oxazole-4-carboxamide
@<TRIPOS>ATOM
      1 C1         -9.4667    0.5782    1.2991 C.3       1 <0>        -0.1402
      2 C2         -9.0565    1.3642    0.0522 C.3       1 <0>        -0.0330
      3 C3         -9.7425    2.7317    0.0627 C.3       1 <0>        -0.1471
      4 C4         -9.4781    0.5917   -1.1993 C.3       1 <0>        -0.1402
      5 C5         -7.5613    1.5524    0.0464 C.ar      1 <0>        -0.0525
      6 C6         -6.7282    0.4478    0.0367 C.ar      1 <0>        -0.1146
      7 C7         -5.3586    0.6130    0.0313 C.ar      1 <0>        -0.0908
      8 C8         -4.8137    1.8981    0.0358 C.ar      1 <0>        -0.0145
      9 C9         -5.6599    3.0082    0.0514 C.ar      1 <0>        -0.0708
     10 C10        -7.0278    2.8290    0.0513 C.ar      1 <0>        -0.1205
     11 C11        -3.3473    2.0827    0.0300 C.2       1 <0>         0.2136
     12 N1         -2.7329    3.2361    0.0331 N.2       1 <0>        -0.4120
     13 C12        -1.3912    3.0131    0.0306 C.2       1 <0>        -0.1744
     14 C13        -1.2116    1.6374    0.0167 C.2       1 <0>         0.3472
     15 O1         -2.4392    1.0878    0.0200 O.3       1 <0>        -0.2159
     16 N2         -0.0111    0.9658    0.0074 N.pl3     1 <0>        -0.7908
     17 C14        -0.3366    4.0314    0.0385 C.2       1 <0>         0.6214
     18 O2          0.8335    3.6959    0.0327 O.2       1 <0>        -0.5616
     19 N3         -0.6626    5.3391    0.0520 N.am      1 <0>        -0.8380
     20 H1         -9.1663    1.1286    2.1907 H         1 <0>         0.0578
     21 H2        -10.5482    0.4421    1.3033 H         1 <0>         0.0607
     22 H3         -8.9780   -0.3960    1.2917 H         1 <0>         0.0578
     23 H4         -9.4503    3.2917   -0.8256 H         1 <0>         0.0604
     24 H5        -10.8240    2.5956    0.0669 H         1 <0>         0.0603
     25 H6         -9.4421    3.2821    0.9543 H         1 <0>         0.0604
     26 H7         -8.9894   -0.3826   -1.2068 H         1 <0>         0.0578
     27 H8        -10.5596    0.4556   -1.1951 H         1 <0>         0.0607
     28 H9         -9.1858    1.1516   -2.0876 H         1 <0>         0.0578
     29 H10        -7.1510   -0.5460    0.0336 H         1 <0>         0.1287
     30 H11        -4.7093   -0.2501    0.0241 H         1 <0>         0.1284
     31 H12        -5.2447    4.0051    0.0598 H         1 <0>         0.1378
     32 H13        -7.6836    3.6870    0.0589 H         1 <0>         0.1362
     33 H14         0.0021   -0.0041    0.0020 H         1 <0>         0.4114
     34 H15         0.8223    1.4622    0.0021 H         1 <0>         0.4423
     35 H16        -1.5950    5.6065    0.0567 H         1 <0>         0.4099
     36 H17         0.0352    6.0129    0.0572 H         1 <0>         0.4062
@<TRIPOS>BOND
     1    1    2 1
     2    1   20 1
     3    1   21 1
     4    1   22 1
     5    2    3 1
     6    2    4 1
     7    2    5 1
     8    3   23 1
     9    3   24 1
    10    3   25 1
    11    4   26 1
    12    4   27 1
    13    4   28 1
    14    5   10 ar
    15    5    6 ar
    16    6    7 ar
    17    6   29 1
    18    7    8 ar
    19    7   30 1
    20    8    9 ar
    21    8   11 1
    22    9   10 ar
    23    9   31 1
    24   10   32 1
    25   11   15 1
    26   11   12 2
    27   12   13 1
    28   13   14 2
    29   13   17 1
    30   14   15 1
    31   14   16 1
    32   16   33 1
    33   16   34 1
    34   17   18 2
    35   17   19 am
    36   19   35 1
    37   19   36 1
@<TRIPOS>MOLECULE
ZINC22065874
   29    30     0     0     0
SMALL
USER_CHARGES
5-phenyl-2-ureido-thiophene-3-carboxamide
@<TRIPOS>ATOM
      1 C1         -4.1916   -4.9904    0.0132 C.ar      1 <0>        -0.1207
      2 C2         -2.8703   -5.4006   -0.0015 C.ar      1 <0>        -0.1109
      3 C3         -1.8549   -4.4668   -0.0062 C.ar      1 <0>        -0.1140
      4 C4         -2.1630   -3.1053    0.0045 C.ar      1 <0>         0.0077
      5 C5         -3.4981   -2.6983    0.0251 C.ar      1 <0>        -0.1074
      6 C6         -4.5039   -3.6425    0.0238 C.ar      1 <0>        -0.1131
      7 C7         -1.0803   -2.0992    0.0001 C.2       1 <0>        -0.1918
      8 C8         -1.1817   -0.7425    0.0088 C.2       1 <0>        -0.0879
      9 C9          0.0021   -0.0041    0.0020 C.2       1 <0>        -0.2660
     10 C10         1.2036   -0.7089   -0.0186 C.2       1 <0>         0.1467
     11 S1          0.6827   -2.3619   -0.0178 S.3       1 <0>         0.2580
     12 N1          2.4960   -0.2113   -0.0338 N.am      1 <0>        -0.6359
     13 C11         3.5441   -1.0584   -0.0531 C.2       1 <0>         0.6996
     14 O1          3.3550   -2.2594   -0.0572 O.2       1 <0>        -0.5703
     15 N2          4.8018   -0.5742   -0.0678 N.am      1 <0>        -0.8751
     16 C12        -0.0178    1.4626    0.0101 C.2       1 <0>         0.5945
     17 O2          1.0278    2.0854    0.0034 O.2       1 <0>        -0.5760
     18 N3         -1.1940    2.1205    0.0192 N.am      1 <0>        -0.8708
     19 H1         -4.9828   -5.7255    0.0160 H         1 <0>         0.1240
     20 H2         -2.6333   -6.4543   -0.0098 H         1 <0>         0.1264
     21 H3         -0.8240   -4.7883   -0.0183 H         1 <0>         0.1228
     22 H4         -3.7432   -1.6465    0.0376 H         1 <0>         0.1238
     23 H5         -5.5373   -3.3289    0.0356 H         1 <0>         0.1260
     24 H6         -2.1449   -0.2541    0.0210 H         1 <0>         0.1365
     25 H7          2.6671    0.8753   -0.0301 H         1 <0>         0.4577
     26 H8          5.6572   -1.2656   -0.0836 H         1 <0>         0.4484
     27 H9          4.9729    0.5124   -0.0640 H         1 <0>         0.4233
     28 H10        -1.2089    3.2204    0.0253 H         1 <0>         0.4251
     29 H11        -2.1391    1.5576    0.0206 H         1 <0>         0.4195
@<TRIPOS>BOND
     1    1    6 ar
     2    1    2 ar
     3    1   19 1
     4    2    3 ar
     5    2   20 1
     6    3    4 ar
     7    3   21 1
     8    4    5 ar
     9    4    7 1
    10    5    6 ar
    11    5   22 1
    12    6   23 1
    13    7   11 1
    14    7    8 2
    15    8    9 1
    16    8   24 1
    17    9   10 2
    18    9   16 1
    19   10   11 1
    20   10   12 1
    21   12   13 am
    22   12   25 1
    23   13   14 2
    24   13   15 am
    25   15   26 1
    26   15   27 1
    27   16   17 2
    28   16   18 am
    29   18   28 1
    30   18   29 1
@<TRIPOS>MOLECULE
ZINC02556119
   25    26     0     0     0
SMALL
USER_CHARGES
3-amino-5-(4-chlorophenyl)-thiophene-2-carboxamide
@<TRIPOS>ATOM
      1 C1          0.4450   -3.0194   -0.0126 C.ar      1 <0>        -0.0764
      2 C2          0.7096   -4.3730   -0.0283 C.ar      1 <0>        -0.1070
      3 C3          2.0184   -4.8253   -0.0432 C.ar      1 <0>        -0.0232
      4 C4          3.0688   -3.9228   -0.0484 C.ar      1 <0>        -0.1056
      5 C5          2.8167   -2.5669   -0.0386 C.ar      1 <0>        -0.0844
      6 C6          1.4995   -2.1048   -0.0236 C.ar      1 <0>        -0.0177
      7 C7          1.2226   -0.6531   -0.0131 C.2       1 <0>        -0.0408
      8 C8          0.0021   -0.0041    0.0020 C.2       1 <0>        -0.2125
      9 C9         -0.0166    1.3699    0.0096 C.2       1 <0>         0.2814
     10 C10         1.2026    2.0483    0.0016 C.2       1 <0>        -0.3552
     11 S1          2.3793    0.7062   -0.0169 S.3       1 <0>         0.0994
     12 C11         1.4441    3.4420    0.0064 C.2       1 <0>         0.6215
     13 O1          0.5087    4.2222    0.0191 O.2       1 <0>        -0.5585
     14 N1          2.7092    3.9067   -0.0032 N.am      1 <0>        -0.8540
     15 N2         -1.2220    2.0676    0.0191 N.pl3     1 <0>        -0.8372
     16 Cl1         2.3437   -6.5305   -0.0561 Cl        1 <0>        -0.0597
     17 H1         -0.5761   -2.6679    0.0035 H         1 <0>         0.1389
     18 H2         -0.1054   -5.0815   -0.0244 H         1 <0>         0.1419
     19 H3          4.0874   -4.2815   -0.0596 H         1 <0>         0.1422
     20 H4          3.6367   -1.8640   -0.0423 H         1 <0>         0.1373
     21 H5         -0.9198   -0.5666    0.0082 H         1 <0>         0.1456
     22 H6          3.4540    3.2854   -0.0133 H         1 <0>         0.3986
     23 H7          2.8748    4.8624    0.0001 H         1 <0>         0.4065
     24 H8         -2.0625    1.5836    0.0208 H         1 <0>         0.3995
     25 H9         -1.2208    3.0376    0.0240 H         1 <0>         0.4194
@<TRIPOS>BOND
     1    1    6 ar
     2    1    2 ar
     3    1   17 1
     4    2    3 ar
     5    2   18 1
     6    3    4 ar
     7    3   16 1
     8    4    5 ar
     9    4   19 1
    10    5    6 ar
    11    5   20 1
    12    6    7 1
    13    7   11 1
    14    7    8 2
    15    8    9 1
    16    8   21 1
    17    9   10 2
    18    9   15 1
    19   10   11 1
    20   10   12 1
    21   12   13 2
    22   12   14 am
    23   14   22 1
    24   14   23 1
    25   15   24 1
    26   15   25 1
@<TRIPOS>MOLECULE
ZINC13981527
   41    43     0     0     0
SMALL
USER_CHARGES
4-amino-2-(2,5-dihydroxyphenyl)-6-[(3R)-3-piperidyl]pyrimidine-5-carbonitrile
@<TRIPOS>ATOM
      1 C1         -1.8634    7.5060    3.1549 C.ar      1 <0>        -0.0917
      2 C2         -2.3837    6.6306    4.0883 C.ar      1 <0>        -0.1399
      3 C3         -2.2637    5.2627    3.9019 C.ar      1 <0>         0.1630
      4 C4         -1.6138    4.7692    2.7650 C.ar      1 <0>        -0.0851
      5 C5         -1.0860    5.6586    1.8297 C.ar      1 <0>        -0.0739
      6 C6         -1.2176    7.0223    2.0249 C.ar      1 <0>         0.0848
      7 O1         -0.7078    7.8907    1.1110 O.3       1 <0>        -0.4934
      8 C7         -1.4820    3.3092    2.5592 C.ar      1 <0>         0.4521
      9 N1         -0.8608    2.8658    1.4720 N.ar      1 <0>        -0.5496
     10 C8         -0.7196    1.5726    1.2467 C.ar      1 <0>         0.2581
     11 C9         -1.2404    0.6602    2.1707 C.ar      1 <0>        -0.2072
     12 C10        -1.8899    1.1687    3.3166 C.ar      1 <0>         0.4962
     13 N2         -1.9881    2.4839    3.4657 N.ar      1 <0>        -0.5376
     14 N3         -2.4180    0.3133    4.2623 N.pl3     1 <0>        -0.8092
     15 C11        -1.1140   -0.7509    1.9623 C.1       1 <0>         0.2479
     16 N4         -1.0137   -1.8703    1.7970 N.1       1 <0>        -0.3928
     17 C12        -0.0127    1.0858    0.0080 C.3       1 <0>        -0.0590
     18 H1          0.0021   -0.0041    0.0020 H         1 <0>         0.1079
     19 C13         1.4235    1.6166   -0.0029 C.3       1 <0>        -0.1275
     20 C14         2.1158    1.1668   -1.2924 C.3       1 <0>        -0.1458
     21 C15         1.3183    1.6723   -2.4968 C.3       1 <0>        -0.0054
     22 C16        -0.7485    1.5937   -1.2341 C.3       1 <0>         0.0040
     23 O2         -2.7761    4.4030    4.8202 O.3       1 <0>        -0.4706
     24 H2         -1.9591    8.5712    3.3048 H         1 <0>         0.1422
     25 H3         -2.8846    7.0131    4.9654 H         1 <0>         0.1453
     26 H4         -0.5794    5.2840    0.9525 H         1 <0>         0.1456
     27 H5          0.2080    8.1495    1.2826 H         1 <0>         0.3943
     28 H6         -2.8657    0.6719    5.0445 H         1 <0>         0.4231
     29 H7         -2.3414   -0.6465    4.1448 H         1 <0>         0.4176
     30 H8          1.4097    2.7056    0.0424 H         1 <0>         0.0998
     31 H9          1.9638    1.2231    0.8581 H         1 <0>         0.0955
     32 H10         3.1250    1.5773   -1.3259 H         1 <0>         0.1186
     33 H11         2.1641    0.0782   -1.3189 H         1 <0>         0.0891
     34 H12         1.2822    2.7615   -2.4772 H         1 <0>         0.1344
     35 H13         1.8007    1.3414   -3.4165 H         1 <0>         0.1351
     36 H14        -1.7671    1.2058   -1.2367 H         1 <0>         0.1339
     37 H15        -0.7749    2.6832   -1.2204 H         1 <0>         0.1471
     38 H16        -2.1561    4.1617    5.5220 H         1 <0>         0.3948
     39 N5         -0.0526    1.1291   -2.4492 N.4       1 <0>        -0.5149
     40 H17        -0.0099    0.1033   -2.4432 H         1 <0>         0.4323
     41 H18        -0.5706    1.4453   -3.2774 H         1 <0>         0.4409
@<TRIPOS>BOND
     1    1    6 ar
     2    1    2 ar
     3    1   24 1
     4    2    3 ar
     5    2   25 1
     6    3    4 ar
     7    3   23 1
     8    4    5 ar
     9    4    8 1
    10    5    6 ar
    11    5   26 1
    12    6    7 1
    13    7   27 1
    14    8   13 ar
    15    8    9 ar
    16    9   10 ar
    17   10   11 ar
    18   10   17 1
    19   11   12 ar
    20   11   15 1
    21   12   13 ar
    22   12   14 1
    23   14   28 1
    24   14   29 1
    25   15   16 3
    26   17   18 1
    27   17   22 1
    28   17   19 1
    29   19   20 1
    30   19   30 1
    31   19   31 1
    32   20   21 1
    33   20   32 1
    34   20   33 1
    35   21   34 1
    36   21   35 1
    37   21   39 1
    38   22   36 1
    39   22   37 1
    40   22   39 1
    41   23   38 1
    42   39   40 1
    43   39   41 1
@<TRIPOS>MOLECULE
ZINC13981528
   41    43     0     0     0
SMALL
USER_CHARGES
4-amino-2-(2,5-dihydroxyphenyl)-6-[(3S)-3-piperidyl]pyrimidine-5-carbonitrile
@<TRIPOS>ATOM
      1 C1          5.9206    3.6279   -0.0346 C.ar      1 <0>        -0.0917
      2 C2          4.7100    4.2931   -0.0199 C.ar      1 <0>        -0.1399
      3 C3          3.5232    3.5777   -0.0124 C.ar      1 <0>         0.1631
      4 C4          3.5534    2.1785   -0.0202 C.ar      1 <0>        -0.0851
      5 C5          4.7791    1.5136   -0.0297 C.ar      1 <0>        -0.0739
      6 C6          5.9570    2.2399   -0.0424 C.ar      1 <0>         0.0848
      7 O1          7.1529    1.5927   -0.0569 O.3       1 <0>        -0.4924
      8 C7          2.2897    1.4077   -0.0122 C.ar      1 <0>         0.4520
      9 N1          2.3450    0.0805   -0.0199 N.ar      1 <0>        -0.5495
     10 C8          1.2441   -0.6481   -0.0133 C.ar      1 <0>         0.2580
     11 C9          0.0021   -0.0041    0.0020 C.ar      1 <0>        -0.2072
     12 C10        -0.0171    1.4076    0.0098 C.ar      1 <0>         0.4961
     13 N2          1.1369    2.0633    0.0023 N.ar      1 <0>        -0.5375
     14 N3         -1.2147    2.0938    0.0192 N.pl3     1 <0>        -0.8093
     15 C11        -1.2164   -0.7563    0.0101 C.1       1 <0>         0.2479
     16 N4         -2.1831   -1.3530    0.0165 N.1       1 <0>        -0.3928
     17 C12         1.3240   -2.1529   -0.0226 C.3       1 <0>        -0.0590
     18 H1          0.3174   -2.5709   -0.0170 H         1 <0>         0.1080
     19 C13         2.0644   -2.6177   -1.2798 C.3       1 <0>        -0.1283
     20 C14         2.1939   -4.1431   -1.2516 C.3       1 <0>        -0.1459
     21 C15         2.9278   -4.5645    0.0235 C.3       1 <0>        -0.0052
     22 C16         2.0831   -2.6319    1.2169 C.3       1 <0>         0.0047
     23 O2          2.3335    4.2328    0.0021 O.3       1 <0>        -0.4700
     24 H2          6.8428    4.1899   -0.0405 H         1 <0>         0.1423
     25 H3          4.6884    5.3729   -0.0139 H         1 <0>         0.1453
     26 H4          4.8091    0.4340   -0.0313 H         1 <0>         0.1456
     27 H5          7.5069    1.4008    0.8222 H         1 <0>         0.3932
     28 H6         -2.0531    1.6060    0.0206 H         1 <0>         0.4176
     29 H7         -1.2179    3.0638    0.0245 H         1 <0>         0.4231
     30 H8          1.5043   -2.3160   -2.1649 H         1 <0>         0.0957
     31 H9          3.0571   -2.1682   -1.3050 H         1 <0>         0.1003
     32 H10         2.7576   -4.4766   -2.1229 H         1 <0>         0.1188
     33 H11         1.2014   -4.5935   -1.2660 H         1 <0>         0.0891
     34 H12         3.9254   -4.1255    0.0303 H         1 <0>         0.1344
     35 H13         3.0090   -5.6510    0.0536 H         1 <0>         0.1352
     36 H14         3.0847   -2.2020    1.2181 H         1 <0>         0.1466
     37 H15         1.5509   -2.3148    2.1137 H         1 <0>         0.1335
     38 H16         1.9971    4.4178    0.8896 H         1 <0>         0.3942
     39 N5          2.1748   -4.1044    1.2059 N.4       1 <0>        -0.5149
     40 H17         2.6555   -4.4197    2.0567 H         1 <0>         0.4404
     41 H18         1.2286   -4.5020    1.1801 H         1 <0>         0.4324
@<TRIPOS>BOND
     1    1    6 ar
     2    1    2 ar
     3    1   24 1
     4    2    3 ar
     5    2   25 1
     6    3    4 ar
     7    3   23 1
     8    4    5 ar
     9    4    8 1
    10    5    6 ar
    11    5   26 1
    12    6    7 1
    13    7   27 1
    14    8   13 ar
    15    8    9 ar
    16    9   10 ar
    17   10   11 ar
    18   10   17 1
    19   11   12 ar
    20   11   15 1
    21   12   13 ar
    22   12   14 1
    23   14   28 1
    24   14   29 1
    25   15   16 3
    26   17   18 1
    27   17   22 1
    28   17   19 1
    29   19   20 1
    30   19   30 1
    31   19   31 1
    32   20   21 1
    33   20   32 1
    34   20   33 1
    35   21   34 1
    36   21   35 1
    37   21   39 1
    38   22   36 1
    39   22   37 1
    40   22   39 1
    41   23   38 1
    42   39   40 1
    43   39   41 1
@<TRIPOS>MOLECULE
ZINC03029861
   24    25     0     0     0
SMALL
USER_CHARGES
5-[(3,4-dihydroxyphenyl)methylene]-2-imino-thiazolidin-4-one
@<TRIPOS>ATOM
      1 H1         -0.7476    3.4520   -5.9067 H         1 <0>         0.3761
      2 N1          0.1417    3.4959   -6.2914 N.2       1 <0>        -0.6479
      3 C1          1.1898    3.3352   -5.5315 C.2       1 <0>         0.4079
      4 N2          2.5224    3.3628   -5.8903 N.am      1 <0>        -0.6535
      5 C2          3.4671    3.1790   -4.9835 C.2       1 <0>         0.5641
      6 O1          4.6470    3.1992   -5.2811 O.2       1 <0>        -0.4848
      7 C3          3.0262    2.9480   -3.5945 C.2       1 <0>        -0.1998
      8 C4          3.7697    2.7333   -2.4801 C.2       1 <0>         0.0608
      9 C5          3.1136    2.3605   -1.2200 C.ar      1 <0>        -0.0846
     10 C6          3.7968    2.4963   -0.0056 C.ar      1 <0>        -0.0717
     11 C7          3.1785    2.1462    1.1747 C.ar      1 <0>        -0.1334
     12 C8          1.8768    1.6635    1.1643 C.ar      1 <0>         0.1058
     13 C9          1.1913    1.5202   -0.0413 C.ar      1 <0>         0.0840
     14 C10         1.8028    1.8686   -1.2296 C.ar      1 <0>        -0.1075
     15 O2         -0.0819    1.0425   -0.0466 O.3       1 <0>        -0.4830
     16 O3          1.2708    1.3249    2.3323 O.3       1 <0>        -0.4855
     17 S1          1.2498    3.0190   -3.7754 S.3       1 <0>        -0.0549
     18 H2          2.7680    3.5180   -6.8158 H         1 <0>         0.4236
     19 H3          4.8440    2.8366   -2.5196 H         1 <0>         0.1658
     20 H4          4.8079    2.8757    0.0060 H         1 <0>         0.1428
     21 H5          3.7064    2.2514    2.1110 H         1 <0>         0.1429
     22 H6          1.2714    1.7615   -2.1637 H         1 <0>         0.1482
     23 H7         -0.1409    0.0809   -0.1303 H         1 <0>         0.3909
     24 H8          1.4050    0.4032    2.5922 H         1 <0>         0.3934
@<TRIPOS>BOND
     1    1    2 1
     2    2    3 2
     3    3   17 1
     4    3    4 1
     5    4    5 am
     6    4   18 1
     7    5    6 2
     8    5    7 1
     9    7    8 2
    10    7   17 1
    11    8    9 1
    12    8   19 1
    13    9   14 ar
    14    9   10 ar
    15   10   11 ar
    16   10   20 1
    17   11   12 ar
    18   11   21 1
    19   12   13 ar
    20   12   16 1
    21   13   14 ar
    22   13   15 1
    23   14   22 1
    24   15   23 1
    25   16   24 1
@<TRIPOS>MOLECULE
ZINC40408000
   54    57     0     0     0
SMALL
USER_CHARGES

@<TRIPOS>ATOM
      1 C1         -0.0187    1.5258    0.0104 C.3       1 <0>        -0.1719
      2 C2          0.0021   -0.0041    0.0020 C.3       1 <0>         0.1197
      3 N1          0.6878   -0.4765   -1.2033 N.pl3     1 <0>        -0.6206
      4 C3          2.1353   -0.7012   -1.1821 C.3       1 <0>         0.1291
      5 C4          2.4212   -2.1448   -0.7635 C.3       1 <0>         0.0614
      6 H1          2.0348   -2.8262   -1.5214 H         1 <0>         0.0873
      7 C5          3.9087   -2.3417   -0.6225 C.2       1 <0>         0.4927
      8 O1          4.4515   -2.1385    0.4501 O.co2     1 <0>        -0.6861
      9 O2          4.5692   -2.7042   -1.5810 O.co2     1 <0>        -0.6882
     10 N2          1.7685   -2.4198    0.5189 N.am      1 <0>        -0.6805
     11 C6          1.4394   -3.6841    0.8501 C.2       1 <0>         0.5531
     12 O3          1.6841   -4.5964    0.0845 O.2       1 <0>        -0.5396
     13 C7          0.7817   -3.9612    2.1421 C.ar      1 <0>        -0.0924
     14 C8          0.4950   -2.9074    3.0212 C.ar      1 <0>        -0.0931
     15 C9         -0.1116   -3.1486    4.2158 C.ar      1 <0>        -0.0667
     16 C10        -0.4552   -4.4588    4.5777 C.ar      1 <0>         0.0664
     17 C11        -0.1698   -5.5218    3.6989 C.ar      1 <0>         0.0491
     18 C12         0.4420   -5.2693    2.4831 C.ar      1 <0>        -0.0503
     19 N3         -0.6192   -6.6688    4.3245 N.pl3     1 <0>        -0.5852
     20 H2         -0.5687   -7.5729    3.9766 H         1 <0>         0.4255
     21 C13        -1.1485   -6.2890    5.5264 C.2       1 <0>         0.3099
     22 N4         -1.0472   -4.9894    5.6652 N.2       1 <0>        -0.4672
     23 C14        -1.7469   -7.2071    6.5210 C.ar      1 <0>         0.0238
     24 C15        -1.8056   -8.5846    6.2839 C.ar      1 <0>        -0.1601
     25 C16        -2.3719   -9.4044    7.2390 C.ar      1 <0>         0.1055
     26 N5         -2.8534   -8.9052    8.3608 N.ar      1 <0>        -0.4790
     27 C17        -2.8182   -7.6133    8.6238 C.ar      1 <0>         0.1035
     28 C18        -2.2645   -6.7222    7.7269 C.ar      1 <0>        -0.1261
     29 C19        -0.0385   -0.7128   -2.3727 C.ar      1 <0>         0.2257
     30 C20         0.6092   -1.1663   -3.5148 C.ar      1 <0>        -0.1935
     31 C21        -0.1120   -1.3993   -4.6693 C.ar      1 <0>        -0.0716
     32 C22        -1.4774   -1.1812   -4.6893 C.ar      1 <0>        -0.1889
     33 C23        -2.1254   -0.7298   -3.5541 C.ar      1 <0>        -0.0780
     34 C24        -1.4111   -0.5002   -2.3946 C.ar      1 <0>        -0.2032
     35 H3          1.0039    1.9031    0.0027 H         1 <0>         0.0584
     36 H4         -0.5459    1.8868   -0.8726 H         1 <0>         0.0576
     37 H5         -0.5289    1.8773    0.9072 H         1 <0>         0.0616
     38 H6          0.5293   -0.3651    0.8851 H         1 <0>         0.0674
     39 H7         -1.0205   -0.3814    0.0098 H         1 <0>         0.0740
     40 H8          2.5453   -0.5232   -2.1762 H         1 <0>         0.0909
     41 H9          2.5986   -0.0180   -0.4703 H         1 <0>         0.0794
     42 H10         1.5733   -1.6920    1.1297 H         1 <0>         0.3885
     43 H11         0.7578   -1.8959    2.7486 H         1 <0>         0.1334
     44 H12        -0.3282   -2.3297    4.8858 H         1 <0>         0.1377
     45 H13         0.6587   -6.0813    1.8049 H         1 <0>         0.1400
     46 H14        -1.4139   -9.0002    5.3673 H         1 <0>         0.1346
     47 H15        -2.4218  -10.4692    7.0652 H         1 <0>         0.1626
     48 H16        -3.2247   -7.2481    9.5554 H         1 <0>         0.1647
     49 H17        -2.2352   -5.6661    7.9508 H         1 <0>         0.1522
     50 H18         1.6757   -1.3361   -3.5001 H         1 <0>         0.1270
     51 H19         0.3910   -1.7519   -5.5576 H         1 <0>         0.1174
     52 H20        -2.0390   -1.3636   -5.5936 H         1 <0>         0.1114
     53 H21        -3.1919   -0.5605   -3.5731 H         1 <0>         0.1134
     54 H22        -1.9185   -0.1520   -1.5071 H         1 <0>         0.1174
@<TRIPOS>BOND
     1    1    2 1
     2    1   35 1
     3    1   36 1
     4    1   37 1
     5    2    3 1
     6    2   38 1
     7    2   39 1
     8    3    4 1
     9    3   29 1
    10    4    5 1
    11    4   40 1
    12    4   41 1
    13    5    6 1
    14    5    7 1
    15    5   10 1
    16    7    8 2
    17    7    9 1
    18   10   11 am
    19   10   42 1
    20   11   12 2
    21   11   13 1
    22   13   18 ar
    23   13   14 ar
    24   14   15 ar
    25   14   43 1
    26   15   16 ar
    27   15   44 1
    28   16   22 1
    29   16   17 ar
    30   17   18 ar
    31   17   19 1
    32   18   45 1
    33   19   20 1
    34   19   21 1
    35   21   22 2
    36   21   23 1
    37   23   28 ar
    38   23   24 ar
    39   24   25 ar
    40   24   46 1
    41   25   26 ar
    42   25   47 1
    43   26   27 ar
    44   27   28 ar
    45   27   48 1
    46   28   49 1
    47   29   34 ar
    48   29   30 ar
    49   30   31 ar
    50   30   50 1
    51   31   32 ar
    52   31   51 1
    53   32   33 ar
    54   32   52 1
    55   33   34 ar
    56   33   53 1
    57   34   54 1
@<TRIPOS>MOLECULE
ZINC03962388
   55    57     0     0     0
SMALL
USER_CHARGES
5-[2-[2-(benzyl-methyl-amino)ethoxy]phenyl]-2-ureido-thiophene-3-carboxamide
@<TRIPOS>ATOM
      1 C1         -1.4835    7.5332   -2.3478 C.3       1 <0>        -0.0536
      2 C2         -1.2161    7.3521    0.0518 C.3       1 <0>         0.0013
      3 C3         -1.3845    5.8314    0.0452 C.3       1 <0>         0.0222
      4 O1         -0.0979    5.2098    0.0300 O.3       1 <0>        -0.3205
      5 C4         -0.0692    3.8513    0.0225 C.ar      1 <0>         0.1296
      6 C5         -1.2519    3.1310    0.0299 C.ar      1 <0>        -0.2001
      7 C6         -1.2218    1.7487    0.0173 C.ar      1 <0>        -0.0706
      8 C7         -0.0126    1.0758    0.0080 C.ar      1 <0>        -0.1370
      9 C8          1.1744    1.7793    0.0004 C.ar      1 <0>        -0.0590
     10 C9          1.1563    3.1743    0.0076 C.ar      1 <0>        -0.0226
     11 C10         2.4242    3.9337    0.0001 C.2       1 <0>        -0.1776
     12 C11         3.5111    3.7798    0.8038 C.2       1 <0>        -0.0830
     13 C12         4.5976    4.6308    0.5945 C.2       1 <0>        -0.2529
     14 C13         4.4913    5.5766   -0.4222 C.2       1 <0>         0.1403
     15 S1          2.9124    5.2735   -1.0695 S.3       1 <0>         0.2407
     16 N1          5.4207    6.5230   -0.8214 N.am      1 <0>        -0.6198
     17 C14         5.1350    7.3616   -1.8371 C.2       1 <0>         0.7016
     18 O2          4.0615    7.2874   -2.4030 O.2       1 <0>        -0.5626
     19 N2          6.0393    8.2824   -2.2255 N.am      1 <0>        -0.8479
     20 C15         5.8082    4.5326    1.4166 C.2       1 <0>         0.5878
     21 O3          6.7428    5.2859    1.2159 O.2       1 <0>        -0.5617
     22 N3          5.8857    3.6083    2.3944 N.am      1 <0>        -0.8457
     23 C16        -0.1981    9.1950   -1.1441 C.3       1 <0>         0.0488
     24 C17         0.6505    9.5337   -2.3424 C.ar      1 <0>        -0.1690
     25 C18         2.0242    9.3931   -2.2785 C.ar      1 <0>        -0.0701
     26 C19         2.8023    9.6993   -3.3793 C.ar      1 <0>        -0.0902
     27 C20         2.2075   10.1555   -4.5407 C.ar      1 <0>        -0.0877
     28 C21         0.8343   10.3015   -4.6028 C.ar      1 <0>        -0.1174
     29 C22         0.0558    9.9904   -3.5037 C.ar      1 <0>        -0.0982
     30 H1         -2.4116    8.0881   -2.2110 H         1 <0>         0.1267
     31 H2         -0.9969    7.8600   -3.2668 H         1 <0>         0.1261
     32 H3         -1.7034    6.4676   -2.4122 H         1 <0>         0.1193
     33 H4         -2.1928    7.8254    0.1529 H         1 <0>         0.1528
     34 H5         -0.5826    7.6438    0.8894 H         1 <0>         0.1405
     35 H6         -1.9434    5.5316   -0.8413 H         1 <0>         0.0884
     36 H7         -1.9270    5.5220    0.9385 H         1 <0>         0.1111
     37 H8         -2.1991    3.6498    0.0414 H         1 <0>         0.1317
     38 H9         -2.1468    1.1913    0.0191 H         1 <0>         0.1338
     39 H10         0.0021   -0.0041    0.0020 H         1 <0>         0.1358
     40 H11         2.1162    1.2508   -0.0114 H         1 <0>         0.1388
     41 H12         3.5323    3.0259    1.5769 H         1 <0>         0.1411
     42 H13         6.2772    6.5822   -0.3700 H         1 <0>         0.4341
     43 H14         6.8958    8.3416   -1.7740 H         1 <0>         0.4090
     44 H15         5.8336    8.8859   -2.9565 H         1 <0>         0.4231
     45 H16         5.1408    3.0079    2.5544 H         1 <0>         0.4023
     46 H17         6.6863    3.5434    2.9381 H         1 <0>         0.4087
     47 H18        -1.0904    9.8210   -1.1421 H         1 <0>         0.1379
     48 H19         0.3726    9.3730   -0.2327 H         1 <0>         0.1328
     49 H20         2.4893    9.0406   -1.3697 H         1 <0>         0.1245
     50 H21         3.8752    9.5856   -3.3307 H         1 <0>         0.1265
     51 H22         2.8158   10.3982   -5.3996 H         1 <0>         0.1319
     52 H23         0.3697   10.6583   -5.5101 H         1 <0>         0.1330
     53 H24        -1.0171   10.1044   -3.5522 H         1 <0>         0.1285
     54 N4         -0.5682    7.7655   -1.2107 N.4       1 <0>        -0.3990
     55 H25         0.2823    7.2068   -1.3477 H         1 <0>         0.4353
@<TRIPOS>BOND
     1    1   30 1
     2    1   31 1
     3    1   32 1
     4    1   54 1
     5    2    3 1
     6    2   33 1
     7    2   34 1
     8    2   54 1
     9    3    4 1
    10    3   35 1
    11    3   36 1
    12    4    5 1
    13    5   10 ar
    14    5    6 ar
    15    6    7 ar
    16    6   37 1
    17    7    8 ar
    18    7   38 1
    19    8    9 ar
    20    8   39 1
    21    9   10 ar
    22    9   40 1
    23   10   11 1
    24   11   15 1
    25   11   12 2
    26   12   13 1
    27   12   41 1
    28   13   14 2
    29   13   20 1
    30   14   15 1
    31   14   16 1
    32   16   17 am
    33   16   42 1
    34   17   18 2
    35   17   19 am
    36   19   43 1
    37   19   44 1
    38   20   21 2
    39   20   22 am
    40   22   45 1
    41   22   46 1
    42   23   24 1
    43   23   47 1
    44   23   48 1
    45   23   54 1
    46   24   29 ar
    47   24   25 ar
    48   25   26 ar
    49   25   49 1
    50   26   27 ar
    51   26   50 1
    52   27   28 ar
    53   27   51 1
    54   28   29 ar
    55   28   52 1
    56   29   53 1
    57   54   55 1
@<TRIPOS>MOLECULE
ZINC03817307
   55    59     0     0     0
SMALL
USER_CHARGES
8-[2-(cyclopropylmethoxy)-6-hydroxy-phenyl]-10-(3-piperidyl)-3-oxa-5,7-diazabicyclo[4.4.0]deca-7,9,11-trien-4-one
@<TRIPOS>ATOM
      1 C1          0.4084   -6.9670   -0.2249 C.ar      1 <0>        -0.0393
      2 C2          1.5432   -6.2176    0.0250 C.ar      1 <0>        -0.1816
      3 C3          1.4692   -4.8348    0.0690 C.ar      1 <0>         0.1890
      4 C4          0.2402   -4.1977   -0.1297 C.ar      1 <0>        -0.1308
      5 C5         -0.9023   -4.9632   -0.3819 C.ar      1 <0>         0.1717
      6 C6         -0.8093   -6.3452   -0.4277 C.ar      1 <0>        -0.2201
      7 O1         -2.0998   -4.3542   -0.5809 O.3       1 <0>        -0.3108
      8 C7         -3.2237   -5.1999   -0.8333 C.3       1 <0>         0.0852
      9 C8         -4.4742   -4.3409   -1.0308 C.3       1 <0>        -0.1589
     10 C9         -5.6068   -4.4976   -0.0141 C.3       1 <0>        -0.1790
     11 C10        -5.7667   -5.0559   -1.4296 C.3       1 <0>        -0.1644
     12 C11         0.1505   -2.7200   -0.0795 C.ar      1 <0>         0.2483
     13 C12        -0.8522   -2.1168    0.6770 C.ar      1 <0>        -0.1645
     14 C13        -0.9284   -0.7329    0.7170 C.ar      1 <0>        -0.0059
     15 C14         0.0004   -0.0041   -0.0002 C.ar      1 <0>        -0.2183
     16 C15         0.9800   -0.6653   -0.7364 C.ar      1 <0>         0.3888
     17 N1          1.0267   -1.9862   -0.7564 N.ar      1 <0>        -0.4712
     18 N2          1.9098    0.0925   -1.4498 N.am      1 <0>        -0.6523
     19 C16         2.0517    1.4050   -1.1788 C.2       1 <0>         0.6667
     20 O2          2.8450    2.0667   -1.8184 O.2       1 <0>        -0.4769
     21 O3          1.3266    1.9926   -0.2099 O.3       1 <0>        -0.3343
     22 C17        -0.0269    1.5027   -0.0015 C.3       1 <0>         0.1172
     23 C18        -1.9979   -0.0412    1.5225 C.3       1 <0>        -0.0682
     24 H1         -1.8868    1.0386    1.4235 H         1 <0>         0.1082
     25 C19        -1.8638   -0.4359    2.9959 C.3       1 <0>        -0.1321
     26 C20        -2.9905    0.2224    3.7970 C.3       1 <0>        -0.1463
     27 C21        -4.3406   -0.2063    3.2178 C.3       1 <0>        -0.0059
     28 C22        -3.3767   -0.4623    1.0092 C.3       1 <0>        -0.0011
     29 O4          2.5860   -4.1003    0.3095 O.3       1 <0>        -0.4776
     30 H2          0.4739   -8.0444   -0.2623 H         1 <0>         0.1388
     31 H3          2.4907   -6.7115    0.1824 H         1 <0>         0.1406
     32 H4         -1.6909   -6.9381   -0.6220 H         1 <0>         0.1371
     33 H5         -3.0411   -5.7881   -1.7326 H         1 <0>         0.0736
     34 H6         -3.3726   -5.8689    0.0144 H         1 <0>         0.0704
     35 H7         -4.3013   -3.3467   -1.4429 H         1 <0>         0.1131
     36 H8         -5.4610   -5.2127    0.7955 H         1 <0>         0.0990
     37 H9         -6.1792   -3.6063    0.2430 H         1 <0>         0.0932
     38 H10        -6.4443   -4.5319   -2.1037 H         1 <0>         0.1045
     39 H11        -5.7261   -6.1383   -1.5512 H         1 <0>         0.1023
     40 H12        -1.5610   -2.7195    1.2255 H         1 <0>         0.1449
     41 H13         2.4516   -0.3239   -2.1383 H         1 <0>         0.4401
     42 H14        -0.6717    1.8561   -0.8061 H         1 <0>         0.0938
     43 H15        -0.4026    1.8625    0.9563 H         1 <0>         0.1250
     44 H16        -1.9352   -1.5194    3.0907 H         1 <0>         0.0886
     45 H17        -0.8999   -0.0987    3.3771 H         1 <0>         0.0993
     46 H18        -2.8954    1.3064    3.7344 H         1 <0>         0.0912
     47 H19        -2.9262   -0.0896    4.8394 H         1 <0>         0.1170
     48 H20        -5.1443    0.2726    3.7771 H         1 <0>         0.1350
     49 H21        -4.4407   -1.2891    3.2932 H         1 <0>         0.1315
     50 H22        -3.4803   -0.1693   -0.0356 H         1 <0>         0.1362
     51 H23        -3.4815   -1.5438    1.0952 H         1 <0>         0.1388
     52 H24         2.7485   -3.9273    1.2469 H         1 <0>         0.3933
     53 N3         -4.4275    0.2029    1.8029 N.4       1 <0>        -0.5152
     54 H25        -4.3078    1.2206    1.7372 H         1 <0>         0.4331
     55 H26        -5.3483   -0.0581    1.4313 H         1 <0>         0.4391
@<TRIPOS>BOND
     1    1    6 ar
     2    1    2 ar
     3    1   30 1
     4    2    3 ar
     5    2   31 1
     6    3    4 ar
     7    3   29 1
     8    4    5 ar
     9    4   12 1
    10    5    6 ar
    11    5    7 1
    12    6   32 1
    13    7    8 1
    14    8    9 1
    15    8   33 1
    16    8   34 1
    17    9   11 1
    18    9   10 1
    19    9   35 1
    20   10   11 1
    21   10   36 1
    22   10   37 1
    23   11   38 1
    24   11   39 1
    25   12   17 ar
    26   12   13 ar
    27   13   14 ar
    28   13   40 1
    29   14   15 ar
    30   14   23 1
    31   15   22 1
    32   15   16 ar
    33   16   17 ar
    34   16   18 1
    35   18   19 am
    36   18   41 1
    37   19   20 2
    38   19   21 1
    39   21   22 1
    40   22   42 1
    41   22   43 1
    42   23   24 1
    43   23   28 1
    44   23   25 1
    45   25   26 1
    46   25   44 1
    47   25   45 1
    48   26   27 1
    49   26   46 1
    50   26   47 1
    51   27   48 1
    52   27   49 1
    53   27   53 1
    54   28   50 1
    55   28   51 1
    56   28   53 1
    57   29   52 1
    58   53   54 1
    59   53   55 1
@<TRIPOS>MOLECULE
ZINC05336808
   33    35     0     0     0
SMALL
USER_CHARGES
3-amino-6-methyl-4-phenyl-thieno[5,4-b]pyridine-2-carboxamide
@<TRIPOS>ATOM
      1 C1         -1.4836    3.8925   -1.8013 C.3       1 <0>        -0.1087
      2 C2         -0.4219    3.0182   -1.1852 C.ar      1 <0>         0.1879
      3 C3          0.9076    3.3935   -1.2666 C.ar      1 <0>        -0.1765
      4 C4          1.8942    2.5964   -0.7036 C.ar      1 <0>         0.0697
      5 C5          1.5089    1.3904   -0.0440 C.ar      1 <0>        -0.1835
      6 C6          2.3516    0.4068    0.6129 C.2       1 <0>         0.3000
      7 C7          1.7489   -0.6916    1.1882 C.2       1 <0>        -0.3347
      8 S1          0.0172   -0.4299    0.8589 S.3       1 <0>         0.1114
      9 C8          0.1253    1.1082   -0.0222 C.ar      1 <0>         0.1379
     10 N1         -0.7686    1.9038   -0.5699 N.ar      1 <0>        -0.4559
     11 C9          2.3595   -1.7693    1.8763 C.2       1 <0>         0.6217
     12 O1          3.5690   -1.7954    2.0160 O.2       1 <0>        -0.5520
     13 N2          1.6018   -2.7654    2.3764 N.am      1 <0>        -0.8515
     14 N3          3.7297    0.5688    0.6607 N.pl3     1 <0>        -0.8342
     15 C10         3.3202    2.9893   -0.7858 C.ar      1 <0>        -0.0819
     16 C11         3.7375    4.2202   -0.2801 C.ar      1 <0>        -0.0933
     17 C12         5.0681    4.5782   -0.3545 C.ar      1 <0>        -0.1193
     18 C13         5.9854    3.7240   -0.9400 C.ar      1 <0>        -0.1030
     19 C14         5.5765    2.5041   -1.4485 C.ar      1 <0>        -0.1222
     20 C15         4.2497    2.1323   -1.3745 C.ar      1 <0>        -0.0889
     21 H1         -1.6488    3.5896   -2.8352 H         1 <0>         0.0888
     22 H2         -2.4117    3.7877   -1.2393 H         1 <0>         0.0857
     23 H3         -1.1583    4.9325   -1.7748 H         1 <0>         0.0838
     24 H4          1.1783    4.3097   -1.7703 H         1 <0>         0.1476
     25 H5          0.6384   -2.7445    2.2652 H         1 <0>         0.4001
     26 H6          2.0198   -3.5031    2.8475 H         1 <0>         0.4073
     27 H7          4.3080   -0.2084    0.7100 H         1 <0>         0.4163
     28 H8          4.1143    1.4592    0.6448 H         1 <0>         0.4022
     29 H9          3.0216    4.8898    0.1732 H         1 <0>         0.1285
     30 H10         5.3933    5.5290    0.0411 H         1 <0>         0.1304
     31 H11         7.0250    4.0104   -0.9999 H         1 <0>         0.1286
     32 H12         6.2972    1.8413   -1.9042 H         1 <0>         0.1304
     33 H13         3.9318    1.1795   -1.7712 H         1 <0>         0.1273
@<TRIPOS>BOND
     1    1    2 1
     2    1   21 1
     3    1   22 1
     4    1   23 1
     5    2   10 ar
     6    2    3 ar
     7    3    4 ar
     8    3   24 1
     9    4    5 ar
    10    4   15 1
    11    5    9 ar
    12    5    6 1
    13    6    7 2
    14    6   14 1
    15    7    8 1
    16    7   11 1
    17    8    9 1
    18    9   10 ar
    19   11   12 2
    20   11   13 am
    21   13   25 1
    22   13   26 1
    23   14   27 1
    24   14   28 1
    25   15   20 ar
    26   15   16 ar
    27   16   17 ar
    28   16   29 1
    29   17   18 ar
    30   17   30 1
    31   18   19 ar
    32   18   31 1
    33   19   20 ar
    34   19   32 1
    35   20   33 1
@<TRIPOS>MOLECULE
ZINC06717113
   41    44     0     0     0
SMALL
USER_CHARGES
N-(chloro-methoxy-BLAHyl)-2-methyl-pyridine-3-carboxamide
@<TRIPOS>ATOM
      1 C1         -1.0004    2.1372   -3.6962 C.3       1 <0>        -0.1135
      2 C2         -2.0259    1.9088   -2.6159 C.ar      1 <0>         0.1971
      3 C3         -1.7764    0.9716   -1.6121 C.ar      1 <0>        -0.1936
      4 C4         -2.7439    0.7691   -0.6207 C.ar      1 <0>        -0.0409
      5 C5         -3.9055    1.5195   -0.6748 C.ar      1 <0>        -0.1878
      6 C6         -4.0768    2.4286   -1.7029 C.ar      1 <0>         0.1345
      7 N1         -3.1497    2.5946   -2.6272 N.ar      1 <0>        -0.4876
      8 C7         -0.5147    0.2017   -1.5994 C.2       1 <0>         0.5621
      9 O1          0.2542    0.2793   -2.5380 O.2       1 <0>        -0.4716
     10 N2         -0.2192   -0.5905   -0.5499 N.am      1 <0>        -0.6758
     11 C8          0.9115   -1.4189   -0.5931 C.ar      1 <0>         0.1095
     12 C9          0.7956   -2.7760   -0.2869 C.ar      1 <0>         0.1557
     13 C10         1.9355   -3.5920   -0.3345 C.ar      1 <0>        -0.0937
     14 C11         3.1713   -3.0470   -0.6852 C.ar      1 <0>        -0.0344
     15 C12         3.2732   -1.7060   -0.9848 C.ar      1 <0>        -0.0772
     16 C13         2.1459   -0.8915   -0.9458 C.ar      1 <0>         0.1589
     17 O2          2.2552    0.4295   -1.2496 O.3       1 <0>        -0.2992
     18 C14         2.6622    1.3057   -0.1967 C.3       1 <0>         0.0319
     19 Cl1         4.8124   -1.0319   -1.4207 Cl        1 <0>        -0.0423
     20 C15         1.4937   -4.9459    0.0335 C.ar      1 <0>        -0.0610
     21 C16         2.1286   -6.1802    0.1702 C.ar      1 <0>        -0.1087
     22 C17         1.3771   -7.2741    0.5430 C.ar      1 <0>         0.0629
     23 N3          0.0796   -7.1642    0.7685 N.ar      1 <0>        -0.4512
     24 C18        -0.5637   -6.0208    0.6524 C.ar      1 <0>         0.0998
     25 C19         0.1123   -4.8647    0.2810 C.ar      1 <0>         0.0869
     26 N4         -0.2871   -3.5567    0.0838 N.pl3     1 <0>        -0.5991
     27 H1         -1.1950   -3.2319    0.1893 H         1 <0>         0.4213
     28 H2         -1.1166    1.3816   -4.4732 H         1 <0>         0.0856
     29 H3         -1.1425    3.1277   -4.1285 H         1 <0>         0.0725
     30 H4         -0.0002    2.0676   -3.2684 H         1 <0>         0.1041
     31 H5         -2.5860    0.0488    0.1684 H         1 <0>         0.1345
     32 H6         -4.6721    1.3932    0.0754 H         1 <0>         0.1439
     33 H7         -4.9845    3.0120   -1.7503 H         1 <0>         0.1642
     34 H8         -0.7887   -0.5878    0.2354 H         1 <0>         0.4050
     35 H9          4.0482   -3.6764   -0.7214 H         1 <0>         0.1474
     36 H10         1.9639    1.2220    0.6361 H         1 <0>         0.0431
     37 H11         3.6622    1.0307    0.1387 H         1 <0>         0.0525
     38 H12         2.6710    2.3328   -0.5617 H         1 <0>         0.0986
     39 H13         3.1886   -6.2771   -0.0128 H         1 <0>         0.1422
     40 H14         1.8563   -8.2358    0.6529 H         1 <0>         0.1640
     41 H15        -1.6252   -5.9812    0.8474 H         1 <0>         0.1594
@<TRIPOS>BOND
     1    1    2 1
     2    1   28 1
     3    1   29 1
     4    1   30 1
     5    2    7 ar
     6    2    3 ar
     7    3    4 ar
     8    3    8 1
     9    4    5 ar
    10    4   31 1
    11    5    6 ar
    12    5   32 1
    13    6    7 ar
    14    6   33 1
    15    8    9 2
    16    8   10 am
    17   10   11 1
    18   10   34 1
    19   11   16 ar
    20   11   12 ar
    21   12   26 1
    22   12   13 ar
    23   13   14 ar
    24   13   20 1
    25   14   15 ar
    26   14   35 1
    27   15   16 ar
    28   15   19 1
    29   16   17 1
    30   17   18 1
    31   18   36 1
    32   18   37 1
    33   18   38 1
    34   20   25 ar
    35   20   21 ar
    36   21   22 ar
    37   21   39 1
    38   22   23 ar
    39   22   40 1
    40   23   24 ar
    41   24   25 ar
    42   24   41 1
    43   25   26 1
    44   26   27 1
@<TRIPOS>MOLECULE
ZINC00009090
   35    38     0     0     0
SMALL
USER_CHARGES

@<TRIPOS>ATOM
      1 C1          0.1350    1.1059    1.1500 C.ar      1 <0>        -0.1718
      2 C2          1.3390    1.7878    1.1796 C.ar      1 <0>        -0.0064
      3 C3          2.4492    1.2011    0.5607 C.ar      1 <0>        -0.2024
      4 C4          2.2979   -0.0410   -0.0578 C.ar      1 <0>         0.1374
      5 N1          1.1309   -0.6505   -0.0591 N.ar      1 <0>        -0.4840
      6 C5          0.0676   -0.1215    0.5161 C.ar      1 <0>         0.1363
      7 C6          3.7593    1.8855    0.5618 C.2       1 <0>         0.5731
      8 O1          3.8794    2.9673    1.1033 O.2       1 <0>        -0.4951
      9 N2          4.8206    1.3103   -0.0374 N.am      1 <0>        -0.6714
     10 C7          6.0304    2.0074   -0.1381 C.ar      1 <0>         0.1582
     11 C8          6.0360    3.3913   -0.1176 C.ar      1 <0>        -0.0639
     12 C9          7.2292    4.0908   -0.2173 C.ar      1 <0>        -0.0265
     13 C10         8.4246    3.4139   -0.3375 C.ar      1 <0>        -0.0519
     14 C11         8.4364    2.0193   -0.3593 C.ar      1 <0>        -0.0919
     15 C12         7.2337    1.3064   -0.2536 C.ar      1 <0>         0.1353
     16 N3          7.5215   -0.0477   -0.2943 N.pl3     1 <0>        -0.5815
     17 H1          6.8617   -0.7568   -0.2430 H         1 <0>         0.4350
     18 C13         8.8832   -0.2433   -0.4184 C.ar      1 <0>         0.1249
     19 C14         9.5062    1.0160   -0.4729 C.ar      1 <0>         0.0073
     20 C15        10.8934    1.0731   -0.6000 C.ar      1 <0>        -0.0596
     21 C16        11.6006   -0.1078   -0.6828 C.ar      1 <0>         0.0801
     22 N4         10.9835   -1.2754   -0.6432 N.ar      1 <0>        -0.4172
     23 C17         9.6779   -1.3804   -0.5022 C.ar      1 <0>         0.1203
     24 Cl1         7.2180    5.8265   -0.1910 Cl        1 <0>        -0.0255
     25 H2         -0.7416    1.5258    1.6208 H         1 <0>         0.1523
     26 H3          1.4198    2.7480    1.6673 H         1 <0>         0.1535
     27 H4          3.1453   -0.5059   -0.5396 H         1 <0>         0.1521
     28 H5         -0.8707   -0.6557    0.4915 H         1 <0>         0.1700
     29 H6          4.7462    0.4132   -0.3989 H         1 <0>         0.4118
     30 H7          5.1047    3.9301   -0.0237 H         1 <0>         0.1780
     31 H8          9.3512    3.9634   -0.4152 H         1 <0>         0.1549
     32 H9         11.4043    2.0241   -0.6333 H         1 <0>         0.1882
     33 H10        12.6757   -0.0779   -0.7818 H         1 <0>         0.2135
     34 H11         9.2195   -2.3578   -0.4714 H         1 <0>         0.2099
     35 H12        11.5132   -2.0857   -0.7041 H         1 <0>         0.4570
@<TRIPOS>BOND
     1    1    6 ar
     2    1    2 ar
     3    1   25 1
     4    2    3 ar
     5    2   26 1
     6    3    4 ar
     7    3    7 1
     8    4    5 ar
     9    4   27 1
    10    5    6 ar
    11    6   28 1
    12    7    8 2
    13    7    9 am
    14    9   10 1
    15    9   29 1
    16   10   15 ar
    17   10   11 ar
    18   11   12 ar
    19   11   30 1
    20   12   13 ar
    21   12   24 1
    22   13   14 ar
    23   13   31 1
    24   14   19 1
    25   14   15 ar
    26   15   16 1
    27   16   17 1
    28   16   18 1
    29   18   23 ar
    30   18   19 ar
    31   19   20 ar
    32   20   21 ar
    33   20   32 1
    34   21   22 ar
    35   21   33 1
    36   22   23 ar
    37   22   35 1
    38   23   34 1
@<TRIPOS>MOLECULE
ZINC00009090
   34    37     0     0     0
SMALL
USER_CHARGES

@<TRIPOS>ATOM
      1 C1          0.1350    1.1059    1.1500 C.ar      1 <0>        -0.1752
      2 C2          1.3390    1.7878    1.1796 C.ar      1 <0>        -0.0101
      3 C3          2.4492    1.2011    0.5607 C.ar      1 <0>        -0.1940
      4 C4          2.2979   -0.0410   -0.0578 C.ar      1 <0>         0.1367
      5 N1          1.1309   -0.6505   -0.0591 N.ar      1 <0>        -0.4846
      6 C5          0.0676   -0.1215    0.5161 C.ar      1 <0>         0.1291
      7 C6          3.7593    1.8855    0.5618 C.2       1 <0>         0.5678
      8 O1          3.8794    2.9673    1.1033 O.2       1 <0>        -0.5025
      9 N2          4.8206    1.3103   -0.0374 N.am      1 <0>        -0.6653
     10 C7          6.0304    2.0074   -0.1381 C.ar      1 <0>         0.1403
     11 C8          6.0360    3.3913   -0.1176 C.ar      1 <0>        -0.0840
     12 C9          7.2292    4.0908   -0.2173 C.ar      1 <0>        -0.0420
     13 C10         8.4246    3.4139   -0.3375 C.ar      1 <0>        -0.0589
     14 C11         8.4364    2.0193   -0.3593 C.ar      1 <0>        -0.0781
     15 C12         7.2337    1.3064   -0.2536 C.ar      1 <0>         0.1285
     16 N3          7.5215   -0.0477   -0.2943 N.pl3     1 <0>        -0.6027
     17 H1          6.8617   -0.7568   -0.2430 H         1 <0>         0.4199
     18 C13         8.8832   -0.2433   -0.4184 C.ar      1 <0>         0.0895
     19 C14         9.5062    1.0160   -0.4729 C.ar      1 <0>        -0.0646
     20 C15        10.8934    1.0731   -0.6000 C.ar      1 <0>        -0.1074
     21 C16        11.6006   -0.1078   -0.6828 C.ar      1 <0>         0.0610
     22 N4         10.9835   -1.2754   -0.6432 N.ar      1 <0>        -0.4507
     23 C17         9.6779   -1.3804   -0.5022 C.ar      1 <0>         0.0977
     24 Cl1         7.2180    5.8265   -0.1910 Cl        1 <0>        -0.0539
     25 H2         -0.7416    1.5258    1.6208 H         1 <0>         0.1486
     26 H3          1.4198    2.7480    1.6673 H         1 <0>         0.1518
     27 H4          3.1453   -0.5059   -0.5396 H         1 <0>         0.1550
     28 H5         -0.8707   -0.6557    0.4915 H         1 <0>         0.1664
     29 H6          4.7462    0.4132   -0.3989 H         1 <0>         0.4090
     30 H7          5.1047    3.9301   -0.0237 H         1 <0>         0.1659
     31 H8          9.3512    3.9634   -0.4152 H         1 <0>         0.1423
     32 H9         11.4043    2.0241   -0.6333 H         1 <0>         0.1416
     33 H10        12.6757   -0.0779   -0.7818 H         1 <0>         0.1636
     34 H11         9.2195   -2.3578   -0.4714 H         1 <0>         0.1595
@<TRIPOS>BOND
     1    1    6 ar
     2    1    2 ar
     3    1   25 1
     4    2    3 ar
     5    2   26 1
     6    3    4 ar
     7    3    7 1
     8    4    5 ar
     9    4   27 1
    10    5    6 ar
    11    6   28 1
    12    7    8 2
    13    7    9 am
    14    9   10 1
    15    9   29 1
    16   10   15 ar
    17   10   11 ar
    18   11   12 ar
    19   11   30 1
    20   12   13 ar
    21   12   24 1
    22   13   14 ar
    23   13   31 1
    24   14   19 1
    25   14   15 ar
    26   15   16 1
    27   16   17 1
    28   16   18 1
    29   18   23 ar
    30   18   19 ar
    31   19   20 ar
    32   20   21 ar
    33   20   32 1
    34   21   22 ar
    35   21   33 1
    36   22   23 ar
    37   23   34 1
