@<TRIPOS>MOLECULE
ZINC01490484
   52    54     0     0     0
SMALL
USER_CHARGES
2-(2,6-dichlorobenzoyl)amino-3-[4-(2,6-dimethoxyphenyl)phenyl]-propanoic acid
@<TRIPOS>ATOM
      1 C1         -2.3739    0.0589    0.0241 C.3       1 <0>         0.0269
      2 O1         -1.1639   -0.7011    0.0089 O.3       1 <0>        -0.3005
      3 C2          0.0021   -0.0041    0.0020 C.ar      1 <0>         0.1761
      4 C3         -0.0167    1.3815    0.0096 C.ar      1 <0>        -0.2478
      5 C4          1.1688    2.0927    0.0021 C.ar      1 <0>        -0.0425
      6 C5          2.3816    1.4293   -0.0130 C.ar      1 <0>        -0.2470
      7 C6          2.4178    0.0440   -0.0207 C.ar      1 <0>         0.1782
      8 C7          1.2239   -0.6824   -0.0133 C.ar      1 <0>        -0.1078
      9 C8          1.2533   -2.1648   -0.0210 C.ar      1 <0>        -0.0385
     10 C9          0.7738   -2.8798    1.0752 C.ar      1 <0>        -0.0918
     11 C10         0.7997   -4.2595    1.0606 C.ar      1 <0>        -0.1156
     12 C11         1.3096   -4.9328   -0.0349 C.ar      1 <0>        -0.0621
     13 C12         1.7913   -4.2284   -1.1236 C.ar      1 <0>        -0.1149
     14 C13         1.7660   -2.8486   -1.1222 C.ar      1 <0>        -0.0883
     15 C14         1.3409   -6.4395   -0.0422 C.3       1 <0>        -0.0752
     16 C15         2.6645   -6.9249    0.5522 C.3       1 <0>         0.1121
     17 H1          2.7980   -6.4922    1.5436 H         1 <0>         0.0895
     18 C16         2.6462   -8.4281    0.6584 C.2       1 <0>         0.4584
     19 O2          3.4720   -9.0854    0.0704 O.co2     1 <0>        -0.6157
     20 N1          3.7703   -6.5101   -0.3147 N.am      1 <0>        -0.6794
     21 C17         5.0080   -6.3600    0.1972 C.2       1 <0>         0.5702
     22 O3          5.2068   -6.5688    1.3782 O.2       1 <0>        -0.5234
     23 C18         6.1228   -5.9418   -0.6767 C.ar      1 <0>        -0.1005
     24 C19         6.4073   -4.5849   -0.8512 C.ar      1 <0>        -0.0053
     25 C20         7.4553   -4.2019   -1.6650 C.ar      1 <0>        -0.1165
     26 C21         8.2150   -5.1572   -2.3159 C.ar      1 <0>        -0.0881
     27 C22         7.9356   -6.5022   -2.1530 C.ar      1 <0>        -0.1152
     28 C23         6.8949   -6.9010   -1.3376 C.ar      1 <0>        -0.0025
     29 Cl1         6.5461   -8.5894   -1.1347 Cl        1 <0>        -0.0136
     30 Cl2         5.4508   -3.3839   -0.0410 Cl        1 <0>        -0.0293
     31 O4          3.6105   -0.6060   -0.0352 O.3       1 <0>        -0.2954
     32 C24         4.7895    0.2015   -0.0421 C.3       1 <0>         0.0258
     33 H2         -2.4002    0.6825    0.9177 H         1 <0>         0.0552
     34 H3         -2.4165    0.6920   -0.8621 H         1 <0>         0.0548
     35 H4         -3.2282   -0.6181    0.0283 H         1 <0>         0.1012
     36 H5         -0.9601    1.9073    0.0169 H         1 <0>         0.1288
     37 H6          1.1474    3.1725    0.0081 H         1 <0>         0.1255
     38 H7          3.3033    1.9921   -0.0184 H         1 <0>         0.1291
     39 H8          0.3795   -2.3551    1.9329 H         1 <0>         0.1128
     40 H9          0.4246   -4.8146    1.9077 H         1 <0>         0.1225
     41 H10         2.1883   -4.7593   -1.9762 H         1 <0>         0.1142
     42 H11         2.1430   -2.2997   -1.9724 H         1 <0>         0.1119
     43 H12         0.5127   -6.8229    0.5538 H         1 <0>         0.0976
     44 H13         1.2488   -6.7999   -1.0667 H         1 <0>         0.0708
     45 H14         3.6117   -6.3435   -1.2570 H         1 <0>         0.3901
     46 H15         7.6792   -3.1537   -1.7974 H         1 <0>         0.1399
     47 H16         9.0302   -4.8514   -2.9549 H         1 <0>         0.1410
     48 H17         8.5331   -7.2423   -2.6645 H         1 <0>         0.1420
     49 H18         5.6699   -0.4410   -0.0535 H         1 <0>         0.0991
     50 H19         4.7906    0.8352   -0.9289 H         1 <0>         0.0561
     51 H20         4.8072    0.8262    0.8509 H         1 <0>         0.0551
     52 O5          1.7123   -9.0367    1.4063 O.co2     1 <0>        -0.7680
@<TRIPOS>BOND
     1    1    2 1
     2    1   33 1
     3    1   34 1
     4    1   35 1
     5    2    3 1
     6    3    8 ar
     7    3    4 ar
     8    4    5 ar
     9    4   36 1
    10    5    6 ar
    11    5   37 1
    12    6    7 ar
    13    6   38 1
    14    7    8 ar
    15    7   31 1
    16    8    9 1
    17    9   14 ar
    18    9   10 ar
    19   10   11 ar
    20   10   39 1
    21   11   12 ar
    22   11   40 1
    23   12   13 ar
    24   12   15 1
    25   13   14 ar
    26   13   41 1
    27   14   42 1
    28   15   16 1
    29   15   43 1
    30   15   44 1
    31   16   17 1
    32   16   18 1
    33   16   20 1
    34   18   19 2
    35   18   52 1
    36   20   21 am
    37   20   45 1
    38   21   22 2
    39   21   23 1
    40   23   28 ar
    41   23   24 ar
    42   24   25 ar
    43   24   30 1
    44   25   26 ar
    45   25   46 1
    46   26   27 ar
    47   26   47 1
    48   27   28 ar
    49   27   48 1
    50   28   29 1
    51   31   32 1
    52   32   49 1
    53   32   50 1
    54   32   51 1
