@<TRIPOS>MOLECULE
ZINC00008854
   31    33     0     0     0
SMALL
USER_CHARGES

@<TRIPOS>ATOM
      1 C1          0.8108    2.2118    0.2149 C.ar      1 <0>        -0.0991
      2 C2          2.1047    2.7266    0.1559 C.ar      1 <0>        -0.1118
      3 C3          3.1846    1.9010    0.0921 C.ar      1 <0>        -0.0974
      4 C4          2.9958    0.5078    0.0858 C.ar      1 <0>        -0.0569
      5 C5          1.6795   -0.0160    0.1463 C.ar      1 <0>        -0.0233
      6 C6          0.5896    0.8689    0.2108 C.ar      1 <0>        -0.1106
      7 C7          1.4859   -1.4083    0.1408 C.ar      1 <0>        -0.1047
      8 C8          2.5577   -2.2420    0.0777 C.ar      1 <0>        -0.0676
      9 C9          3.8611   -1.7349    0.0177 C.ar      1 <0>        -0.1359
     10 C10         4.0872   -0.3738    0.0213 C.ar      1 <0>         0.0246
     11 Cl1         5.7077    0.2441   -0.0541 Cl        1 <0>        -0.0321
     12 S1          5.2265   -2.8457   -0.0631 S.3       1 <0>         0.0279
     13 C11         5.7268   -2.7840   -1.7515 C.ar      1 <0>        -0.1489
     14 C12         4.9788   -2.0608   -2.6717 C.ar      1 <0>        -0.0590
     15 C13         5.3708   -2.0125   -3.9947 C.ar      1 <0>        -0.1747
     16 C14         6.5133   -2.6869   -4.4061 C.ar      1 <0>         0.2283
     17 C15         7.2619   -3.4102   -3.4869 C.ar      1 <0>        -0.1756
     18 C16         6.8733   -3.4544   -2.1618 C.ar      1 <0>         0.0332
     19 Cl2         7.8128   -4.3525   -1.0109 Cl        1 <0>        -0.0512
     20 N1          6.9098   -2.6378   -5.7475 N.pl3     1 <0>        -0.8727
     21 H1         -0.0289    2.8889    0.2691 H         1 <0>         0.1297
     22 H2          2.2524    3.7965    0.1606 H         1 <0>         0.1300
     23 H3          4.1815    2.3139    0.0461 H         1 <0>         0.1344
     24 H4         -0.4188    0.4850    0.2573 H         1 <0>         0.1349
     25 H5          0.4865   -1.8152    0.1870 H         1 <0>         0.1401
     26 H6          2.4015   -3.3107    0.0743 H         1 <0>         0.1433
     27 H7          4.0902   -1.5366   -2.3524 H         1 <0>         0.1264
     28 H8          4.7888   -1.4504   -4.7100 H         1 <0>         0.1287
     29 H9          8.1497   -3.9351   -3.8072 H         1 <0>         0.1367
     30 H10         6.3869   -2.1329   -6.3897 H         1 <0>         0.4018
     31 H11         7.7076   -3.1088   -6.0349 H         1 <0>         0.4014
@<TRIPOS>BOND
     1    1    6 ar
     2    1    2 ar
     3    1   21 1
     4    2    3 ar
     5    2   22 1
     6    3    4 ar
     7    3   23 1
     8    4   10 ar
     9    4    5 ar
    10    5    6 ar
    11    5    7 ar
    12    6   24 1
    13    7    8 ar
    14    7   25 1
    15    8    9 ar
    16    8   26 1
    17    9   10 ar
    18    9   12 1
    19   10   11 1
    20   12   13 1
    21   13   18 ar
    22   13   14 ar
    23   14   15 ar
    24   14   27 1
    25   15   16 ar
    26   15   28 1
    27   16   17 ar
    28   16   20 1
    29   17   18 ar
    30   17   29 1
    31   18   19 1
    32   20   30 1
    33   20   31 1
@<TRIPOS>MOLECULE
ZINC00602716
   59    61     0     0     0
SMALL
USER_CHARGES

@<TRIPOS>ATOM
      1 C1         -7.3013    3.9490   11.9687 C.3       1 <0>        -0.1439
      2 C2         -6.4658    2.6904   11.7264 C.3       1 <0>        -0.0568
      3 C3         -6.5834    1.7597   12.9350 C.3       1 <0>        -0.1443
      4 C4         -6.9702    1.9818   10.4957 C.ar      1 <0>        -0.0455
      5 C5         -8.2744    1.5306   10.4435 C.ar      1 <0>        -0.0952
      6 C6         -8.7380    0.8799    9.3148 C.ar      1 <0>        -0.1163
      7 C7         -7.8980    0.6789    8.2343 C.ar      1 <0>        -0.1041
      8 C8         -6.5946    1.1320    8.2774 C.ar      1 <0>        -0.1312
      9 C9         -6.1235    1.7813    9.4124 C.ar      1 <0>        -0.0899
     10 S1         -4.4588    2.3553    9.4745 S.3       1 <0>         0.0557
     11 C10        -3.7429    1.7490    7.9830 C.ar      1 <0>        -0.0930
     12 C11        -3.5471    2.6109    6.9058 C.ar      1 <0>        -0.0613
     13 C12        -2.9926    2.1450    5.7481 C.ar      1 <0>        -0.0673
     14 C13        -2.6205    0.7984    5.6444 C.ar      1 <0>        -0.0418
     15 C14        -2.8239   -0.0659    6.7276 C.ar      1 <0>        -0.0421
     16 C15        -3.3739    0.4094    7.8841 C.ar      1 <0>        -0.0031
     17 N1         -3.5837   -0.5017    9.0317 N.pl3     1 <0>         0.0179
     18 O1         -3.2613   -1.6732    8.9462 O.2       1 <0>        -0.1662
     19 O2         -4.0788   -0.0800   10.0616 O.3       1 <0>        -0.1103
     20 C16        -2.0242    0.2929    4.4010 C.2       1 <0>        -0.0260
     21 C17        -1.8340    1.1268    3.3554 C.2       1 <0>        -0.1934
     22 C18        -1.2406    0.6237    2.1179 C.2       1 <0>         0.5495
     23 O3         -1.0011   -0.5636    1.9966 O.2       1 <0>        -0.5319
     24 N2         -0.9587    1.4744    1.1113 N.am      1 <0>        -0.6090
     25 C19        -0.2585    1.0035   -0.0920 C.3       1 <0>         0.0982
     26 C20        -1.1022    1.3552   -1.3235 C.3       1 <0>         0.0965
     27 N3         -1.4904    2.7701   -1.2384 N.am      1 <0>        -0.6184
     28 C21        -2.1943    3.2404   -0.0371 C.3       1 <0>         0.0911
     29 C22        -1.3506    2.8887    1.1945 C.3       1 <0>         0.0888
     30 C23        -1.2055    3.6212   -2.2439 C.2       1 <0>         0.5135
     31 O4         -0.6238    3.2216   -3.2302 O.2       1 <0>        -0.5388
     32 C24        -1.6098    5.0694   -2.1425 C.3       1 <0>        -0.1754
     33 H1         -8.3452    3.6701   12.1123 H         1 <0>         0.0587
     34 H2         -6.9364    4.4615   12.8589 H         1 <0>         0.0620
     35 H3         -7.2175    4.6121   11.1077 H         1 <0>         0.0564
     36 H4         -5.4219    2.9694   11.5828 H         1 <0>         0.0802
     37 H5         -5.9881    0.8630   12.7624 H         1 <0>         0.0640
     38 H6         -6.2185    2.2722   13.8251 H         1 <0>         0.0609
     39 H7         -7.6272    1.4807   13.0786 H         1 <0>         0.0572
     40 H8         -8.9331    1.6864   11.2851 H         1 <0>         0.1301
     41 H9         -9.7583    0.5281    9.2768 H         1 <0>         0.1267
     42 H10        -8.2636    0.1707    7.3543 H         1 <0>         0.1236
     43 H11        -5.9406    0.9784    7.4318 H         1 <0>         0.1091
     44 H12        -3.8346    3.6488    6.9865 H         1 <0>         0.1613
     45 H13        -2.8415    2.8136    4.9136 H         1 <0>         0.1523
     46 H14        -2.5425   -1.1057    6.6500 H         1 <0>         0.1646
     47 H15        -1.7379   -0.7455    4.3226 H         1 <0>         0.1484
     48 H16        -2.1204    2.1652    3.4337 H         1 <0>         0.1362
     49 H17        -0.1233   -0.0767   -0.0374 H         1 <0>         0.1084
     50 H18         0.7140    1.4907   -0.1635 H         1 <0>         0.0762
     51 H19        -0.5161    1.1904   -2.2277 H         1 <0>         0.1075
     52 H20        -1.9942    0.7292   -1.3467 H         1 <0>         0.0744
     53 H21        -2.3294    4.3206   -0.0917 H         1 <0>         0.1033
     54 H22        -3.1669    2.7530    0.0313 H         1 <0>         0.0783
     55 H23        -0.4570    3.5126    1.2160 H         1 <0>         0.0804
     56 H24        -1.9357    3.0564    2.0987 H         1 <0>         0.0999
     57 H25        -1.1319    5.5200   -1.2727 H         1 <0>         0.0895
     58 H26        -1.2973    5.5978   -3.0433 H         1 <0>         0.0950
     59 H27        -2.6927    5.1379   -2.0384 H         1 <0>         0.0897
@<TRIPOS>BOND
     1    1    2 1
     2    1   33 1
     3    1   34 1
     4    1   35 1
     5    2    3 1
     6    2    4 1
     7    2   36 1
     8    3   37 1
     9    3   38 1
    10    3   39 1
    11    4    9 ar
    12    4    5 ar
    13    5    6 ar
    14    5   40 1
    15    6    7 ar
    16    6   41 1
    17    7    8 ar
    18    7   42 1
    19    8    9 ar
    20    8   43 1
    21    9   10 1
    22   10   11 1
    23   11   16 ar
    24   11   12 ar
    25   12   13 ar
    26   12   44 1
    27   13   14 ar
    28   13   45 1
    29   14   15 ar
    30   14   20 1
    31   15   16 ar
    32   15   46 1
    33   16   17 1
    34   17   18 2
    35   17   19 1
    36   20   21 2
    37   20   47 1
    38   21   22 1
    39   21   48 1
    40   22   23 2
    41   22   24 am
    42   24   29 1
    43   24   25 1
    44   25   26 1
    45   25   49 1
    46   25   50 1
    47   26   27 1
    48   26   51 1
    49   26   52 1
    50   27   28 1
    51   27   30 am
    52   28   29 1
    53   28   53 1
    54   28   54 1
    55   29   55 1
    56   29   56 1
    57   30   31 2
    58   30   32 1
    59   32   57 1
    60   32   58 1
    61   32   59 1
@<TRIPOS>MOLECULE
ZINC05280391
   38    40     0     0     0
SMALL
USER_CHARGES
2-(2-bromobenzoyl)amino-3-(1H-indol-3-yl)propanoic acid
@<TRIPOS>ATOM
      1 C1          1.1843    1.7793    0.0003 C.ar      1 <0>        -0.1482
      2 C2         -0.0126    1.0758    0.0080 C.ar      1 <0>        -0.1039
      3 C3         -1.2186    1.7413    0.0173 C.ar      1 <0>        -0.1315
      4 C4         -1.2402    3.1323    0.0298 C.ar      1 <0>         0.0944
      5 C5         -0.0248    3.8404    0.0215 C.ar      1 <0>        -0.0931
      6 C6          1.1863    3.1455    0.0067 C.ar      1 <0>        -0.0711
      7 C7         -0.3836    5.2606    0.0312 C.2       1 <0>        -0.1521
      8 C8         -1.7244    5.3265    0.0441 C.2       1 <0>         0.0475
      9 N1         -2.2533    4.0646    0.0434 N.pl3     1 <0>        -0.5972
     10 H1         -3.2010    3.8576    0.0514 H         1 <0>         0.4125
     11 C9          0.5711    6.4266    0.0274 C.3       1 <0>        -0.0399
     12 C10         0.9780    6.7478   -1.4121 C.3       1 <0>         0.1121
     13 H2          0.0845    6.9158   -2.0133 H         1 <0>         0.0897
     14 C11         1.8342    7.9879   -1.4272 C.2       1 <0>         0.4590
     15 O1          2.9620    7.9382   -1.8578 O.co2     1 <0>        -0.6263
     16 N2          1.7363    5.6241   -1.9676 N.am      1 <0>        -0.6860
     17 C12         1.7707    5.4277   -3.3005 C.2       1 <0>         0.5456
     18 O2          1.1725    6.1829   -4.0418 O.2       1 <0>        -0.5121
     19 C13         2.5356    4.2941   -3.8609 C.ar      1 <0>        -0.0920
     20 C14         3.2286    3.4282   -3.0128 C.ar      1 <0>        -0.0798
     21 C15         3.9365    2.3695   -3.5418 C.ar      1 <0>        -0.1141
     22 C16         3.9702    2.1700   -4.9111 C.ar      1 <0>        -0.1010
     23 C17         3.2908    3.0264   -5.7580 C.ar      1 <0>        -0.1033
     24 C18         2.5735    4.0876   -5.2416 C.ar      1 <0>        -0.0470
     25 Br1         1.6454    5.2582   -6.4011 Br        1 <0>        -0.0141
     26 H3          2.1212    1.2423   -0.0112 H         1 <0>         0.1194
     27 H4          0.0021   -0.0041    0.0020 H         1 <0>         0.1202
     28 H5         -2.1443    1.1850    0.0191 H         1 <0>         0.1147
     29 H6          2.1212    3.6861    0.0007 H         1 <0>         0.1149
     30 H7         -2.3002    6.2401    0.0532 H         1 <0>         0.1715
     31 H8          0.0849    7.2958    0.4701 H         1 <0>         0.0965
     32 H9          1.4581    6.1717    0.6074 H         1 <0>         0.0681
     33 H10         2.2136    5.0215   -1.3761 H         1 <0>         0.3857
     34 H11         3.2071    3.5849   -1.9444 H         1 <0>         0.1299
     35 H12         4.4698    1.6969   -2.8863 H         1 <0>         0.1318
     36 H13         4.5300    1.3418   -5.3200 H         1 <0>         0.1315
     37 H14         3.3216    2.8652   -6.8255 H         1 <0>         0.1344
     38 O3          1.3438    9.1477   -0.9623 O.co2     1 <0>        -0.7669
@<TRIPOS>BOND
     1    1    6 ar
     2    1    2 ar
     3    1   26 1
     4    2    3 ar
     5    2   27 1
     6    3    4 ar
     7    3   28 1
     8    4    9 1
     9    4    5 ar
    10    5    6 ar
    11    5    7 1
    12    6   29 1
    13    7    8 2
    14    7   11 1
    15    8    9 1
    16    8   30 1
    17    9   10 1
    18   11   12 1
    19   11   31 1
    20   11   32 1
    21   12   13 1
    22   12   14 1
    23   12   16 1
    24   14   15 2
    25   14   38 1
    26   16   17 am
    27   16   33 1
    28   17   18 2
    29   17   19 1
    30   19   24 ar
    31   19   20 ar
    32   20   21 ar
    33   20   34 1
    34   21   22 ar
    35   21   35 1
    36   22   23 ar
    37   22   36 1
    38   23   24 ar
    39   23   37 1
    40   24   25 1
@<TRIPOS>MOLECULE
ZINC13488303
   31    32     0     0     0
SMALL
USER_CHARGES
(2S)-2-[(2-bromobenzoyl)amino]-3-(1H-imidazol-4-yl)propanoic acid
@<TRIPOS>ATOM
      1 C1         -3.6302   -1.2282    0.0116 C.ar      1 <0>        -0.1166
      2 C2         -4.8368   -0.5501    0.0210 C.ar      1 <0>        -0.1023
      3 C3         -4.8602    0.8325    0.0291 C.ar      1 <0>        -0.1027
      4 C4         -3.6777    1.5461    0.0279 C.ar      1 <0>        -0.0476
      5 C5         -2.4570    0.8675    0.0184 C.ar      1 <0>        -0.0913
      6 C6         -2.4418   -0.5285    0.0049 C.ar      1 <0>        -0.0831
      7 C7         -1.1873    1.6238    0.0165 C.2       1 <0>         0.5447
      8 O1         -1.2038    2.8392    0.0232 O.2       1 <0>        -0.5072
      9 N1         -0.0111    0.9658    0.0074 N.am      1 <0>        -0.6875
     10 C8          1.2475    1.7155   -0.0006 C.3       1 <0>         0.1147
     11 H1          1.1346    2.6215    0.5948 H         1 <0>         0.0994
     12 C9          2.3605    0.8501    0.5937 C.3       1 <0>        -0.0303
     13 C10         2.0658    0.5812    2.0470 C.2       1 <0>         0.0245
     14 C11         1.9804   -0.6317    2.6259 C.2       1 <0>        -0.0693
     15 N2          1.7024   -0.4202    3.9494 N.pl3     1 <0>        -0.5778
     16 H2          1.5836   -1.1233    4.6505 H         1 <0>         0.4199
     17 C12         1.6185    0.9153    4.1314 C.2       1 <0>         0.1769
     18 N3          1.8369    1.5078    2.9894 N.2       1 <0>        -0.4778
     19 C13         1.6022    2.0866   -1.4175 C.2       1 <0>         0.4586
     20 O2          0.8780    1.7585   -2.3273 O.co2     1 <0>        -0.6291
     21 Br1        -3.7113    3.4367    0.0384 Br        1 <0>        -0.0113
     22 H3         -3.6194   -2.3082    0.0050 H         1 <0>         0.1309
     23 H4         -5.7643   -1.1034    0.0217 H         1 <0>         0.1313
     24 H5         -5.8052    1.3554    0.0361 H         1 <0>         0.1349
     25 H6         -1.5014   -1.0593   -0.0070 H         1 <0>         0.1320
     26 H7          0.0021   -0.0041    0.0020 H         1 <0>         0.3848
     27 H8          2.4140   -0.0948    0.0530 H         1 <0>         0.0717
     28 H9          3.3129    1.3729    0.5068 H         1 <0>         0.1003
     29 H10         2.1086   -1.5876    2.1398 H         1 <0>         0.1725
     30 H11         1.4061    1.4109    5.0672 H         1 <0>         0.2024
     31 O3          2.7227    2.7816   -1.6688 O.co2     1 <0>        -0.7655
@<TRIPOS>BOND
     1    1    6 ar
     2    1    2 ar
     3    1   22 1
     4    2    3 ar
     5    2   23 1
     6    3    4 ar
     7    3   24 1
     8    4    5 ar
     9    4   21 1
    10    5    6 ar
    11    5    7 1
    12    6   25 1
    13    7    8 2
    14    7    9 am
    15    9   10 1
    16    9   26 1
    17   10   11 1
    18   10   12 1
    19   10   19 1
    20   12   13 1
    21   12   27 1
    22   12   28 1
    23   13   18 1
    24   13   14 2
    25   14   15 1
    26   14   29 1
    27   15   16 1
    28   15   17 1
    29   17   18 2
    30   17   30 1
    31   19   20 2
    32   19   31 1
@<TRIPOS>MOLECULE
ZINC13488303
   31    32     0     0     0
SMALL
USER_CHARGES

@<TRIPOS>ATOM
      1 C1         -0.0166    1.3749    0.0096 C.ar      1 <0>        -0.1144
      2 C2          1.1703    2.0868    0.0021 C.ar      1 <0>        -0.1000
      3 C3          2.3828    1.4220   -0.0135 C.ar      1 <0>        -0.1031
      4 C4          2.4165    0.0413   -0.0212 C.ar      1 <0>        -0.0474
      5 C5          1.2221   -0.6827   -0.0132 C.ar      1 <0>        -0.0943
      6 C6          0.0021   -0.0041    0.0020 C.ar      1 <0>        -0.0797
      7 C7          1.2496   -2.1603   -0.0218 C.2       1 <0>         0.5411
      8 O1          2.3135   -2.7483   -0.0359 O.2       1 <0>        -0.5121
      9 N1          0.0953   -2.8558   -0.0141 N.am      1 <0>        -0.6836
     10 C8          0.1225   -4.3205   -0.0226 C.3       1 <0>         0.0872
     11 H1          0.9769   -4.6714    0.5562 H         1 <0>         0.0820
     12 C9         -1.1689   -4.8583    0.5970 C.3       1 <0>        -0.0429
     13 C10        -1.2280   -4.4692    2.0517 C.2       1 <0>         0.0002
     14 C11        -1.6840   -3.3056    2.5535 C.2       1 <0>        -0.0316
     15 N2         -1.5670   -3.3554    3.8888 N.2       1 <0>        -0.4941
     16 H2         -0.4626   -6.1279    3.0779 H         1 <0>         0.4191
     17 C12        -1.0558   -4.5056    4.2334 C.2       1 <0>         0.1694
     18 N3         -0.8341   -5.2327    3.1173 N.pl3     1 <0>        -0.5651
     19 C13         0.2414   -4.8125   -1.4421 C.2       1 <0>         0.4930
     20 O2          0.8083   -5.8661   -1.6767 O.co2     1 <0>        -0.6914
     21 O3         -0.2294   -4.1569   -2.3559 O.co2     1 <0>        -0.6847
     22 Br1         4.0752   -0.8665   -0.0431 Br        1 <0>        -0.0141
     23 H3         -0.9599    1.9006    0.0259 H         1 <0>         0.1328
     24 H4          1.1495    3.1666    0.0081 H         1 <0>         0.1320
     25 H5          3.3053    1.9836   -0.0200 H         1 <0>         0.1349
     26 H6         -0.9251   -0.5579    0.0082 H         1 <0>         0.1339
     27 H7         -0.7536   -2.3866   -0.0029 H         1 <0>         0.3892
     28 H8         -2.0265   -4.4365    0.0729 H         1 <0>         0.0921
     29 H9         -1.1885   -5.9447    0.5105 H         1 <0>         0.0861
     30 H10        -2.0754   -2.4776    1.9812 H         1 <0>         0.1625
     31 H11        -0.8477   -4.8244    5.2441 H         1 <0>         0.2032
@<TRIPOS>BOND
     1    1    6 ar
     2    1    2 ar
     3    1   23 1
     4    2    3 ar
     5    2   24 1
     6    3    4 ar
     7    3   25 1
     8    4    5 ar
     9    4   22 1
    10    5    6 ar
    11    5    7 1
    12    6   26 1
    13    7    8 2
    14    7    9 am
    15    9   10 1
    16    9   27 1
    17   10   11 1
    18   10   12 1
    19   10   19 1
    20   12   28 1
    21   12   29 1
    22   12   13 1
    23   13   14 2
    24   13   18 1
    25   14   15 1
    26   14   30 1
    27   15   17 2
    28   16   18 1
    29   17   31 1
    30   17   18 1
    31   19   20 2
    32   19   21 1
@<TRIPOS>MOLECULE
ZINC13488303
   32    33     0     0     0
SMALL
USER_CHARGES
(2S)-2-[(2-bromobenzoyl)amino]-3-(1H-imidazol-4-yl)propanoic acid
@<TRIPOS>ATOM
      1 C1         -3.6302   -1.2282    0.0116 C.ar      1 <0>        -0.1153
      2 C2         -4.8368   -0.5501    0.0210 C.ar      1 <0>        -0.0931
      3 C3         -4.8602    0.8325    0.0291 C.ar      1 <0>        -0.0995
      4 C4         -3.6777    1.5461    0.0279 C.ar      1 <0>        -0.0470
      5 C5         -2.4570    0.8675    0.0184 C.ar      1 <0>        -0.1032
      6 C6         -2.4418   -0.5285    0.0049 C.ar      1 <0>        -0.0837
      7 C7         -1.1873    1.6238    0.0165 C.2       1 <0>         0.5507
      8 O1         -1.2038    2.8392    0.0232 O.2       1 <0>        -0.5051
      9 N1         -0.0111    0.9658    0.0074 N.am      1 <0>        -0.7147
     10 C8          1.2475    1.7155   -0.0006 C.3       1 <0>         0.1055
     11 H1          1.0943    2.6268    0.5961 H         1 <0>         0.0881
     12 C9          2.3605    0.8501    0.5937 C.3       1 <0>        -0.0614
     13 C10         2.0658    0.5812    2.0470 C.2       1 <0>         0.0469
     14 C11         1.9804   -0.6317    2.6259 C.2       1 <0>         0.0097
     15 N2          1.7024   -0.4202    3.9494 N.pl3     1 <0>        -0.5304
     16 H2          1.8551    2.5758    2.7266 H         1 <0>         0.5065
     17 C12         1.6185    0.9153    4.1314 C.cat     1 <0>         0.3319
     18 N3          1.8369    1.5078    2.9894 N.pl3     1 <0>        -0.4876
     19 C13         1.6022    2.0866   -1.4175 C.2       1 <0>         0.4539
     20 O2          0.8780    1.7585   -2.3273 O.co2     1 <0>        -0.6072
     21 O3          2.7227    2.7816   -1.6688 O.co2     1 <0>        -0.7553
     22 Br1        -3.7113    3.4367    0.0384 Br        1 <0>        -0.0075
     23 H3         -3.6194   -2.3082    0.0050 H         1 <0>         0.1341
     24 H4         -5.7643   -1.1034    0.0217 H         1 <0>         0.1359
     25 H5         -5.8052    1.3554    0.0361 H         1 <0>         0.1387
     26 H6         -1.5014   -1.0593   -0.0070 H         1 <0>         0.1305
     27 H7          0.0039   -0.1341    0.0060 H         1 <0>         0.4046
     28 H8          2.4145   -0.1034    0.0479 H         1 <0>         0.1132
     29 H9          3.3217    1.3777    0.5059 H         1 <0>         0.1295
     30 H10         2.1175   -1.4576    2.0789 H         1 <0>         0.2012
     31 H11         1.4162    1.2846    5.0384 H         1 <0>         0.2287
     32 H12         1.5928   -1.2758    4.6319 H         1 <0>         0.5015
@<TRIPOS>BOND
     1    1    6 ar
     2    1    2 ar
     3    1   23 1
     4    2    3 ar
     5    2   24 1
     6    3    4 ar
     7    3   25 1
     8    4    5 ar
     9    4   22 1
    10    5    6 ar
    11    5    7 1
    12    6   26 1
    13    7    8 2
    14    7    9 am
    15    9   10 1
    16    9   27 1
    17   10   11 1
    18   10   12 1
    19   10   19 1
    20   12   13 1
    21   12   28 1
    22   12   29 1
    23   13   18 1
    24   13   14 2
    25   14   15 1
    26   14   30 1
    27   15   17 2
    28   15   32 1
    29   16   18 1
    30   17   31 1
    31   17   18 1
    32   19   20 2
    33   19   21 1
@<TRIPOS>MOLECULE
ZINC01541801
   45    47     0     0     0
SMALL
USER_CHARGES
N-(3-hydroxypropyl)-5-methyl-1-[4-[3-(trifluoromethyl)phenyl]thiazol-2-yl]-pyrazole-4-carboxamide
@<TRIPOS>ATOM
      1 C1          0.8127   10.3741    0.0537 C.3       1 <0>        -0.1089
      2 C2          2.0752    9.5515    0.0363 C.2       1 <0>         0.1682
      3 C3          3.3673   10.0371    0.0264 C.2       1 <0>        -0.2728
      4 C4          4.2333    8.9198    0.0116 C.2       1 <0>         0.0987
      5 N1          3.5014    7.8399    0.0187 N.2       1 <0>        -0.2541
      6 N2          2.1510    8.2071    0.0279 N.pl3     1 <0>        -0.2801
      7 C5          1.0684    7.3300    0.0335 C.2       1 <0>         0.3307
      8 N3          1.0627    6.0106    0.0260 N.2       1 <0>        -0.4885
      9 C6         -0.0702    5.3272    0.0328 C.2       1 <0>         0.1164
     10 C7         -1.2607    6.0018    0.0425 C.2       1 <0>        -0.2003
     11 S1         -0.6817    7.6936    0.0520 S.3       1 <0>         0.1002
     12 C8         -0.0501    3.8441    0.0236 C.ar      1 <0>        -0.0296
     13 C9         -1.2462    3.1281    0.0308 C.ar      1 <0>        -0.0702
     14 C10        -1.2215    1.7486    0.0174 C.ar      1 <0>        -0.1178
     15 C11        -0.0126    1.0758    0.0080 C.ar      1 <0>        -0.0637
     16 C12         1.1772    1.7810    0.0004 C.ar      1 <0>        -0.1837
     17 C13         1.1646    3.1612    0.0084 C.ar      1 <0>        -0.0334
     18 C14         2.4899    1.0410   -0.0161 C.3       1 <0>         0.5091
     19 F1          2.2485   -0.3370   -0.0212 F         1 <0>        -0.1761
     20 F2          3.2091    1.3927   -1.1635 F         1 <0>        -0.1744
     21 F3          3.2309    1.3804    1.1210 F         1 <0>        -0.1744
     22 C15         3.7690   11.4554    0.0313 C.2       1 <0>         0.6001
     23 O1          2.9215   12.3273    0.0452 O.2       1 <0>        -0.5378
     24 N4          5.0756   11.7858    0.0203 N.am      1 <0>        -0.7246
     25 C16         5.4749   13.1953    0.0252 C.3       1 <0>         0.1245
     26 C17         7.0017   13.2930    0.0106 C.3       1 <0>        -0.1351
     27 C18         7.4186   14.7651    0.0156 C.3       1 <0>         0.0789
     28 O2          8.8446   14.8563    0.0020 O.3       1 <0>        -0.5751
     29 H1          0.5184   10.5663    1.0855 H         1 <0>         0.1019
     30 H2          0.9891   11.3212   -0.4562 H         1 <0>         0.1230
     31 H3          0.0173    9.8299   -0.4555 H         1 <0>         0.0741
     32 H4          5.3127    8.9542    0.0013 H         1 <0>         0.2049
     33 H5         -2.2704    5.6185    0.0449 H         1 <0>         0.2117
     34 H6         -2.1904    3.6523    0.0430 H         1 <0>         0.1371
     35 H7         -2.1475    1.1929    0.0187 H         1 <0>         0.1425
     36 H8          0.0021   -0.0041    0.0020 H         1 <0>         0.1426
     37 H9          2.0942    3.7108    0.0024 H         1 <0>         0.1453
     38 H10         5.7517   11.0902    0.0092 H         1 <0>         0.4020
     39 H11         5.0706   13.6905   -0.8577 H         1 <0>         0.0731
     40 H12         5.0884   13.6793    0.9221 H         1 <0>         0.0731
     41 H13         7.4059   12.7978    0.8935 H         1 <0>         0.0786
     42 H14         7.3881   12.8090   -0.8864 H         1 <0>         0.0786
     43 H15         7.0144   15.2602   -0.8673 H         1 <0>         0.0504
     44 H16         7.0321   15.2491    0.9126 H         1 <0>         0.0504
     45 H17         9.1808   15.7630    0.0043 H         1 <0>         0.3846
@<TRIPOS>BOND
     1    1    2 1
     2    1   29 1
     3    1   30 1
     4    1   31 1
     5    2    6 1
     6    2    3 2
     7    3    4 1
     8    3   22 1
     9    4    5 2
    10    4   32 1
    11    5    6 1
    12    6    7 1
    13    7   11 1
    14    7    8 2
    15    8    9 1
    16    9   10 2
    17    9   12 1
    18   10   11 1
    19   10   33 1
    20   12   17 ar
    21   12   13 ar
    22   13   14 ar
    23   13   34 1
    24   14   15 ar
    25   14   35 1
    26   15   16 ar
    27   15   36 1
    28   16   17 ar
    29   16   18 1
    30   17   37 1
    31   18   19 1
    32   18   20 1
    33   18   21 1
    34   22   23 2
    35   22   24 am
    36   24   25 1
    37   24   38 1
    38   25   26 1
    39   25   39 1
    40   25   40 1
    41   26   27 1
    42   26   41 1
    43   26   42 1
    44   27   28 1
    45   27   43 1
    46   27   44 1
    47   28   45 1
