@<TRIPOS>MOLECULE
ZINC13508043
   39    39     0     0     0
SMALL
USER_CHARGES

@<TRIPOS>ATOM
      1 C1         -0.0127    1.0858    0.0080 C.3       1 <0>         0.1790
      2 H1          0.0021   -0.0041    0.0020 H         1 <0>         0.0674
      3 C2         -0.7288    1.5792    1.2668 C.3       1 <0>         0.1823
      4 H2         -1.7514    1.2020    1.2746 H         1 <0>         0.0744
      5 C3          0.0111    1.0724    2.5063 C.3       1 <0>         0.0764
      6 C4          1.4465    1.6020    2.4955 C.3       1 <0>         0.1424
      7 H3          1.4318    2.6919    2.5015 H         1 <0>         0.0747
      8 C5          2.1627    1.1086    1.2367 C.3       1 <0>         0.1305
      9 H4          2.1775    0.0187    1.2307 H         1 <0>         0.0502
     10 C6          1.4227    1.6154   -0.0028 C.3       1 <0>         0.0882
     11 O1          2.0915    1.1546   -1.1786 O.3       1 <0>        -0.5415
     12 O2          3.5033    1.6032    1.2265 O.3       1 <0>        -0.7336
     13 P1          4.7932    0.6399    1.2090 P.3       1 <0>         2.1519
     14 O3          4.7163   -0.3578    2.4144 O.2       1 <0>        -1.1910
     15 O4          4.8253   -0.1655   -0.1343 O.3       1 <0>        -1.1988
     16 O5          6.0933    1.5058    1.3300 O.3       1 <0>        -1.1862
     17 O6          2.1377    1.1286    3.6532 O.3       1 <0>        -0.7369
     18 P2          2.7732    2.1120    4.7582 P.3       1 <0>         2.2111
     19 O7          3.7364    3.1052    4.0706 O.2       1 <0>        -1.0969
     20 O8          1.6425    2.8948    5.4623 O.3       1 <0>        -1.1193
     21 O9          3.5834    1.2446    5.8461 O.3       1 <0>        -0.8886
     22 O10        -0.6577    1.5332    3.6820 O.3       1 <0>        -0.5313
     23 O11        -0.7482    3.0081    1.2747 O.3       1 <0>        -0.7303
     24 P3         -2.1102    3.8665    1.2923 P.3       1 <0>         2.2103
     25 O12        -3.0027    3.4407    0.1052 O.2       1 <0>        -1.1056
     26 O13        -2.8615    3.6132    2.6183 O.3       1 <0>        -1.1082
     27 O14        -1.7592    5.4326    1.1651 O.3       1 <0>        -0.8943
     28 O15        -0.7038    1.5592   -1.1497 O.3       1 <0>        -0.7269
     29 P4         -1.3394    0.5758   -2.2547 P.3       1 <0>         2.2169
     30 O16        -0.2476   -0.3829   -2.7799 O.2       1 <0>        -1.1060
     31 O17        -2.4824   -0.2452   -1.6170 O.3       1 <0>        -1.1196
     32 O18        -1.9218    1.4470   -3.4770 O.3       1 <0>        -0.8907
     33 H5          0.0259   -0.0175    2.5003 H         1 <0>         0.0640
     34 H6          1.4079    2.7053    0.0031 H         1 <0>         0.0654
     35 H7          3.0085    1.4528   -1.2518 H         1 <0>         0.3760
     36 H8          3.9940    1.7733    6.5439 H         1 <0>         0.3900
     37 H9         -0.2424    1.2490    4.5078 H         1 <0>         0.3677
     38 H10        -2.5342    6.0109    1.1689 H         1 <0>         0.3940
     39 H11        -2.3209    0.9185   -4.1816 H         1 <0>         0.3930
@<TRIPOS>BOND
     1    1    2 1
     2    1   10 1
     3    1    3 1
     4    1   28 1
     5    3    4 1
     6    3    5 1
     7    3   23 1
     8    5    6 1
     9    5   22 1
    10    5   33 1
    11    6    7 1
    12    6    8 1
    13    6   17 1
    14    8    9 1
    15    8   10 1
    16    8   12 1
    17   10   11 1
    18   10   34 1
    19   11   35 1
    20   12   13 1
    21   13   14 2
    22   13   15 1
    23   13   16 1
    24   17   18 1
    25   18   19 2
    26   18   20 1
    27   18   21 1
    28   21   36 1
    29   22   37 1
    30   23   24 1
    31   24   25 2
    32   24   26 1
    33   24   27 1
    34   27   38 1
    35   28   29 1
    36   29   30 2
    37   29   31 1
    38   29   32 1
    39   32   39 1
@<TRIPOS>MOLECULE
ZINC13508043
   36    36     0     0     0
SMALL
USER_CHARGES

@<TRIPOS>ATOM
      1 C1         -0.0127    1.0858    0.0080 C.3       1 <0>         0.1836
      2 H1          0.0021   -0.0041    0.0020 H         1 <0>         0.0290
      3 C2         -0.7288    1.5792    1.2668 C.3       1 <0>         0.1789
      4 H2         -1.7514    1.2020    1.2746 H         1 <0>         0.0439
      5 C3          0.0111    1.0724    2.5063 C.3       1 <0>         0.0791
      6 C4          1.4465    1.6020    2.4955 C.3       1 <0>         0.1425
      7 H3          1.4318    2.6919    2.5015 H         1 <0>         0.0610
      8 C5          2.1627    1.1086    1.2367 C.3       1 <0>         0.1426
      9 H4          2.1775    0.0187    1.2307 H         1 <0>         0.0299
     10 C6          1.4227    1.6154   -0.0028 C.3       1 <0>         0.0882
     11 O1          2.0915    1.1546   -1.1786 O.3       1 <0>        -0.5388
     12 O2          3.5033    1.6032    1.2265 O.3       1 <0>        -0.7374
     13 P1          4.7932    0.6399    1.2090 P.3       1 <0>         2.1752
     14 O3          4.7163   -0.3579    2.4144 O.2       1 <0>        -1.1949
     15 O4          4.8254   -0.1655   -0.1343 O.3       1 <0>        -1.2167
     16 O5          6.0933    1.5058    1.3300 O.3       1 <0>        -1.2047
     17 O6          2.1377    1.1286    3.6532 O.3       1 <0>        -0.7468
     18 P2          2.7732    2.1120    4.7582 P.3       1 <0>         2.1735
     19 O7          3.7499    3.1192    4.0610 O.2       1 <0>        -1.1926
     20 O8          1.6267    2.9058    5.4721 O.3       1 <0>        -1.2136
     21 O9          3.5616    1.2680    5.8168 O.3       1 <0>        -1.2075
     22 O10        -0.6577    1.5332    3.6820 O.3       1 <0>        -0.5284
     23 O11        -0.7482    3.0081    1.2747 O.3       1 <0>        -0.7301
     24 P3         -2.1102    3.8665    1.2923 P.3       1 <0>         2.1700
     25 O12        -3.0152    3.4347    0.0886 O.2       1 <0>        -1.1905
     26 O13        -2.8720    3.6096    2.6369 O.3       1 <0>        -1.2101
     27 O14        -1.7686    5.3904    1.1685 O.3       1 <0>        -1.2103
     28 O15        -0.7038    1.5592   -1.1497 O.3       1 <0>        -0.7227
     29 P4         -1.3394    0.5758   -2.2547 P.3       1 <0>         2.1839
     30 O16        -0.2323   -0.3964   -2.7872 O.2       1 <0>        -1.2084
     31 O17        -2.4984   -0.2567   -1.6081 O.3       1 <0>        -1.2184
     32 O18        -1.9061    1.4236   -3.4441 O.3       1 <0>        -1.2056
     33 H5          0.0259   -0.0175    2.5003 H         1 <0>         0.0311
     34 H6          1.4079    2.7053    0.0031 H         1 <0>         0.0585
     35 H7          3.0085    1.4528   -1.2518 H         1 <0>         0.3530
     36 H8         -0.2424    1.2490    4.5078 H         1 <0>         0.3536
@<TRIPOS>BOND
     1    1    2 1
     2    1   10 1
     3    1    3 1
     4    1   28 1
     5    3    4 1
     6    3    5 1
     7    3   23 1
     8    5    6 1
     9    5   22 1
    10    5   33 1
    11    6    7 1
    12    6    8 1
    13    6   17 1
    14    8    9 1
    15    8   10 1
    16    8   12 1
    17   10   11 1
    18   10   34 1
    19   11   35 1
    20   12   13 1
    21   13   14 2
    22   13   15 1
    23   13   16 1
    24   17   18 1
    25   18   19 2
    26   18   20 1
    27   18   21 1
    28   22   36 1
    29   23   24 1
    30   24   25 2
    31   24   26 1
    32   24   27 1
    33   28   29 1
    34   29   30 2
    35   29   31 1
    36   29   32 1
@<TRIPOS>MOLECULE
ZINC13508043
   37    37     0     0     0
SMALL
USER_CHARGES

@<TRIPOS>ATOM
      1 C1         -0.0127    1.0858    0.0080 C.3       1 <0>         0.1892
      2 H1          0.0021   -0.0041    0.0020 H         1 <0>         0.0473
      3 C2         -0.7288    1.5792    1.2668 C.3       1 <0>         0.1761
      4 H2         -1.7514    1.2020    1.2746 H         1 <0>         0.0483
      5 C3          0.0111    1.0724    2.5063 C.3       1 <0>         0.0793
      6 C4          1.4465    1.6020    2.4955 C.3       1 <0>         0.1380
      7 H3          1.4318    2.6919    2.5015 H         1 <0>         0.0634
      8 C5          2.1627    1.1086    1.2367 C.3       1 <0>         0.1418
      9 H4          2.1775    0.0187    1.2307 H         1 <0>         0.0336
     10 C6          1.4227    1.6154   -0.0028 C.3       1 <0>         0.0854
     11 O1          2.0915    1.1546   -1.1786 O.3       1 <0>        -0.5520
     12 O2          3.5033    1.6032    1.2265 O.3       1 <0>        -0.7327
     13 P1          4.7932    0.6399    1.2090 P.3       1 <0>         2.1688
     14 O3          4.7163   -0.3579    2.4144 O.2       1 <0>        -1.1897
     15 O4          4.8254   -0.1655   -0.1344 O.3       1 <0>        -1.2154
     16 O5          6.0933    1.5058    1.3300 O.3       1 <0>        -1.1986
     17 O6          2.1377    1.1286    3.6532 O.3       1 <0>        -0.7424
     18 P2          2.7732    2.1120    4.7582 P.3       1 <0>         2.1674
     19 O7          3.7499    3.1192    4.0610 O.2       1 <0>        -1.1893
     20 O8          1.6267    2.9058    5.4721 O.3       1 <0>        -1.2102
     21 O9          3.5616    1.2680    5.8168 O.3       1 <0>        -1.2021
     22 O10        -0.6577    1.5332    3.6820 O.3       1 <0>        -0.5275
     23 O11        -0.7482    3.0081    1.2747 O.3       1 <0>        -0.7277
     24 P3         -2.1102    3.8665    1.2923 P.3       1 <0>         2.1685
     25 O12        -3.0152    3.4347    0.0886 O.2       1 <0>        -1.2002
     26 O13        -2.8720    3.6096    2.6369 O.3       1 <0>        -1.2015
     27 O14        -1.7686    5.3904    1.1685 O.3       1 <0>        -1.2028
     28 O15        -0.7038    1.5592   -1.1497 O.3       1 <0>        -0.7220
     29 P4         -1.3394    0.5758   -2.2547 P.3       1 <0>         2.2244
     30 O16        -0.2476   -0.3829   -2.7799 O.2       1 <0>        -1.1170
     31 O17        -2.4824   -0.2452   -1.6170 O.3       1 <0>        -1.1278
     32 O18        -1.9218    1.4470   -3.4770 O.3       1 <0>        -0.8862
     33 H5          0.0259   -0.0175    2.5003 H         1 <0>         0.0347
     34 H6          1.4079    2.7053    0.0031 H         1 <0>         0.0676
     35 H7          3.0085    1.4528   -1.2518 H         1 <0>         0.3668
     36 H8         -0.2424    1.2490    4.5078 H         1 <0>         0.3621
     37 H9         -2.3209    0.9185   -4.1816 H         1 <0>         0.3823
@<TRIPOS>BOND
     1    1    2 1
     2    1   10 1
     3    1    3 1
     4    1   28 1
     5    3    4 1
     6    3    5 1
     7    3   23 1
     8    5    6 1
     9    5   22 1
    10    5   33 1
    11    6    7 1
    12    6    8 1
    13    6   17 1
    14    8    9 1
    15    8   10 1
    16    8   12 1
    17   10   11 1
    18   10   34 1
    19   11   35 1
    20   12   13 1
    21   13   14 2
    22   13   15 1
    23   13   16 1
    24   17   18 1
    25   18   19 2
    26   18   20 1
    27   18   21 1
    28   22   36 1
    29   23   24 1
    30   24   25 2
    31   24   26 1
    32   24   27 1
    33   28   29 1
    34   29   30 2
    35   29   31 1
    36   29   32 1
    37   32   37 1
@<TRIPOS>MOLECULE
ZINC13508043
   37    37     0     0     0
SMALL
USER_CHARGES

@<TRIPOS>ATOM
      1 C1         -0.0187    1.5258    0.0104 C.3       1 <0>         0.0968
      2 C2          1.4167    2.0553   -0.0004 C.3       1 <0>         0.1785
      3 C3          2.1328    1.5619   -1.2592 C.3       1 <0>         0.1819
      4 C4          2.1536    0.0321   -1.2676 C.3       1 <0>         0.0790
      5 C5          0.7182   -0.4975   -1.2568 C.3       1 <0>         0.1443
      6 C6          0.0021   -0.0041    0.0020 C.3       1 <0>         0.1371
      7 O1         -1.3386   -0.4987    0.0122 O.3       1 <0>        -0.7303
      8 P1         -1.9164   -1.4419    1.1820 P.3       1 <0>         2.1710
      9 O2         -0.9967   -2.7003    1.3404 O.2       1 <0>        -1.1883
     10 O3         -1.9458   -0.6436    2.5298 O.3       1 <0>        -1.2245
     11 O4         -3.3689   -1.8995    0.8143 O.3       1 <0>        -1.1970
     12 O5          0.7376   -1.9263   -1.2646 O.3       1 <0>        -0.7470
     13 P2          0.0633   -2.8060   -2.4324 P.3       1 <0>         2.1704
     14 O6         -1.4415   -2.3994   -2.5898 O.2       1 <0>        -1.1899
     15 O7          0.8175   -2.5493   -3.7813 O.3       1 <0>        -1.2114
     16 O8          0.1577   -4.3254   -2.0623 O.3       1 <0>        -1.2046
     17 O9          2.8225   -0.4288   -2.4434 O.3       1 <0>        -0.5273
     18 O10         1.4417    2.0353   -2.4169 O.3       1 <0>        -0.7000
     19 P3          2.1303    2.9796   -3.5243 P.3       1 <0>         2.1740
     20 O11         2.7207    4.2538   -2.8298 O.2       1 <0>        -1.2068
     21 O12         3.2819    2.1931   -4.2382 O.3       1 <0>        -1.2091
     22 O13         1.0584    3.4109   -4.5823 O.3       1 <0>        -1.2053
     23 O14         1.3973    3.4842    0.0074 O.3       1 <0>        -0.7163
     24 P4          2.0716    4.3639    1.1751 P.3       1 <0>         2.2208
     25 O15         1.5006    3.9284    2.5431 O.2       1 <0>        -1.1293
     26 O16         3.6016    4.1489    1.1637 O.3       1 <0>        -1.1237
     27 O17         1.7468    5.9215    0.9293 O.3       1 <0>        -0.8829
     28 O18        -0.7098    1.9991   -1.1473 O.3       1 <0>        -0.5090
     29 H1         -0.5289    1.8773    0.9072 H         1 <0>         0.0392
     30 H2          1.9439    1.6943    0.8826 H         1 <0>         0.0495
     31 H3          3.1554    1.9392   -1.2670 H         1 <0>         0.0361
     32 H4          2.6808   -0.3290   -0.3846 H         1 <0>         0.0275
     33 H5          0.1910   -0.1364   -2.1398 H         1 <0>         0.0736
     34 H6          0.5293   -0.3651    0.8851 H         1 <0>         0.0279
     35 H7          2.8731   -1.3918   -2.5151 H         1 <0>         0.3599
     36 H8          2.1229    6.5118    1.5965 H         1 <0>         0.3830
     37 H9         -1.6280    1.7017   -1.2062 H         1 <0>         0.3524
@<TRIPOS>BOND
     1    1    6 1
     2    1    2 1
     3    1   28 1
     4    1   29 1
     5    2    3 1
     6    2   23 1
     7    2   30 1
     8    3    4 1
     9    3   18 1
    10    3   31 1
    11    4    5 1
    12    4   17 1
    13    4   32 1
    14    5    6 1
    15    5   12 1
    16    5   33 1
    17    6    7 1
    18    6   34 1
    19    7    8 1
    20    8    9 2
    21    8   10 1
    22    8   11 1
    23   12   13 1
    24   13   14 2
    25   13   15 1
    26   13   16 1
    27   17   35 1
    28   18   19 1
    29   19   20 2
    30   19   21 1
    31   19   22 1
    32   23   24 1
    33   24   25 2
    34   24   26 1
    35   24   27 1
    36   27   36 1
    37   28   37 1
@<TRIPOS>MOLECULE
ZINC13508043
   37    37     0     0     0
SMALL
USER_CHARGES

@<TRIPOS>ATOM
      1 C1         -0.0127    1.0858    0.0080 C.3       1 <0>         0.0792
      2 H1          0.0021   -0.0041    0.0020 H         1 <0>         0.0423
      3 C2         -0.7288    1.5792    1.2668 C.3       1 <0>         0.1896
      4 H2         -0.7436    2.6691    1.2728 H         1 <0>         0.0746
      5 C3          0.0111    1.0724    2.5063 C.3       1 <0>         0.1821
      6 H3          0.0259   -0.0175    2.5003 H         1 <0>         0.0376
      7 C4          1.4465    1.6020    2.4955 C.3       1 <0>         0.0889
      8 H4          1.4318    2.6919    2.5015 H         1 <0>         0.0620
      9 C5          2.1627    1.1086    1.2367 C.3       1 <0>         0.1353
     10 H5          2.1775    0.0187    1.2307 H         1 <0>         0.0337
     11 C6          1.4227    1.6154   -0.0028 C.3       1 <0>         0.1363
     12 H6          1.9329    1.2639   -0.8996 H         1 <0>         0.0449
     13 O1          1.4033    3.0442    0.0050 O.3       1 <0>        -0.7299
     14 P1          2.0553    3.9365   -1.1659 P.3       1 <0>         2.1620
     15 O2          3.5567    3.5317   -1.3563 O.2       1 <0>        -1.1836
     16 O3          1.2754    3.6941   -2.5029 O.3       1 <0>        -1.2110
     17 O4          1.9681    5.4518   -0.7777 O.3       1 <0>        -1.2035
     18 O5          3.5033    1.6032    1.2265 O.3       1 <0>        -0.7277
     19 P2          4.7932    0.6399    1.2090 P.3       1 <0>         2.1708
     20 O6          4.7163   -0.3578    2.4144 O.2       1 <0>        -1.2055
     21 O7          4.8253   -0.1655   -0.1343 O.3       1 <0>        -1.2111
     22 O8          6.0933    1.5058    1.3300 O.3       1 <0>        -1.1964
     23 O9          2.1377    1.1286    3.6532 O.3       1 <0>        -0.5335
     24 O10        -0.6577    1.5332    3.6820 O.3       1 <0>        -0.7320
     25 P3         -1.2722    0.5380    4.7884 P.3       1 <0>         2.1739
     26 O11        -2.2621   -0.4618    4.0992 O.2       1 <0>        -1.2053
     27 O12        -0.1122   -0.2633    5.4717 O.3       1 <0>        -1.2042
     28 O13        -2.0401    1.3705    5.8708 O.3       1 <0>        -1.2021
     29 O14        -2.0695    1.0846    1.2770 O.3       1 <0>        -0.7348
     30 P4         -3.3594    2.0479    1.2944 P.3       1 <0>         2.2108
     31 O15        -3.2607    3.0190    2.4920 O.2       1 <0>        -1.1030
     32 O16        -3.4163    2.8564   -0.0209 O.3       1 <0>        -1.1153
     33 O17        -4.6929    1.1566    1.4347 O.3       1 <0>        -0.8902
     34 O18        -0.7038    1.5592   -1.1497 O.3       1 <0>        -0.5245
     35 H7          3.0559    1.4261    3.7121 H         1 <0>         0.3573
     36 H8         -5.5107    1.6724    1.4519 H         1 <0>         0.3805
     37 H9         -0.3044    1.2838   -1.9862 H         1 <0>         0.3516
@<TRIPOS>BOND
     1    1    2 1
     2    1   11 1
     3    1    3 1
     4    1   34 1
     5    3    4 1
     6    3    5 1
     7    3   29 1
     8    5    6 1
     9    5    7 1
    10    5   24 1
    11    7    8 1
    12    7    9 1
    13    7   23 1
    14    9   10 1
    15    9   11 1
    16    9   18 1
    17   11   12 1
    18   11   13 1
    19   13   14 1
    20   14   15 2
    21   14   16 1
    22   14   17 1
    23   18   19 1
    24   19   20 2
    25   19   21 1
    26   19   22 1
    27   23   35 1
    28   24   25 1
    29   25   26 2
    30   25   27 1
    31   25   28 1
    32   29   30 1
    33   30   31 2
    34   30   32 1
    35   30   33 1
    36   33   36 1
    37   34   37 1
@<TRIPOS>MOLECULE
ZINC26752503
   39    39     0     0     0
SMALL
USER_CHARGES

@<TRIPOS>ATOM
      1 C1         -0.0127    1.0858    0.0080 C.3       1 <0>         0.1819
      2 H1          0.0021   -0.0041    0.0020 H         1 <0>         0.0671
      3 C2         -0.7288    1.5792    1.2668 C.3       1 <0>         0.1881
      4 H2         -0.2017    1.2182    2.1499 H         1 <0>         0.0769
      5 C3         -0.7496    3.1091    1.2752 C.3       1 <0>         0.0855
      6 C4          0.6858    3.6387    1.2644 C.3       1 <0>         0.1391
      7 H3          0.6710    4.7285    1.2704 H         1 <0>         0.0644
      8 C5          1.4019    3.1452    0.0056 C.3       1 <0>         0.1360
      9 H4          0.8747    3.5063   -0.8775 H         1 <0>         0.0645
     10 C6          1.4227    1.6154   -0.0028 C.3       1 <0>         0.0873
     11 O1          2.0915    1.1546   -1.1786 O.3       1 <0>        -0.5395
     12 O2          2.7426    3.6399   -0.0046 O.3       1 <0>        -0.7367
     13 P1          3.3204    4.5830   -1.1745 P.3       1 <0>         2.1542
     14 O3          3.1144    3.8818   -2.5602 O.2       1 <0>        -1.1955
     15 O4          2.5602    5.9529   -1.1642 O.3       1 <0>        -1.2009
     16 O5          4.8488    4.8322   -0.9373 O.3       1 <0>        -1.1868
     17 O6          1.3769    3.1653    2.4221 O.3       1 <0>        -0.7354
     18 P2          2.0125    4.1487    3.5271 P.3       1 <0>         2.2007
     19 O7          2.9757    5.1419    2.8395 O.2       1 <0>        -1.0887
     20 O8          0.8818    4.9315    4.2311 O.3       1 <0>        -1.1167
     21 O9          2.8227    3.2813    4.6149 O.3       1 <0>        -0.8960
     22 O10        -1.4185    3.5699    2.4509 O.3       1 <0>        -0.5320
     23 O11        -2.0695    1.0846    1.2770 O.3       1 <0>        -0.7310
     24 P3         -2.6473    0.1414    2.4468 P.3       1 <0>         2.2184
     25 O12        -1.7404   -1.0996    2.6030 O.2       1 <0>        -1.1246
     26 O13        -2.6763    0.9287    3.7759 O.3       1 <0>        -1.1070
     27 O14        -4.1400   -0.3289    2.0690 O.3       1 <0>        -0.8885
     28 O15        -0.7038    1.5592   -1.1497 O.3       1 <0>        -0.7338
     29 P4         -1.3394    0.5758   -2.2547 P.3       1 <0>         2.2125
     30 O16        -0.2476   -0.3829   -2.7799 O.2       1 <0>        -1.1109
     31 O17        -2.4824   -0.2452   -1.6170 O.3       1 <0>        -1.1075
     32 O18        -1.9218    1.4470   -3.4770 O.3       1 <0>        -0.8940
     33 H5         -1.2768    3.4701    0.3922 H         1 <0>         0.0715
     34 H6          1.9499    1.2543    0.8802 H         1 <0>         0.0651
     35 H7          3.0085    1.4528   -1.2518 H         1 <0>         0.3735
     36 H8          3.2333    3.8100    5.3128 H         1 <0>         0.3934
     37 H9         -1.4691    4.5329    2.5227 H         1 <0>         0.3609
     38 H10        -4.5514   -0.9014    2.7308 H         1 <0>         0.3914
     39 H11        -2.3209    0.9185   -4.1816 H         1 <0>         0.3933
@<TRIPOS>BOND
     1    1    2 1
     2    1   10 1
     3    1    3 1
     4    1   28 1
     5    3    4 1
     6    3    5 1
     7    3   23 1
     8    5    6 1
     9    5   22 1
    10    5   33 1
    11    6    7 1
    12    6    8 1
    13    6   17 1
    14    8    9 1
    15    8   10 1
    16    8   12 1
    17   10   11 1
    18   10   34 1
    19   11   35 1
    20   12   13 1
    21   13   14 2
    22   13   15 1
    23   13   16 1
    24   17   18 1
    25   18   19 2
    26   18   20 1
    27   18   21 1
    28   21   36 1
    29   22   37 1
    30   23   24 1
    31   24   25 2
    32   24   26 1
    33   24   27 1
    34   27   38 1
    35   28   29 1
    36   29   30 2
    37   29   31 1
    38   29   32 1
    39   32   39 1
@<TRIPOS>MOLECULE
ZINC26752503
   37    37     0     0     0
SMALL
USER_CHARGES

@<TRIPOS>ATOM
      1 C1         -0.0127    1.0858    0.0080 C.3       1 <0>         0.1908
      2 H1          0.0021   -0.0041    0.0020 H         1 <0>         0.0567
      3 C2         -0.7288    1.5792    1.2668 C.3       1 <0>         0.1824
      4 H2         -0.2017    1.2182    2.1499 H         1 <0>         0.0652
      5 C3         -0.7496    3.1091    1.2752 C.3       1 <0>         0.0888
      6 C4          0.6858    3.6387    1.2644 C.3       1 <0>         0.1348
      7 H3          0.6710    4.7285    1.2704 H         1 <0>         0.0385
      8 C5          1.4019    3.1452    0.0056 C.3       1 <0>         0.1471
      9 H4          0.8747    3.5063   -0.8775 H         1 <0>         0.0449
     10 C6          1.4227    1.6154   -0.0028 C.3       1 <0>         0.0849
     11 O1          2.0915    1.1546   -1.1786 O.3       1 <0>        -0.5483
     12 O2          2.7426    3.6399   -0.0046 O.3       1 <0>        -0.7348
     13 P1          3.3204    4.5830   -1.1745 P.3       1 <0>         2.1743
     14 O3          3.1144    3.8818   -2.5602 O.2       1 <0>        -1.2088
     15 O4          2.5602    5.9529   -1.1642 O.3       1 <0>        -1.2115
     16 O5          4.8488    4.8322   -0.9373 O.3       1 <0>        -1.1990
     17 O6          1.3769    3.1653    2.4221 O.3       1 <0>        -0.7347
     18 P2          2.0125    4.1487    3.5271 P.3       1 <0>         2.1643
     19 O7          2.9892    5.1559    2.8299 O.2       1 <0>        -1.1862
     20 O8          0.8659    4.9424    4.2410 O.3       1 <0>        -1.2102
     21 O9          2.8009    3.3046    4.5857 O.3       1 <0>        -1.2063
     22 O10        -1.4185    3.5699    2.4509 O.3       1 <0>        -0.5179
     23 O11        -2.0695    1.0846    1.2770 O.3       1 <0>        -0.7355
     24 P3         -2.6473    0.1414    2.4468 P.3       1 <0>         2.1715
     25 O12        -1.7276   -1.1170    2.6052 O.2       1 <0>        -1.2158
     26 O13        -2.6767    0.9397    3.7946 O.3       1 <0>        -1.1973
     27 O14        -4.0998   -0.3162    2.0791 O.3       1 <0>        -1.2004
     28 O15        -0.7038    1.5592   -1.1497 O.3       1 <0>        -0.7345
     29 P4         -1.3394    0.5758   -2.2547 P.3       1 <0>         2.2023
     30 O16        -0.2476   -0.3829   -2.7799 O.2       1 <0>        -1.1192
     31 O17        -2.4824   -0.2452   -1.6170 O.3       1 <0>        -1.0943
     32 O18        -1.9218    1.4470   -3.4770 O.3       1 <0>        -0.8937
     33 H5         -1.2768    3.4701    0.3922 H         1 <0>         0.0444
     34 H6          1.9499    1.2543    0.8802 H         1 <0>         0.0672
     35 H7          3.0085    1.4528   -1.2518 H         1 <0>         0.3628
     36 H8         -1.4691    4.5329    2.5227 H         1 <0>         0.3438
     37 H9         -2.3209    0.9185   -4.1816 H         1 <0>         0.3836
@<TRIPOS>BOND
     1    1    2 1
     2    1   10 1
     3    1    3 1
     4    1   28 1
     5    3    4 1
     6    3    5 1
     7    3   23 1
     8    5    6 1
     9    5   22 1
    10    5   33 1
    11    6    7 1
    12    6    8 1
    13    6   17 1
    14    8    9 1
    15    8   10 1
    16    8   12 1
    17   10   11 1
    18   10   34 1
    19   11   35 1
    20   12   13 1
    21   13   14 2
    22   13   15 1
    23   13   16 1
    24   17   18 1
    25   18   19 2
    26   18   20 1
    27   18   21 1
    28   22   36 1
    29   23   24 1
    30   24   25 2
    31   24   26 1
    32   24   27 1
    33   28   29 1
    34   29   30 2
    35   29   31 1
    36   29   32 1
    37   32   37 1
@<TRIPOS>MOLECULE
ZINC26752503
   36    36     0     0     0
SMALL
USER_CHARGES

@<TRIPOS>ATOM
      1 C1         -0.0127    1.0858    0.0080 C.3       1 <0>         0.1821
      2 H1          0.0021   -0.0041    0.0020 H         1 <0>         0.0401
      3 C2         -0.7288    1.5792    1.2668 C.3       1 <0>         0.1899
      4 H2         -0.2017    1.2182    2.1499 H         1 <0>         0.0485
      5 C3         -0.7496    3.1091    1.2752 C.3       1 <0>         0.0864
      6 C4          0.6858    3.6387    1.2644 C.3       1 <0>         0.1415
      7 H3          0.6710    4.7285    1.2704 H         1 <0>         0.0324
      8 C5          1.4019    3.1452    0.0056 C.3       1 <0>         0.1471
      9 H4          0.8747    3.5063   -0.8775 H         1 <0>         0.0509
     10 C6          1.4227    1.6154   -0.0028 C.3       1 <0>         0.0891
     11 O1          2.0915    1.1546   -1.1786 O.3       1 <0>        -0.5357
     12 O2          2.7426    3.6399   -0.0046 O.3       1 <0>        -0.7403
     13 P1          3.3204    4.5830   -1.1745 P.3       1 <0>         2.1777
     14 O3          3.1144    3.8818   -2.5602 O.2       1 <0>        -1.2065
     15 O4          2.5602    5.9529   -1.1642 O.3       1 <0>        -1.2156
     16 O5          4.8488    4.8322   -0.9373 O.3       1 <0>        -1.2060
     17 O6          1.3769    3.1653    2.4221 O.3       1 <0>        -0.7369
     18 P2          2.0125    4.1487    3.5271 P.3       1 <0>         2.1712
     19 O7          2.9892    5.1559    2.8299 O.2       1 <0>        -1.1904
     20 O8          0.8659    4.9424    4.2410 O.3       1 <0>        -1.2144
     21 O9          2.8009    3.3046    4.5857 O.3       1 <0>        -1.2119
     22 O10        -1.4185    3.5699    2.4509 O.3       1 <0>        -0.5212
     23 O11        -2.0695    1.0846    1.2770 O.3       1 <0>        -0.7299
     24 P3         -2.6473    0.1414    2.4468 P.3       1 <0>         2.1838
     25 O12        -1.7276   -1.1170    2.6052 O.2       1 <0>        -1.2225
     26 O13        -2.6768    0.9397    3.7946 O.3       1 <0>        -1.2067
     27 O14        -4.0998   -0.3162    2.0791 O.3       1 <0>        -1.2058
     28 O15        -0.7038    1.5592   -1.1497 O.3       1 <0>        -0.7378
     29 P4         -1.3394    0.5758   -2.2547 P.3       1 <0>         2.1717
     30 O16        -0.2323   -0.3964   -2.7872 O.2       1 <0>        -1.2127
     31 O17        -2.4984   -0.2567   -1.6081 O.3       1 <0>        -1.1901
     32 O18        -1.9061    1.4236   -3.4441 O.3       1 <0>        -1.2133
     33 H5         -1.2768    3.4701    0.3922 H         1 <0>         0.0506
     34 H6          1.9499    1.2543    0.8802 H         1 <0>         0.0499
     35 H7          3.0085    1.4528   -1.2518 H         1 <0>         0.3486
     36 H8         -1.4691    4.5329    2.5227 H         1 <0>         0.3363
@<TRIPOS>BOND
     1    1    2 1
     2    1   10 1
     3    1    3 1
     4    1   28 1
     5    3    4 1
     6    3    5 1
     7    3   23 1
     8    5    6 1
     9    5   22 1
    10    5   33 1
    11    6    7 1
    12    6    8 1
    13    6   17 1
    14    8    9 1
    15    8   10 1
    16    8   12 1
    17   10   11 1
    18   10   34 1
    19   11   35 1
    20   12   13 1
    21   13   14 2
    22   13   15 1
    23   13   16 1
    24   17   18 1
    25   18   19 2
    26   18   20 1
    27   18   21 1
    28   22   36 1
    29   23   24 1
    30   24   25 2
    31   24   26 1
    32   24   27 1
    33   28   29 1
    34   29   30 2
    35   29   31 1
    36   29   32 1
@<TRIPOS>MOLECULE
ZINC26752503
   37    37     0     0     0
SMALL
USER_CHARGES

@<TRIPOS>ATOM
      1 C1         -0.0127    1.0858    0.0080 C.3       1 <0>         0.0836
      2 H1          0.0021   -0.0041    0.0020 H         1 <0>         0.0603
      3 C2         -0.7527    1.5927   -1.2315 C.3       1 <0>         0.1949
      4 H2         -1.7753    1.2154   -1.2238 H         1 <0>         0.0468
      5 C3         -0.0366    1.0992   -2.4903 C.3       1 <0>         0.1808
      6 H3         -0.0218    0.0093   -2.4963 H         1 <0>         0.0675
      7 C4          1.3988    1.6288   -2.5012 C.3       1 <0>         0.0925
      8 H4          1.9090    1.2773   -3.3980 H         1 <0>         0.0494
      9 C5          2.1388    1.1220   -1.2617 C.3       1 <0>         0.1362
     10 H5          3.1614    1.4993   -1.2694 H         1 <0>         0.0382
     11 C6          1.4227    1.6154   -0.0028 C.3       1 <0>         0.1516
     12 H6          1.4079    2.7053    0.0031 H         1 <0>         0.0557
     13 O1          2.1138    1.1420    1.1549 O.3       1 <0>        -0.7378
     14 P1          2.7494    2.1254    2.2599 P.3       1 <0>         2.1757
     15 O2          3.7261    3.1326    1.5627 O.2       1 <0>        -1.2159
     16 O3          1.6028    2.9192    2.9738 O.3       1 <0>        -1.2092
     17 O4          3.5378    1.2814    3.3184 O.3       1 <0>        -1.1969
     18 O5          2.1582   -0.3069   -1.2695 O.3       1 <0>        -0.7411
     19 P2          3.5202   -1.1653   -1.2871 P.3       1 <0>         2.1591
     20 O6          4.4021   -0.7205   -2.5032 O.2       1 <0>        -1.2171
     21 O7          4.3076   -0.9228    0.0454 O.3       1 <0>        -1.1789
     22 O8          3.1761   -2.6878   -1.4207 O.3       1 <0>        -1.2012
     23 O9          1.3794    3.0577   -2.4933 O.3       1 <0>        -0.5227
     24 O10        -0.7277    1.5726   -3.6480 O.3       1 <0>        -0.7325
     25 P3         -1.3633    0.5892   -4.7530 P.3       1 <0>         2.1660
     26 O11        -0.2561   -0.3829   -5.2856 O.2       1 <0>        -1.2073
     27 O12        -2.5223   -0.2433   -4.1064 O.3       1 <0>        -1.2074
     28 O13        -1.9299    1.4370   -5.9424 O.3       1 <0>        -1.1983
     29 O14        -0.7721    3.0215   -1.2237 O.3       1 <0>        -0.7079
     30 P4         -2.1340    3.8799   -1.2060 P.3       1 <0>         2.2042
     31 O15        -3.0266    3.4541   -2.3931 O.2       1 <0>        -1.1033
     32 O16        -2.8853    3.6266    0.1200 O.3       1 <0>        -1.1232
     33 O17        -1.7830    5.4460   -1.3333 O.3       1 <0>        -0.8915
     34 O18        -0.6816    1.5467    1.1837 O.3       1 <0>        -0.5483
     35 H7          2.2574    3.4630   -2.4995 H         1 <0>         0.3341
     36 H8         -2.5580    6.0243   -1.3294 H         1 <0>         0.3803
     37 H9         -0.2663    1.2624    2.0094 H         1 <0>         0.3636
@<TRIPOS>BOND
     1    1    2 1
     2    1   11 1
     3    1    3 1
     4    1   34 1
     5    3    4 1
     6    3    5 1
     7    3   29 1
     8    5    6 1
     9    5    7 1
    10    5   24 1
    11    7    8 1
    12    7    9 1
    13    7   23 1
    14    9   10 1
    15    9   11 1
    16    9   18 1
    17   11   12 1
    18   11   13 1
    19   13   14 1
    20   14   15 2
    21   14   16 1
    22   14   17 1
    23   18   19 1
    24   19   20 2
    25   19   21 1
    26   19   22 1
    27   23   35 1
    28   24   25 1
    29   25   26 2
    30   25   27 1
    31   25   28 1
    32   29   30 1
    33   30   31 2
    34   30   32 1
    35   30   33 1
    36   33   36 1
    37   34   37 1
@<TRIPOS>MOLECULE
ZINC26752503
   37    37     0     0     0
SMALL
USER_CHARGES

@<TRIPOS>ATOM
      1 C1         -0.0127    1.0858    0.0080 C.3       1 <0>         0.0839
      2 H1          0.0021   -0.0041    0.0020 H         1 <0>         0.0666
      3 C2         -0.7527    1.5927   -1.2315 C.3       1 <0>         0.1900
      4 H2         -1.7753    1.2154   -1.2238 H         1 <0>         0.0573
      5 C3         -0.0366    1.0992   -2.4903 C.3       1 <0>         0.1825
      6 H3         -0.0218    0.0093   -2.4963 H         1 <0>         0.0657
      7 C4          1.3988    1.6288   -2.5012 C.3       1 <0>         0.0909
      8 H4          1.3840    2.7187   -2.4952 H         1 <0>         0.0442
      9 C5          2.1388    1.1220   -1.2617 C.3       1 <0>         0.1357
     10 H5          3.1614    1.4993   -1.2694 H         1 <0>         0.0377
     11 C6          1.4227    1.6154   -0.0028 C.3       1 <0>         0.1461
     12 H6          1.4079    2.7053    0.0031 H         1 <0>         0.0449
     13 O1          2.1138    1.1420    1.1549 O.3       1 <0>        -0.7333
     14 P1          2.7494    2.1254    2.2599 P.3       1 <0>         2.1734
     15 O2          3.7261    3.1326    1.5627 O.2       1 <0>        -1.2155
     16 O3          1.6028    2.9192    2.9738 O.3       1 <0>        -1.2084
     17 O4          3.5378    1.2814    3.3184 O.3       1 <0>        -1.1947
     18 O5          2.1582   -0.3069   -1.2695 O.3       1 <0>        -0.7344
     19 P2          3.5202   -1.1653   -1.2871 P.3       1 <0>         2.1655
     20 O6          4.4021   -0.7205   -2.5032 O.2       1 <0>        -1.2131
     21 O7          4.3076   -0.9228    0.0454 O.3       1 <0>        -1.1852
     22 O8          3.1761   -2.6878   -1.4207 O.3       1 <0>        -1.2057
     23 O9          2.0677    1.1680   -3.6769 O.3       1 <0>        -0.5213
     24 O10        -0.7277    1.5726   -3.6480 O.3       1 <0>        -0.7376
     25 P3         -1.3633    0.5892   -4.7530 P.3       1 <0>         2.1723
     26 O11        -0.2561   -0.3829   -5.2856 O.2       1 <0>        -1.1967
     27 O12        -2.5223   -0.2433   -4.1064 O.3       1 <0>        -1.2130
     28 O13        -1.9299    1.4370   -5.9424 O.3       1 <0>        -1.2040
     29 O14        -0.7721    3.0215   -1.2237 O.3       1 <0>        -0.7350
     30 P4         -2.1340    3.8799   -1.2060 P.3       1 <0>         2.2022
     31 O15        -3.0266    3.4541   -2.3931 O.2       1 <0>        -1.0968
     32 O16        -2.8853    3.6266    0.1200 O.3       1 <0>        -1.1161
     33 O17        -1.7830    5.4460   -1.3333 O.3       1 <0>        -0.8942
     34 O18        -0.6816    1.5467    1.1837 O.3       1 <0>        -0.5487
     35 H7          2.9846    1.4662   -3.7502 H         1 <0>         0.3454
     36 H8         -2.5580    6.0243   -1.3294 H         1 <0>         0.3840
     37 H9         -0.2663    1.2624    2.0094 H         1 <0>         0.3655
@<TRIPOS>BOND
     1    1    2 1
     2    1   11 1
     3    1    3 1
     4    1   34 1
     5    3    4 1
     6    3    5 1
     7    3   29 1
     8    5    6 1
     9    5    7 1
    10    5   24 1
    11    7    8 1
    12    7    9 1
    13    7   23 1
    14    9   10 1
    15    9   11 1
    16    9   18 1
    17   11   12 1
    18   11   13 1
    19   13   14 1
    20   14   15 2
    21   14   16 1
    22   14   17 1
    23   18   19 1
    24   19   20 2
    25   19   21 1
    26   19   22 1
    27   23   35 1
    28   24   25 1
    29   25   26 2
    30   25   27 1
    31   25   28 1
    32   29   30 1
    33   30   31 2
    34   30   32 1
    35   30   33 1
    36   33   36 1
    37   34   37 1
@<TRIPOS>MOLECULE
ZINC71789371
   39    39     0     0     0
SMALL
USER_CHARGES

@<TRIPOS>ATOM
      1 C1         -0.0127    1.0858    0.0080 C.3       1 <0>         0.1931
      2 H1          0.0021   -0.0041    0.0020 H         1 <0>         0.0598
      3 C2         -0.7288    1.5792    1.2668 C.3       1 <0>         0.1904
      4 H2         -0.2017    1.2182    2.1499 H         1 <0>         0.0677
      5 C3         -0.7496    3.1091    1.2752 C.3       1 <0>         0.0902
      6 C4          0.6858    3.6387    1.2644 C.3       1 <0>         0.1480
      7 H3          1.2130    3.2776    2.1474 H         1 <0>         0.0563
      8 C5          1.4019    3.1452    0.0056 C.3       1 <0>         0.1403
      9 H4          2.4245    3.5225   -0.0022 H         1 <0>         0.0444
     10 C6          1.4227    1.6154   -0.0028 C.3       1 <0>         0.0677
     11 O1          2.1138    1.1420    1.1549 O.3       1 <0>        -0.5629
     12 O2          0.7108    3.6186   -1.1521 O.3       1 <0>        -0.7058
     13 P1          1.3994    4.5629   -2.2595 P.3       1 <0>         2.1503
     14 O3          1.9898    5.8371   -1.5650 O.2       1 <0>        -1.1902
     15 O4          2.5510    3.7764   -2.9734 O.3       1 <0>        -1.2102
     16 O5          0.3275    4.9942   -3.3175 O.3       1 <0>        -1.1870
     17 O6          0.6664    5.0675    1.2722 O.3       1 <0>        -0.7288
     18 P2          1.3407    5.9472    2.4399 P.3       1 <0>         2.2210
     19 O7          0.7696    5.5117    3.8079 O.2       1 <0>        -1.1181
     20 O8          2.8706    5.7322    2.4285 O.3       1 <0>        -1.1202
     21 O9          1.0158    7.5048    2.1941 O.3       1 <0>        -0.8873
     22 O10        -1.4185    3.5699    2.4509 O.3       1 <0>        -0.5446
     23 O11        -2.0695    1.0846    1.2770 O.3       1 <0>        -0.7290
     24 P3         -2.6473    0.1414    2.4468 P.3       1 <0>         2.2214
     25 O12        -1.7404   -1.0996    2.6030 O.2       1 <0>        -1.1257
     26 O13        -2.6763    0.9287    3.7759 O.3       1 <0>        -1.1110
     27 O14        -4.1400   -0.3289    2.0690 O.3       1 <0>        -0.8877
     28 O15        -0.7038    1.5592   -1.1497 O.3       1 <0>        -0.6980
     29 P4         -1.3394    0.5758   -2.2547 P.3       1 <0>         2.2207
     30 O16        -0.2476   -0.3829   -2.7799 O.2       1 <0>        -1.1313
     31 O17        -2.4824   -0.2452   -1.6170 O.3       1 <0>        -1.1117
     32 O18        -1.9218    1.4470   -3.4770 O.3       1 <0>        -0.8796
     33 H5         -1.2768    3.4701    0.3922 H         1 <0>         0.0857
     34 H6          1.9329    1.2639   -0.8996 H         1 <0>         0.0765
     35 H7          3.0320    1.4395    1.2138 H         1 <0>         0.3692
     36 H8          1.3919    8.0951    2.8613 H         1 <0>         0.3905
     37 H9         -1.4691    4.5329    2.5227 H         1 <0>         0.3578
     38 H10        -4.5514   -0.9014    2.7308 H         1 <0>         0.3900
     39 H11        -2.3209    0.9185   -4.1816 H         1 <0>         0.3881
@<TRIPOS>BOND
     1    1    2 1
     2    1   10 1
     3    1    3 1
     4    1   28 1
     5    3    4 1
     6    3    5 1
     7    3   23 1
     8    5    6 1
     9    5   22 1
    10    5   33 1
    11    6    7 1
    12    6    8 1
    13    6   17 1
    14    8    9 1
    15    8   10 1
    16    8   12 1
    17   10   11 1
    18   10   34 1
    19   11   35 1
    20   12   13 1
    21   13   14 2
    22   13   15 1
    23   13   16 1
    24   17   18 1
    25   18   19 2
    26   18   20 1
    27   18   21 1
    28   21   36 1
    29   22   37 1
    30   23   24 1
    31   24   25 2
    32   24   26 1
    33   24   27 1
    34   27   38 1
    35   28   29 1
    36   29   30 2
    37   29   31 1
    38   29   32 1
    39   32   39 1
@<TRIPOS>MOLECULE
ZINC71789371
   37    37     0     0     0
SMALL
USER_CHARGES

@<TRIPOS>ATOM
      1 C1         -0.0127    1.0858    0.0080 C.3       1 <0>         0.0678
      2 H1          0.0021   -0.0041    0.0020 H         1 <0>         0.0590
      3 C2         -0.7288    1.5792    1.2668 C.3       1 <0>         0.1985
      4 H2         -1.7514    1.2020    1.2746 H         1 <0>         0.0478
      5 C3         -0.7496    3.1091    1.2752 C.3       1 <0>         0.1852
      6 H3         -1.2768    3.4701    0.3922 H         1 <0>         0.0463
      7 C4          0.6858    3.6387    1.2644 C.3       1 <0>         0.0966
      8 H4          1.2130    3.2776    2.1474 H         1 <0>         0.0657
      9 C5          1.4019    3.1452    0.0056 C.3       1 <0>         0.1427
     10 H5          0.8747    3.5063   -0.8775 H         1 <0>         0.0345
     11 C6          1.4227    1.6154   -0.0028 C.3       1 <0>         0.1494
     12 H6          1.9329    1.2639   -0.8996 H         1 <0>         0.0306
     13 O1          2.1138    1.1420    1.1549 O.3       1 <0>        -0.7071
     14 P1          3.4392    0.2315    1.0737 P.3       1 <0>         2.1578
     15 O2          3.1483   -1.0376    0.2024 O.2       1 <0>        -1.2240
     16 O3          4.6007    1.0570    0.4226 O.3       1 <0>        -1.1837
     17 O4          3.8581   -0.2107    2.5171 O.3       1 <0>        -1.1989
     18 O5          2.7426    3.6399   -0.0046 O.3       1 <0>        -0.7312
     19 P2          3.3204    4.5830   -1.1745 P.3       1 <0>         2.1741
     20 O6          3.1144    3.8818   -2.5602 O.2       1 <0>        -1.2172
     21 O7          2.5602    5.9529   -1.1642 O.3       1 <0>        -1.2075
     22 O8          4.8488    4.8322   -0.9373 O.3       1 <0>        -1.1961
     23 O9          0.6664    5.0675    1.2722 O.3       1 <0>        -0.5436
     24 O10        -1.4185    3.5699    2.4509 O.3       1 <0>        -0.7345
     25 P3         -2.7450    4.4811    2.4049 P.3       1 <0>         2.1776
     26 O11        -2.4707    5.7595    1.5419 O.2       1 <0>        -1.2029
     27 O12        -3.9189    3.6626    1.7673 O.3       1 <0>        -1.2155
     28 O13        -3.1363    4.9078    3.8607 O.3       1 <0>        -1.2041
     29 O14        -0.0377    1.1059    2.4245 O.3       1 <0>        -0.6962
     30 P4         -0.7263    0.1615    3.5318 P.3       1 <0>         2.2154
     31 O15        -2.0124    0.8375    4.0573 O.2       1 <0>        -1.1034
     32 O16        -1.0832   -1.2009    2.8967 O.3       1 <0>        -1.1387
     33 O17         0.2972   -0.0674    4.7534 O.3       1 <0>        -0.8786
     34 O18        -0.7038    1.5592   -1.1497 O.3       1 <0>        -0.5600
     35 H7          1.5444    5.4728    1.2660 H         1 <0>         0.3559
     36 H8         -0.0521   -0.6285    5.4592 H         1 <0>         0.3790
     37 H9         -0.3044    1.2838   -1.9862 H         1 <0>         0.3595
@<TRIPOS>BOND
     1    1    2 1
     2    1   11 1
     3    1    3 1
     4    1   34 1
     5    3    4 1
     6    3    5 1
     7    3   29 1
     8    5    6 1
     9    5    7 1
    10    5   24 1
    11    7    8 1
    12    7    9 1
    13    7   23 1
    14    9   10 1
    15    9   11 1
    16    9   18 1
    17   11   12 1
    18   11   13 1
    19   13   14 1
    20   14   15 2
    21   14   16 1
    22   14   17 1
    23   18   19 1
    24   19   20 2
    25   19   21 1
    26   19   22 1
    27   23   35 1
    28   24   25 1
    29   25   26 2
    30   25   27 1
    31   25   28 1
    32   29   30 1
    33   30   31 2
    34   30   32 1
    35   30   33 1
    36   33   36 1
    37   34   37 1
@<TRIPOS>MOLECULE
ZINC71789372
   39    39     0     0     0
SMALL
USER_CHARGES

@<TRIPOS>ATOM
      1 C1         -0.0127    1.0858    0.0080 C.3       1 <0>         0.0894
      2 H1          0.0021   -0.0041    0.0020 H         1 <0>         0.0596
      3 C2         -0.7288    1.5792    1.2668 C.3       1 <0>         0.1825
      4 H2         -0.7436    2.6691    1.2728 H         1 <0>         0.0777
      5 C3          0.0111    1.0724    2.5063 C.3       1 <0>         0.1815
      6 H3         -0.4990    1.4239    3.4031 H         1 <0>         0.0747
      7 C4          1.4465    1.6020    2.4955 C.3       1 <0>         0.0821
      8 H4          1.9737    1.2409    3.3785 H         1 <0>         0.0688
      9 C5          2.1627    1.1086    1.2367 C.3       1 <0>         0.1403
     10 H5          2.1775    0.0187    1.2307 H         1 <0>         0.0701
     11 C6          1.4227    1.6154   -0.0028 C.3       1 <0>         0.1357
     12 H6          1.4079    2.7053    0.0031 H         1 <0>         0.0586
     13 O1          2.0915    1.1546   -1.1786 O.3       1 <0>        -0.7377
     14 P1          2.7060    2.1498   -2.2849 P.3       1 <0>         2.1583
     15 O2          1.5890    3.1275   -2.7857 O.2       1 <0>        -1.2015
     16 O3          3.8772    2.9755   -1.6516 O.3       1 <0>        -1.1892
     17 O4          3.2498    1.3149   -3.4939 O.3       1 <0>        -1.1915
     18 O5          3.5033    1.6032    1.2265 O.3       1 <0>        -0.7355
     19 P2          4.7932    0.6399    1.2090 P.3       1 <0>         2.2146
     20 O6          4.7174   -0.3440    2.3978 O.2       1 <0>        -1.1302
     21 O7          4.8249   -0.1544   -0.1158 O.3       1 <0>        -1.0891
     22 O8          6.1292    1.5297    1.3333 O.3       1 <0>        -0.8908
     23 O9          1.4272    3.0308    2.5033 O.3       1 <0>        -0.5559
     24 O10         0.0305   -0.3564    2.4985 O.3       1 <0>        -0.7359
     25 P3         -0.6215   -1.2487    3.6693 P.3       1 <0>         2.2118
     26 O11        -0.0243   -0.8278    5.0307 O.2       1 <0>        -1.1206
     27 O12        -2.1513   -1.0337    3.6894 O.3       1 <0>        -1.0975
     28 O13        -0.3015   -2.8035    3.4006 O.3       1 <0>        -0.8911
     29 O14        -2.0695    1.0846    1.2770 O.3       1 <0>        -0.7305
     30 P4         -3.3594    2.0479    1.2944 P.3       1 <0>         2.2166
     31 O15        -3.2607    3.0190    2.4920 O.2       1 <0>        -1.1241
     32 O16        -3.4163    2.8564   -0.0209 O.3       1 <0>        -1.1050
     33 O17        -4.6929    1.1566    1.4347 O.3       1 <0>        -0.8886
     34 O18        -0.7038    1.5592   -1.1497 O.3       1 <0>        -0.5377
     35 H7          6.9471    1.0139    1.3294 H         1 <0>         0.3907
     36 H8          2.3051    3.4361    2.4971 H         1 <0>         0.3801
     37 H9         -0.6648   -3.4010    4.0685 H         1 <0>         0.3962
     38 H10        -5.5107    1.6724    1.4519 H         1 <0>         0.3911
     39 H11        -0.3044    1.2838   -1.9862 H         1 <0>         0.3719
@<TRIPOS>BOND
     1    1    2 1
     2    1   11 1
     3    1    3 1
     4    1   34 1
     5    3    4 1
     6    3    5 1
     7    3   29 1
     8    5    6 1
     9    5    7 1
    10    5   24 1
    11    7    8 1
    12    7    9 1
    13    7   23 1
    14    9   10 1
    15    9   11 1
    16    9   18 1
    17   11   12 1
    18   11   13 1
    19   13   14 1
    20   14   15 2
    21   14   16 1
    22   14   17 1
    23   18   19 1
    24   19   20 2
    25   19   21 1
    26   19   22 1
    27   22   35 1
    28   23   36 1
    29   24   25 1
    30   25   26 2
    31   25   27 1
    32   25   28 1
    33   28   37 1
    34   29   30 1
    35   30   31 2
    36   30   32 1
    37   30   33 1
    38   33   38 1
    39   34   39 1
@<TRIPOS>MOLECULE
ZINC71789372
   37    37     0     0     0
SMALL
USER_CHARGES

@<TRIPOS>ATOM
      1 C1         -0.0127    1.0858    0.0080 C.3       1 <0>         0.0860
      2 H1          0.0021   -0.0041    0.0020 H         1 <0>         0.0613
      3 C2         -0.7288    1.5792    1.2668 C.3       1 <0>         0.1923
      4 H2         -0.7436    2.6691    1.2728 H         1 <0>         0.0588
      5 C3          0.0111    1.0724    2.5063 C.3       1 <0>         0.1791
      6 H3         -0.4990    1.4239    3.4031 H         1 <0>         0.0486
      7 C4          1.4465    1.6020    2.4955 C.3       1 <0>         0.0807
      8 H4          1.9737    1.2409    3.3785 H         1 <0>         0.0607
      9 C5          2.1627    1.1086    1.2367 C.3       1 <0>         0.1384
     10 H5          2.1775    0.0187    1.2307 H         1 <0>         0.0585
     11 C6          1.4227    1.6154   -0.0028 C.3       1 <0>         0.1475
     12 H6          1.4079    2.7053    0.0031 H         1 <0>         0.0432
     13 O1          2.0915    1.1546   -1.1786 O.3       1 <0>        -0.7374
     14 P1          2.7060    2.1498   -2.2849 P.3       1 <0>         2.1736
     15 O2          1.5890    3.1275   -2.7857 O.2       1 <0>        -1.2172
     16 O3          3.8772    2.9755   -1.6516 O.3       1 <0>        -1.1860
     17 O4          3.2497    1.3149   -3.4939 O.3       1 <0>        -1.2052
     18 O5          3.5033    1.6032    1.2265 O.3       1 <0>        -0.7407
     19 P2          4.7932    0.6399    1.2090 P.3       1 <0>         2.1716
     20 O6          4.7163   -0.3578    2.4144 O.2       1 <0>        -1.2191
     21 O7          4.8253   -0.1655   -0.1343 O.3       1 <0>        -1.1834
     22 O8          6.0933    1.5058    1.3300 O.3       1 <0>        -1.2048
     23 O9          1.4272    3.0308    2.5033 O.3       1 <0>        -0.5711
     24 O10         0.0305   -0.3564    2.4985 O.3       1 <0>        -0.7336
     25 P3         -0.6215   -1.2487    3.6693 P.3       1 <0>         2.1639
     26 O11        -0.0160   -0.8219    5.0498 O.2       1 <0>        -1.2115
     27 O12        -2.1727   -1.0307    3.6897 O.3       1 <0>        -1.1921
     28 O13        -0.3101   -2.7617    3.4079 O.3       1 <0>        -1.1943
     29 O14        -2.0695    1.0846    1.2770 O.3       1 <0>        -0.7264
     30 P4         -3.3594    2.0479    1.2944 P.3       1 <0>         2.2241
     31 O15        -3.2607    3.0190    2.4920 O.2       1 <0>        -1.1325
     32 O16        -3.4163    2.8564   -0.0209 O.3       1 <0>        -1.1161
     33 O17        -4.6929    1.1566    1.4347 O.3       1 <0>        -0.8836
     34 O18        -0.7038    1.5592   -1.1497 O.3       1 <0>        -0.5481
     35 H7          2.3051    3.4361    2.4971 H         1 <0>         0.3722
     36 H8         -5.5107    1.6724    1.4519 H         1 <0>         0.3803
     37 H9         -0.3044    1.2838   -1.9862 H         1 <0>         0.3625
@<TRIPOS>BOND
     1    1    2 1
     2    1   11 1
     3    1    3 1
     4    1   34 1
     5    3    4 1
     6    3    5 1
     7    3   29 1
     8    5    6 1
     9    5    7 1
    10    5   24 1
    11    7    8 1
    12    7    9 1
    13    7   23 1
    14    9   10 1
    15    9   11 1
    16    9   18 1
    17   11   12 1
    18   11   13 1
    19   13   14 1
    20   14   15 2
    21   14   16 1
    22   14   17 1
    23   18   19 1
    24   19   20 2
    25   19   21 1
    26   19   22 1
    27   23   35 1
    28   24   25 1
    29   25   26 2
    30   25   27 1
    31   25   28 1
    32   29   30 1
    33   30   31 2
    34   30   32 1
    35   30   33 1
    36   33   36 1
    37   34   37 1
@<TRIPOS>MOLECULE
ZINC71789375
   39    39     0     0     0
SMALL
USER_CHARGES

@<TRIPOS>ATOM
      1 C1         -0.0127    1.0858    0.0080 C.3       1 <0>         0.0885
      2 H1          0.0021   -0.0041    0.0020 H         1 <0>         0.0653
      3 C2         -0.7288    1.5792    1.2668 C.3       1 <0>         0.1786
      4 H2         -0.7436    2.6691    1.2728 H         1 <0>         0.0676
      5 C3          0.0111    1.0724    2.5063 C.3       1 <0>         0.1830
      6 H3         -0.4990    1.4239    3.4031 H         1 <0>         0.0731
      7 C4          1.4465    1.6020    2.4955 C.3       1 <0>         0.0770
      8 H4          1.4318    2.6919    2.5015 H         1 <0>         0.0643
      9 C5          2.1627    1.1086    1.2367 C.3       1 <0>         0.1414
     10 H5          2.1775    0.0187    1.2307 H         1 <0>         0.0744
     11 C6          1.4227    1.6154   -0.0028 C.3       1 <0>         0.1301
     12 H6          1.4079    2.7053    0.0031 H         1 <0>         0.0498
     13 O1          2.0915    1.1545   -1.1786 O.3       1 <0>        -0.7333
     14 P1          2.7060    2.1498   -2.2849 P.3       1 <0>         2.1559
     15 O2          1.5890    3.1275   -2.7857 O.2       1 <0>        -1.2007
     16 O3          3.8772    2.9755   -1.6516 O.3       1 <0>        -1.1884
     17 O4          3.2498    1.3149   -3.4939 O.3       1 <0>        -1.1894
     18 O5          3.5033    1.6032    1.2265 O.3       1 <0>        -0.7368
     19 P2          4.7932    0.6399    1.2090 P.3       1 <0>         2.2099
     20 O6          4.7174   -0.3440    2.3978 O.2       1 <0>        -1.1209
     21 O7          4.8249   -0.1544   -0.1158 O.3       1 <0>        -1.0902
     22 O8          6.1292    1.5297    1.3333 O.3       1 <0>        -0.8919
     23 O9          2.1377    1.1286    3.6532 O.3       1 <0>        -0.5312
     24 O10         0.0305   -0.3564    2.4985 O.3       1 <0>        -0.7301
     25 P3         -0.6215   -1.2487    3.6693 P.3       1 <0>         2.2127
     26 O11        -0.0243   -0.8278    5.0307 O.2       1 <0>        -1.1120
     27 O12        -2.1513   -1.0337    3.6894 O.3       1 <0>        -1.1052
     28 O13        -0.3015   -2.8035    3.4006 O.3       1 <0>        -0.8934
     29 O14        -2.0695    1.0846    1.2770 O.3       1 <0>        -0.7250
     30 P4         -3.3594    2.0479    1.2944 P.3       1 <0>         2.2176
     31 O15        -3.2607    3.0190    2.4920 O.2       1 <0>        -1.1250
     32 O16        -3.4163    2.8564   -0.0209 O.3       1 <0>        -1.1040
     33 O17        -4.6929    1.1566    1.4347 O.3       1 <0>        -0.8876
     34 O18        -0.7038    1.5592   -1.1497 O.3       1 <0>        -0.5380
     35 H7          6.9471    1.0139    1.3294 H         1 <0>         0.3905
     36 H8          3.0559    1.4261    3.7121 H         1 <0>         0.3642
     37 H9         -0.6648   -3.4010    4.0685 H         1 <0>         0.3939
     38 H10        -5.5107    1.6724    1.4519 H         1 <0>         0.3918
     39 H11        -0.3044    1.2838   -1.9862 H         1 <0>         0.3736
@<TRIPOS>BOND
     1    1    2 1
     2    1   11 1
     3    1    3 1
     4    1   34 1
     5    3    4 1
     6    3    5 1
     7    3   29 1
     8    5    6 1
     9    5    7 1
    10    5   24 1
    11    7    8 1
    12    7    9 1
    13    7   23 1
    14    9   10 1
    15    9   11 1
    16    9   18 1
    17   11   12 1
    18   11   13 1
    19   13   14 1
    20   14   15 2
    21   14   16 1
    22   14   17 1
    23   18   19 1
    24   19   20 2
    25   19   21 1
    26   19   22 1
    27   22   35 1
    28   23   36 1
    29   24   25 1
    30   25   26 2
    31   25   27 1
    32   25   28 1
    33   28   37 1
    34   29   30 1
    35   30   31 2
    36   30   32 1
    37   30   33 1
    38   33   38 1
    39   34   39 1
@<TRIPOS>MOLECULE
ZINC71789374
   39    39     0     0     0
SMALL
USER_CHARGES

@<TRIPOS>ATOM
      1 C1         -0.0127    1.0858    0.0080 C.3       1 <0>         0.0823
      2 H1          0.0021   -0.0041    0.0020 H         1 <0>         0.0501
      3 C2         -0.7288    1.5792    1.2668 C.3       1 <0>         0.1804
      4 H2         -0.7436    2.6691    1.2728 H         1 <0>         0.0864
      5 C3          0.0111    1.0724    2.5063 C.3       1 <0>         0.1887
      6 H3          0.0259   -0.0175    2.5003 H         1 <0>         0.0593
      7 C4          1.4465    1.6020    2.4955 C.3       1 <0>         0.0835
      8 H4          1.4318    2.6919    2.5015 H         1 <0>         0.0817
      9 C5          2.1627    1.1086    1.2367 C.3       1 <0>         0.1406
     10 H5          2.1775    0.0187    1.2307 H         1 <0>         0.0560
     11 C6          1.4227    1.6154   -0.0028 C.3       1 <0>         0.1266
     12 H6          1.9329    1.2639   -0.8996 H         1 <0>         0.0573
     13 O1          1.4033    3.0442    0.0050 O.3       1 <0>        -0.7277
     14 P1          2.0553    3.9365   -1.1659 P.3       1 <0>         2.1528
     15 O2          3.5567    3.5318   -1.3563 O.2       1 <0>        -1.1884
     16 O3          1.2755    3.6941   -2.5029 O.3       1 <0>        -1.1978
     17 O4          1.9681    5.4518   -0.7778 O.3       1 <0>        -1.1916
     18 O5          3.5033    1.6032    1.2265 O.3       1 <0>        -0.7254
     19 P2          4.7932    0.6399    1.2090 P.3       1 <0>         2.2199
     20 O6          4.7174   -0.3440    2.3978 O.2       1 <0>        -1.1167
     21 O7          4.8249   -0.1544   -0.1158 O.3       1 <0>        -1.1181
     22 O8          6.1292    1.5297    1.3333 O.3       1 <0>        -0.8864
     23 O9          2.1377    1.1286    3.6532 O.3       1 <0>        -0.5375
     24 O10        -0.6577    1.5332    3.6820 O.3       1 <0>        -0.7281
     25 P3         -1.2722    0.5380    4.7884 P.3       1 <0>         2.2166
     26 O11        -2.2484   -0.4479    4.1087 O.2       1 <0>        -1.1124
     27 O12        -0.1283   -0.2522    5.4623 O.3       1 <0>        -1.1109
     28 O13        -2.0613    1.3935    5.9008 O.3       1 <0>        -0.8898
     29 O14        -2.0695    1.0846    1.2770 O.3       1 <0>        -0.7358
     30 P4         -3.3594    2.0479    1.2944 P.3       1 <0>         2.2074
     31 O15        -3.2607    3.0190    2.4920 O.2       1 <0>        -1.1091
     32 O16        -3.4163    2.8564   -0.0209 O.3       1 <0>        -1.1021
     33 O17        -4.6929    1.1566    1.4347 O.3       1 <0>        -0.8929
     34 O18        -0.7038    1.5592   -1.1497 O.3       1 <0>        -0.5170
     35 H7          6.9471    1.0139    1.3294 H         1 <0>         0.3918
     36 H8          3.0559    1.4261    3.7121 H         1 <0>         0.3619
     37 H9         -2.4586    0.8573    6.6006 H         1 <0>         0.3908
     38 H10        -5.5107    1.6724    1.4519 H         1 <0>         0.3907
     39 H11        -0.3044    1.2838   -1.9862 H         1 <0>         0.3631
@<TRIPOS>BOND
     1    1    2 1
     2    1   11 1
     3    1    3 1
     4    1   34 1
     5    3    4 1
     6    3    5 1
     7    3   29 1
     8    5    6 1
     9    5    7 1
    10    5   24 1
    11    7    8 1
    12    7    9 1
    13    7   23 1
    14    9   10 1
    15    9   11 1
    16    9   18 1
    17   11   12 1
    18   11   13 1
    19   13   14 1
    20   14   15 2
    21   14   16 1
    22   14   17 1
    23   18   19 1
    24   19   20 2
    25   19   21 1
    26   19   22 1
    27   22   35 1
    28   23   36 1
    29   24   25 1
    30   25   26 2
    31   25   27 1
    32   25   28 1
    33   28   37 1
    34   29   30 1
    35   30   31 2
    36   30   32 1
    37   30   33 1
    38   33   38 1
    39   34   39 1
@<TRIPOS>MOLECULE
ZINC13557565
   34    34     0     0     0
SMALL
USER_CHARGES

@<TRIPOS>ATOM
      1 C1         -0.0127    1.0858    0.0080 C.3       1 <0>         0.0819
      2 H1          0.0021   -0.0041    0.0020 H         1 <0>         0.0517
      3 C2         -0.7288    1.5792    1.2668 C.3       1 <0>         0.0535
      4 H2         -0.2017    1.2182    2.1499 H         1 <0>         0.0618
      5 C3         -0.7496    3.1091    1.2752 C.3       1 <0>         0.1877
      6 H3         -1.2768    3.4701    0.3922 H         1 <0>         0.0788
      7 C4          0.6858    3.6387    1.2644 C.3       1 <0>         0.1714
      8 H4          1.2130    3.2776    2.1474 H         1 <0>         0.0493
      9 C5          1.4019    3.1452    0.0056 C.3       1 <0>         0.0908
     10 H5          2.4245    3.5225   -0.0022 H         1 <0>         0.0642
     11 C6          1.4227    1.6154   -0.0028 C.3       1 <0>         0.1432
     12 H6          1.9499    1.2543    0.8802 H         1 <0>         0.0592
     13 O1          2.0915    1.1546   -1.1786 O.3       1 <0>        -0.7437
     14 P1          3.4181    0.2434   -1.1325 P.3       1 <0>         2.1388
     15 O2          4.5139    0.9595   -0.2719 O.2       1 <0>        -1.1885
     16 O3          3.0760   -1.1450   -0.4923 O.3       1 <0>        -1.1994
     17 O4          3.9552    0.0289   -2.5885 O.3       1 <0>        -1.1819
     18 O5          0.7108    3.6186   -1.1521 O.3       1 <0>        -0.5271
     19 O6          0.6664    5.0675    1.2722 O.3       1 <0>        -0.7196
     20 P2          1.3407    5.9472    2.4399 P.3       1 <0>         2.1507
     21 O7          0.7617    5.5055    3.8271 O.2       1 <0>        -1.1912
     22 O8          2.8921    5.7292    2.4283 O.3       1 <0>        -1.2055
     23 O9          1.0246    7.4629    2.2007 O.3       1 <0>        -1.1841
     24 O10        -1.4185    3.5699    2.4509 O.3       1 <0>        -0.7331
     25 P3         -2.7450    4.4811    2.4049 P.3       1 <0>         2.2214
     26 O11        -2.4745    5.7419    1.5538 O.2       1 <0>        -1.0994
     27 O12        -3.9026    3.6739    1.7761 O.3       1 <0>        -1.1263
     28 O13        -3.1471    4.9196    3.9009 O.3       1 <0>        -0.8903
     29 O14        -2.0695    1.0846    1.2770 O.3       1 <0>        -0.5350
     30 O15        -0.7038    1.5592   -1.1497 O.3       1 <0>        -0.5179
     31 H7          1.1102    3.3433   -1.9887 H         1 <0>         0.3564
     32 H8         -3.9394    5.4719    3.9494 H         1 <0>         0.3886
     33 H9         -2.1327    0.1197    1.2724 H         1 <0>         0.3460
     34 H10        -1.6221    1.2617   -1.2086 H         1 <0>         0.3478
@<TRIPOS>BOND
     1    1    2 1
     2    1   11 1
     3    1    3 1
     4    1   30 1
     5    3    4 1
     6    3    5 1
     7    3   29 1
     8    5    6 1
     9    5    7 1
    10    5   24 1
    11    7    8 1
    12    7    9 1
    13    7   19 1
    14    9   10 1
    15    9   11 1
    16    9   18 1
    17   11   12 1
    18   11   13 1
    19   13   14 1
    20   14   15 2
    21   14   16 1
    22   14   17 1
    23   18   31 1
    24   19   20 1
    25   20   21 2
    26   20   22 1
    27   20   23 1
    28   24   25 1
    29   25   26 2
    30   25   27 1
    31   25   28 1
    32   28   32 1
    33   29   33 1
    34   30   34 1
@<TRIPOS>MOLECULE
ZINC13557565
   33    33     0     0     0
SMALL
USER_CHARGES

@<TRIPOS>ATOM
      1 C1         -0.0127    1.0858    0.0080 C.3       1 <0>         0.0913
      2 H1          0.0021   -0.0041    0.0020 H         1 <0>         0.0556
      3 C2         -0.7288    1.5792    1.2668 C.3       1 <0>         0.1465
      4 H2         -0.2017    1.2182    2.1499 H         1 <0>         0.0562
      5 C3         -0.7496    3.1091    1.2752 C.3       1 <0>         0.0840
      6 C4          0.6858    3.6387    1.2644 C.3       1 <0>         0.0523
      7 H3          1.2130    3.2776    2.1474 H         1 <0>         0.0525
      8 C5          1.4019    3.1452    0.0056 C.3       1 <0>         0.1808
      9 C6          1.4227    1.6154   -0.0028 C.3       1 <0>         0.1742
     10 O1          2.0915    1.1545   -1.1786 O.3       1 <0>        -0.7158
     11 P1          3.4181    0.2434   -1.1325 P.3       1 <0>         2.1590
     12 O2          4.5139    0.9596   -0.2719 O.2       1 <0>        -1.1848
     13 O3          3.0761   -1.1450   -0.4923 O.3       1 <0>        -1.2174
     14 O4          3.9551    0.0289   -2.5885 O.3       1 <0>        -1.1909
     15 O5          2.7426    3.6399   -0.0046 O.3       1 <0>        -0.7322
     16 P2          3.3204    4.5830   -1.1745 P.3       1 <0>         2.1728
     17 O6          3.1144    3.8818   -2.5602 O.2       1 <0>        -1.1875
     18 O7          2.5602    5.9529   -1.1642 O.3       1 <0>        -1.2173
     19 O8          4.8488    4.8322   -0.9373 O.3       1 <0>        -1.1998
     20 O9          0.6664    5.0675    1.2722 O.3       1 <0>        -0.5218
     21 O10        -1.4407    3.5824    0.1175 O.3       1 <0>        -0.5195
     22 O11        -2.0695    1.0846    1.2770 O.3       1 <0>        -0.7481
     23 P3         -2.6473    0.1414    2.4468 P.3       1 <0>         2.1456
     24 O12        -1.7276   -1.1170    2.6052 O.2       1 <0>        -1.1921
     25 O13        -2.6767    0.9397    3.7946 O.3       1 <0>        -1.2032
     26 O14        -4.0998   -0.3162    2.0791 O.3       1 <0>        -1.1877
     27 O15        -0.7038    1.5592   -1.1497 O.3       1 <0>        -0.5211
     28 H4         -1.2598    3.4606    2.1720 H         1 <0>         0.0415
     29 H5          0.8747    3.5063   -0.8775 H         1 <0>         0.0631
     30 H6          1.9499    1.2543    0.8802 H         1 <0>         0.0398
     31 H7          0.2267    5.4507    2.0436 H         1 <0>         0.3308
     32 H8         -1.4926    4.5462    0.0571 H         1 <0>         0.3466
     33 H9         -1.6221    1.2617   -1.2086 H         1 <0>         0.3466
@<TRIPOS>BOND
     1    1    2 1
     2    1    9 1
     3    1    3 1
     4    1   27 1
     5    3    4 1
     6    3    5 1
     7    3   22 1
     8    5    6 1
     9    5   21 1
    10    5   28 1
    11    6    7 1
    12    6    8 1
    13    6   20 1
    14    8    9 1
    15    8   15 1
    16    8   29 1
    17    9   10 1
    18    9   30 1
    19   10   11 1
    20   11   12 2
    21   11   13 1
    22   11   14 1
    23   15   16 1
    24   16   17 2
    25   16   18 1
    26   16   19 1
    27   20   31 1
    28   21   32 1
    29   22   23 1
    30   23   24 2
    31   23   25 1
    32   23   26 1
    33   27   33 1
@<TRIPOS>MOLECULE
ZINC13557565
   34    34     0     0     0
SMALL
USER_CHARGES

@<TRIPOS>ATOM
      1 C1         -0.0127    1.0858    0.0080 C.3       1 <0>         0.0888
      2 H1          0.0021   -0.0041    0.0020 H         1 <0>         0.0612
      3 C2         -0.7288    1.5792    1.2668 C.3       1 <0>         0.1503
      4 H2         -0.2017    1.2182    2.1499 H         1 <0>         0.0731
      5 C3         -0.7496    3.1091    1.2752 C.3       1 <0>         0.0834
      6 C4          0.6858    3.6387    1.2644 C.3       1 <0>         0.0518
      7 H3          1.2130    3.2776    2.1474 H         1 <0>         0.0566
      8 C5          1.4019    3.1452    0.0056 C.3       1 <0>         0.1759
      9 C6          1.4227    1.6154   -0.0028 C.3       1 <0>         0.1714
     10 O1          2.0915    1.1545   -1.1786 O.3       1 <0>        -0.7105
     11 P1          3.4181    0.2434   -1.1325 P.3       1 <0>         2.1517
     12 O2          4.5139    0.9595   -0.2719 O.2       1 <0>        -1.1792
     13 O3          3.0760   -1.1450   -0.4923 O.3       1 <0>        -1.2157
     14 O4          3.9552    0.0289   -2.5885 O.3       1 <0>        -1.1843
     15 O5          2.7426    3.6399   -0.0046 O.3       1 <0>        -0.7273
     16 P2          3.3204    4.5830   -1.1745 P.3       1 <0>         2.1661
     17 O6          3.1144    3.8818   -2.5602 O.2       1 <0>        -1.1840
     18 O7          2.5602    5.9529   -1.1642 O.3       1 <0>        -1.2138
     19 O8          4.8488    4.8322   -0.9373 O.3       1 <0>        -1.1941
     20 O9          0.6664    5.0675    1.2722 O.3       1 <0>        -0.5153
     21 O10        -1.4407    3.5824    0.1175 O.3       1 <0>        -0.5240
     22 O11        -2.0695    1.0846    1.2770 O.3       1 <0>        -0.7465
     23 P3         -2.6473    0.1414    2.4468 P.3       1 <0>         2.1994
     24 O12        -2.4442    0.8330    3.8134 O.2       1 <0>        -1.1157
     25 O13        -4.2180   -0.1146    2.2031 O.3       1 <0>        -0.8944
     26 O14        -1.8976   -1.2095    2.4368 O.3       1 <0>        -1.1027
     27 O15        -0.7038    1.5592   -1.1497 O.3       1 <0>        -0.5107
     28 H4         -1.2598    3.4606    2.1720 H         1 <0>         0.0441
     29 H5          0.8747    3.5063   -0.8775 H         1 <0>         0.0652
     30 H6          1.9499    1.2543    0.8802 H         1 <0>         0.0438
     31 H7          0.2267    5.4507    2.0436 H         1 <0>         0.3332
     32 H8         -1.4926    4.5462    0.0571 H         1 <0>         0.3585
     33 H9         -1.6221    1.2617   -1.2086 H         1 <0>         0.3426
     34 H10        -4.6333   -0.6764    2.8717 H         1 <0>         0.4008
@<TRIPOS>BOND
     1    1    2 1
     2    1    9 1
     3    1    3 1
     4    1   27 1
     5    3    4 1
     6    3    5 1
     7    3   22 1
     8    5    6 1
     9    5   21 1
    10    5   28 1
    11    6    7 1
    12    6    8 1
    13    6   20 1
    14    8    9 1
    15    8   15 1
    16    8   29 1
    17    9   10 1
    18    9   30 1
    19   10   11 1
    20   11   12 2
    21   11   13 1
    22   11   14 1
    23   15   16 1
    24   16   17 2
    25   16   18 1
    26   16   19 1
    27   20   31 1
    28   21   32 1
    29   22   23 1
    30   23   24 2
    31   23   25 1
    32   23   26 1
    33   25   34 1
    34   27   33 1
@<TRIPOS>MOLECULE
ZINC13557565
   34    34     0     0     0
SMALL
USER_CHARGES

@<TRIPOS>ATOM
      1 C1         -0.0127    1.0858    0.0080 C.3       1 <0>         0.0786
      2 H1          0.0021   -0.0041    0.0020 H         1 <0>         0.0496
      3 C2         -0.7288    1.5792    1.2668 C.3       1 <0>         0.0550
      4 H2         -0.2017    1.2182    2.1499 H         1 <0>         0.0555
      5 C3         -0.7496    3.1091    1.2752 C.3       1 <0>         0.1754
      6 H3         -1.2768    3.4701    0.3922 H         1 <0>         0.0719
      7 C4          0.6858    3.6387    1.2644 C.3       1 <0>         0.1810
      8 H4          1.2130    3.2776    2.1474 H         1 <0>         0.0569
      9 C5          1.4019    3.1452    0.0056 C.3       1 <0>         0.0910
     10 H5          2.4245    3.5225   -0.0022 H         1 <0>         0.0588
     11 C6          1.4227    1.6154   -0.0028 C.3       1 <0>         0.1466
     12 H6          1.9499    1.2543    0.8802 H         1 <0>         0.0595
     13 O1          2.0915    1.1546   -1.1786 O.3       1 <0>        -0.7439
     14 P1          3.4181    0.2434   -1.1325 P.3       1 <0>         2.1393
     15 O2          4.5139    0.9596   -0.2719 O.2       1 <0>        -1.1905
     16 O3          3.0760   -1.1450   -0.4923 O.3       1 <0>        -1.1977
     17 O4          3.9551    0.0289   -2.5885 O.3       1 <0>        -1.1818
     18 O5          0.7108    3.6186   -1.1521 O.3       1 <0>        -0.5253
     19 O6          0.6664    5.0675    1.2722 O.3       1 <0>        -0.7171
     20 P2          1.3407    5.9472    2.4399 P.3       1 <0>         2.2066
     21 O7          2.8247    5.5462    2.5951 O.2       1 <0>        -1.1274
     22 O8          1.2437    7.5086    2.0596 O.3       1 <0>        -0.8888
     23 O9          0.5970    5.6939    3.7703 O.3       1 <0>        -1.0893
     24 O10        -1.4185    3.5699    2.4509 O.3       1 <0>        -0.7357
     25 P3         -2.7450    4.4811    2.4049 P.3       1 <0>         2.1690
     26 O11        -2.4707    5.7595    1.5419 O.2       1 <0>        -1.1951
     27 O12        -3.9189    3.6626    1.7673 O.3       1 <0>        -1.2078
     28 O13        -3.1363    4.9078    3.8607 O.3       1 <0>        -1.1927
     29 O14        -2.0695    1.0846    1.2770 O.3       1 <0>        -0.5213
     30 O15        -0.7038    1.5592   -1.1497 O.3       1 <0>        -0.5215
     31 H7          1.1102    3.3433   -1.9887 H         1 <0>         0.3586
     32 H8         -2.1327    0.1197    1.2724 H         1 <0>         0.3404
     33 H9         -1.6221    1.2617   -1.2086 H         1 <0>         0.3520
     34 H10         1.6312    8.0991    2.7201 H         1 <0>         0.3902
@<TRIPOS>BOND
     1    1    2 1
     2    1   11 1
     3    1    3 1
     4    1   30 1
     5    3    4 1
     6    3    5 1
     7    3   29 1
     8    5    6 1
     9    5    7 1
    10    5   24 1
    11    7    8 1
    12    7    9 1
    13    7   19 1
    14    9   10 1
    15    9   11 1
    16    9   18 1
    17   11   12 1
    18   11   13 1
    19   13   14 1
    20   14   15 2
    21   14   16 1
    22   14   17 1
    23   18   31 1
    24   19   20 1
    25   20   21 2
    26   20   22 1
    27   20   23 1
    28   22   34 1
    29   24   25 1
    30   25   26 2
    31   25   27 1
    32   25   28 1
    33   29   32 1
    34   30   33 1
@<TRIPOS>MOLECULE
ZINC26819872
   34    34     0     0     0
SMALL
USER_CHARGES

@<TRIPOS>ATOM
      1 C1         -0.0127    1.0858    0.0080 C.3       1 <0>         0.0738
      2 H1          0.0021   -0.0041    0.0020 H         1 <0>         0.0919
      3 C2         -0.7288    1.5792    1.2668 C.3       1 <0>         0.1618
      4 H2         -0.7436    2.6691    1.2728 H         1 <0>         0.0597
      5 C3          0.0111    1.0724    2.5063 C.3       1 <0>         0.0944
      6 H3         -0.4990    1.4239    3.4031 H         1 <0>         0.0593
      7 C4          1.4465    1.6020    2.4955 C.3       1 <0>         0.1695
      8 H4          1.4318    2.6919    2.5015 H         1 <0>         0.0414
      9 C5          2.1627    1.1086    1.2367 C.3       1 <0>         0.1685
     10 H5          3.1853    1.4858    1.2289 H         1 <0>         0.0533
     11 C6          1.4227    1.6154   -0.0028 C.3       1 <0>         0.0641
     12 H6          1.4079    2.7053    0.0031 H         1 <0>         0.0503
     13 O1          2.0915    1.1545   -1.1786 O.3       1 <0>        -0.5168
     14 O2          2.1820   -0.3203    1.2288 O.3       1 <0>        -0.7078
     15 P1          3.5440   -1.1787    1.2112 P.3       1 <0>         2.1510
     16 O3          4.4259   -0.7339   -0.0049 O.2       1 <0>        -1.2101
     17 O4          4.3314   -0.9362    2.5437 O.3       1 <0>        -1.1762
     18 O5          3.2000   -2.7013    1.0776 O.3       1 <0>        -1.2015
     19 O6          2.1377    1.1286    3.6532 O.3       1 <0>        -0.7031
     20 P2          2.7732    2.1120    4.7582 P.3       1 <0>         2.1563
     21 O7          3.7500    3.1192    4.0610 O.2       1 <0>        -1.2045
     22 O8          1.6267    2.9058    5.4721 O.3       1 <0>        -1.2091
     23 O9          3.5616    1.2680    5.8168 O.3       1 <0>        -1.1784
     24 O10         0.0305   -0.3564    2.4985 O.3       1 <0>        -0.4906
     25 O11        -2.0695    1.0846    1.2770 O.3       1 <0>        -0.7498
     26 P3         -3.3594    2.0479    1.2944 P.3       1 <0>         2.2046
     27 O12        -3.2607    3.0190    2.4920 O.2       1 <0>        -1.1107
     28 O13        -3.4163    2.8564   -0.0209 O.3       1 <0>        -1.1053
     29 O14        -4.6929    1.1566    1.4347 O.3       1 <0>        -0.8965
     30 O15        -0.7038    1.5592   -1.1497 O.3       1 <0>        -0.5539
     31 H7          1.6763    1.4388   -2.0043 H         1 <0>         0.3327
     32 H8         -0.8474   -0.7617    2.5047 H         1 <0>         0.3340
     33 H9         -5.5107    1.6724    1.4519 H         1 <0>         0.3989
     34 H10        -0.3044    1.2838   -1.9862 H         1 <0>         0.3489
@<TRIPOS>BOND
     1    1    2 1
     2    1   11 1
     3    1    3 1
     4    1   30 1
     5    3    4 1
     6    3    5 1
     7    3   25 1
     8    5    6 1
     9    5    7 1
    10    5   24 1
    11    7    8 1
    12    7    9 1
    13    7   19 1
    14    9   10 1
    15    9   11 1
    16    9   14 1
    17   11   12 1
    18   11   13 1
    19   13   31 1
    20   14   15 1
    21   15   16 2
    22   15   17 1
    23   15   18 1
    24   19   20 1
    25   20   21 2
    26   20   22 1
    27   20   23 1
    28   24   32 1
    29   25   26 1
    30   26   27 2
    31   26   28 1
    32   26   29 1
    33   29   33 1
    34   30   34 1
@<TRIPOS>MOLECULE
ZINC26819872
   34    34     0     0     0
SMALL
USER_CHARGES

@<TRIPOS>ATOM
      1 C1         -0.0127    1.0858    0.0080 C.3       1 <0>         0.0744
      2 H1          0.0021   -0.0041    0.0020 H         1 <0>         0.0919
      3 C2         -0.7527    1.5927   -1.2315 C.3       1 <0>         0.0642
      4 H2         -0.7675    2.6825   -1.2255 H         1 <0>         0.0506
      5 C3         -0.0366    1.0992   -2.4903 C.3       1 <0>         0.1685
      6 H3         -0.5637    1.4603   -3.3734 H         1 <0>         0.0533
      7 C4          1.3988    1.6288   -2.5012 C.3       1 <0>         0.1695
      8 H4          1.3840    2.7187   -2.4952 H         1 <0>         0.0411
      9 C5          2.1388    1.1220   -1.2617 C.3       1 <0>         0.0940
     10 H5          3.1614    1.4993   -1.2694 H         1 <0>         0.0603
     11 C6          1.4227    1.6154   -0.0028 C.3       1 <0>         0.1616
     12 H6          1.4079    2.7053    0.0031 H         1 <0>         0.0597
     13 O1          2.1138    1.1420    1.1549 O.3       1 <0>        -0.7497
     14 P1          2.7494    2.1254    2.2599 P.3       1 <0>         2.2048
     15 O2          1.6575    3.0841    2.7850 O.2       1 <0>        -1.1068
     16 O3          3.3317    1.2542    3.4822 O.3       1 <0>        -0.8964
     17 O4          3.8923    2.9464    1.6222 O.3       1 <0>        -1.1093
     18 O5          2.1582   -0.3069   -1.2695 O.3       1 <0>        -0.4906
     19 O6          2.0677    1.1680   -3.6769 O.3       1 <0>        -0.7029
     20 P2          2.6821    2.1632   -4.7832 P.3       1 <0>         2.1561
     21 O7          1.5651    3.1410   -5.2840 O.2       1 <0>        -1.2045
     22 O8          3.8534    2.9889   -4.1499 O.3       1 <0>        -1.2090
     23 O9          3.2259    1.3284   -5.9923 O.3       1 <0>        -1.1783
     24 O10        -0.0172   -0.3296   -2.4982 O.3       1 <0>        -0.7078
     25 P3         -0.6915   -1.2093   -3.6659 P.3       1 <0>         2.1509
     26 O11        -2.1963   -0.8027   -3.8233 O.2       1 <0>        -1.2101
     27 O12         0.0627   -0.9525   -5.0149 O.3       1 <0>        -1.1762
     28 O13        -0.5971   -2.7287   -3.2958 O.3       1 <0>        -1.2014
     29 O14        -2.0933    1.0980   -1.2214 O.3       1 <0>        -0.5167
     30 O15        -0.6816    1.5467    1.1837 O.3       1 <0>        -0.5554
     31 H7          2.6125   -0.6982   -0.5109 H         1 <0>         0.3342
     32 H8         -2.6079    1.3722   -0.4499 H         1 <0>         0.3325
     33 H9         -1.5985    1.2485    1.2570 H         1 <0>         0.3489
     34 H10         3.7309    1.7827    4.1867 H         1 <0>         0.3987
@<TRIPOS>BOND
     1    1    2 1
     2    1   11 1
     3    1    3 1
     4    1   30 1
     5    3    4 1
     6    3    5 1
     7    3   29 1
     8    5    6 1
     9    5    7 1
    10    5   24 1
    11    7    8 1
    12    7    9 1
    13    7   19 1
    14    9   10 1
    15    9   11 1
    16    9   18 1
    17   11   12 1
    18   11   13 1
    19   13   14 1
    20   14   15 2
    21   14   16 1
    22   14   17 1
    23   16   34 1
    24   18   31 1
    25   19   20 1
    26   20   21 2
    27   20   22 1
    28   20   23 1
    29   24   25 1
    30   25   26 2
    31   25   27 1
    32   25   28 1
    33   29   32 1
    34   30   33 1
@<TRIPOS>MOLECULE
ZINC26819872
   34    34     0     0     0
SMALL
USER_CHARGES

@<TRIPOS>ATOM
      1 C1         -0.0127    1.0858    0.0080 C.3       1 <0>         0.0727
      2 H1          0.0021   -0.0041    0.0020 H         1 <0>         0.0860
      3 C2         -0.7527    1.5927   -1.2315 C.3       1 <0>         0.0629
      4 H2         -0.7675    2.6825   -1.2255 H         1 <0>         0.0496
      5 C3         -0.0366    1.0992   -2.4903 C.3       1 <0>         0.1727
      6 H3         -0.5637    1.4603   -3.3734 H         1 <0>         0.0502
      7 C4          1.3988    1.6288   -2.5012 C.3       1 <0>         0.1760
      8 H4          1.3840    2.7187   -2.4952 H         1 <0>         0.0555
      9 C5          2.1388    1.1220   -1.2617 C.3       1 <0>         0.0966
     10 H5          3.1614    1.4993   -1.2694 H         1 <0>         0.0572
     11 C6          1.4227    1.6154   -0.0028 C.3       1 <0>         0.1557
     12 H6          1.4079    2.7053    0.0031 H         1 <0>         0.0461
     13 O1          2.1138    1.1420    1.1549 O.3       1 <0>        -0.7469
     14 P1          2.7494    2.1254    2.2599 P.3       1 <0>         2.1476
     15 O2          3.7261    3.1326    1.5627 O.2       1 <0>        -1.1979
     16 O3          1.6028    2.9192    2.9738 O.3       1 <0>        -1.1892
     17 O4          3.5378    1.2814    3.3184 O.3       1 <0>        -1.1885
     18 O5          2.1582   -0.3069   -1.2695 O.3       1 <0>        -0.5058
     19 O6          2.0677    1.1680   -3.6769 O.3       1 <0>        -0.7110
     20 P2          2.6821    2.1632   -4.7832 P.3       1 <0>         2.2216
     21 O7          3.6584    3.1491   -4.1035 O.2       1 <0>        -1.1247
     22 O8          3.4713    1.3077   -5.8956 O.3       1 <0>        -0.8831
     23 O9          1.5383    2.9535   -5.4571 O.3       1 <0>        -1.1208
     24 O10        -0.0172   -0.3296   -2.4982 O.3       1 <0>        -0.7048
     25 P3         -0.6915   -1.2093   -3.6659 P.3       1 <0>         2.1585
     26 O11        -2.1963   -0.8027   -3.8233 O.2       1 <0>        -1.2067
     27 O12         0.0627   -0.9525   -5.0149 O.3       1 <0>        -1.1920
     28 O13        -0.5971   -2.7287   -3.2958 O.3       1 <0>        -1.1974
     29 O14        -2.0933    1.0980   -1.2214 O.3       1 <0>        -0.5227
     30 O15        -0.6816    1.5467    1.1837 O.3       1 <0>        -0.5376
     31 H7          2.6125   -0.6982   -0.5109 H         1 <0>         0.3504
     32 H8         -2.6079    1.3722   -0.4499 H         1 <0>         0.3395
     33 H9         -1.5985    1.2485    1.2570 H         1 <0>         0.3401
     34 H10         3.8686    1.8439   -6.5954 H         1 <0>         0.3902
@<TRIPOS>BOND
     1    1    2 1
     2    1   11 1
     3    1    3 1
     4    1   30 1
     5    3    4 1
     6    3    5 1
     7    3   29 1
     8    5    6 1
     9    5    7 1
    10    5   24 1
    11    7    8 1
    12    7    9 1
    13    7   19 1
    14    9   10 1
    15    9   11 1
    16    9   18 1
    17   11   12 1
    18   11   13 1
    19   13   14 1
    20   14   15 2
    21   14   16 1
    22   14   17 1
    23   18   31 1
    24   19   20 1
    25   20   21 2
    26   20   22 1
    27   20   23 1
    28   22   34 1
    29   24   25 1
    30   25   26 2
    31   25   27 1
    32   25   28 1
    33   29   32 1
    34   30   33 1
@<TRIPOS>MOLECULE
ZINC26819872
   33    33     0     0     0
SMALL
USER_CHARGES

@<TRIPOS>ATOM
      1 C1         -0.0127    1.0858    0.0080 C.3       1 <0>         0.0761
      2 H1          0.0021   -0.0041    0.0020 H         1 <0>         0.0839
      3 C2         -0.7527    1.5927   -1.2315 C.3       1 <0>         0.0623
      4 H2         -0.7675    2.6825   -1.2255 H         1 <0>         0.0464
      5 C3         -0.0366    1.0992   -2.4903 C.3       1 <0>         0.1758
      6 H3         -0.5637    1.4603   -3.3734 H         1 <0>         0.0456
      7 C4          1.3988    1.6288   -2.5012 C.3       1 <0>         0.1707
      8 H4          1.3840    2.7187   -2.4952 H         1 <0>         0.0373
      9 C5          2.1388    1.1220   -1.2617 C.3       1 <0>         0.0972
     10 H5          3.1614    1.4993   -1.2694 H         1 <0>         0.0542
     11 C6          1.4227    1.6154   -0.0028 C.3       1 <0>         0.1569
     12 H6          1.4079    2.7053    0.0031 H         1 <0>         0.0425
     13 O1          2.1138    1.1420    1.1549 O.3       1 <0>        -0.7513
     14 P1          2.7494    2.1254    2.2599 P.3       1 <0>         2.1540
     15 O2          3.7261    3.1326    1.5627 O.2       1 <0>        -1.1995
     16 O3          1.6028    2.9192    2.9738 O.3       1 <0>        -1.1947
     17 O4          3.5378    1.2814    3.3184 O.3       1 <0>        -1.1944
     18 O5          2.1582   -0.3069   -1.2695 O.3       1 <0>        -0.5013
     19 O6          2.0677    1.1680   -3.6769 O.3       1 <0>        -0.7080
     20 P2          2.6821    2.1632   -4.7832 P.3       1 <0>         2.1628
     21 O7          1.5651    3.1409   -5.2840 O.2       1 <0>        -1.2099
     22 O8          3.8533    2.9889   -4.1499 O.3       1 <0>        -1.2107
     23 O9          3.2259    1.3284   -5.9922 O.3       1 <0>        -1.1847
     24 O10        -0.0172   -0.3296   -2.4982 O.3       1 <0>        -0.7071
     25 P3         -0.6915   -1.2093   -3.6659 P.3       1 <0>         2.1581
     26 O11        -2.1963   -0.8027   -3.8233 O.2       1 <0>        -1.2147
     27 O12         0.0627   -0.9525   -5.0149 O.3       1 <0>        -1.1809
     28 O13        -0.5971   -2.7287   -3.2958 O.3       1 <0>        -1.2053
     29 O14        -2.0933    1.0980   -1.2214 O.3       1 <0>        -0.5234
     30 O15        -0.6816    1.5467    1.1837 O.3       1 <0>        -0.5412
     31 H7          2.6125   -0.6982   -0.5109 H         1 <0>         0.3383
     32 H8         -2.6079    1.3722   -0.4499 H         1 <0>         0.3303
     33 H9         -1.5985    1.2485    1.2570 H         1 <0>         0.3346
@<TRIPOS>BOND
     1    1    2 1
     2    1   11 1
     3    1    3 1
     4    1   30 1
     5    3    4 1
     6    3    5 1
     7    3   29 1
     8    5    6 1
     9    5    7 1
    10    5   24 1
    11    7    8 1
    12    7    9 1
    13    7   19 1
    14    9   10 1
    15    9   11 1
    16    9   18 1
    17   11   12 1
    18   11   13 1
    19   13   14 1
    20   14   15 2
    21   14   16 1
    22   14   17 1
    23   18   31 1
    24   19   20 1
    25   20   21 2
    26   20   22 1
    27   20   23 1
    28   24   25 1
    29   25   26 2
    30   25   27 1
    31   25   28 1
    32   29   32 1
    33   30   33 1
@<TRIPOS>MOLECULE
ZINC26819872
   34    34     0     0     0
SMALL
USER_CHARGES

@<TRIPOS>ATOM
      1 C1         -0.0127    1.0858    0.0080 C.3       1 <0>         0.0771
      2 H1          0.0021   -0.0041    0.0020 H         1 <0>         0.0786
      3 C2         -0.7288    1.5792    1.2668 C.3       1 <0>         0.1511
      4 H2         -0.7436    2.6691    1.2728 H         1 <0>         0.0487
      5 C3          0.0111    1.0724    2.5063 C.3       1 <0>         0.0967
      6 H3         -0.4990    1.4239    3.4031 H         1 <0>         0.0643
      7 C4          1.4465    1.6020    2.4955 C.3       1 <0>         0.1671
      8 H4          1.4318    2.6919    2.5015 H         1 <0>         0.0549
      9 C5          2.1627    1.1086    1.2367 C.3       1 <0>         0.1858
     10 H5          3.1853    1.4858    1.2289 H         1 <0>         0.0621
     11 C6          1.4227    1.6154   -0.0028 C.3       1 <0>         0.0588
     12 H6          1.4079    2.7053    0.0031 H         1 <0>         0.0632
     13 O1          2.0915    1.1545   -1.1786 O.3       1 <0>        -0.5351
     14 O2          2.1820   -0.3203    1.2288 O.3       1 <0>        -0.7073
     15 P1          3.5440   -1.1787    1.2112 P.3       1 <0>         2.1995
     16 O3          4.4365   -0.7529    2.3983 O.2       1 <0>        -1.0915
     17 O4          3.1930   -2.7448    1.3384 O.3       1 <0>        -0.8951
     18 O5          4.2953   -0.9254   -0.1148 O.3       1 <0>        -1.1225
     19 O6          2.1377    1.1286    3.6532 O.3       1 <0>        -0.7159
     20 P2          2.7732    2.1120    4.7582 P.3       1 <0>         2.1508
     21 O7          3.7499    3.1192    4.0610 O.2       1 <0>        -1.2018
     22 O8          1.6267    2.9058    5.4722 O.3       1 <0>        -1.2010
     23 O9          3.5616    1.2680    5.8168 O.3       1 <0>        -1.1801
     24 O10         0.0305   -0.3564    2.4985 O.3       1 <0>        -0.5199
     25 O11        -2.0695    1.0846    1.2770 O.3       1 <0>        -0.7485
     26 P3         -3.3594    2.0479    1.2944 P.3       1 <0>         2.1455
     27 O12        -3.2594    3.0326    2.5088 O.2       1 <0>        -1.1945
     28 O13        -3.4171    2.8677   -0.0393 O.3       1 <0>        -1.1897
     29 O14        -4.6570    1.1806    1.4309 O.3       1 <0>        -1.1888
     30 O15        -0.7038    1.5592   -1.1497 O.3       1 <0>        -0.5336
     31 H7          1.6763    1.4388   -2.0043 H         1 <0>         0.3452
     32 H8         -0.8474   -0.7617    2.5047 H         1 <0>         0.3481
     33 H9         -0.3044    1.2838   -1.9862 H         1 <0>         0.3371
     34 H10         3.9680   -3.3231    1.3346 H         1 <0>         0.3907
@<TRIPOS>BOND
     1    1    2 1
     2    1   11 1
     3    1    3 1
     4    1   30 1
     5    3    4 1
     6    3    5 1
     7    3   25 1
     8    5    6 1
     9    5    7 1
    10    5   24 1
    11    7    8 1
    12    7    9 1
    13    7   19 1
    14    9   10 1
    15    9   11 1
    16    9   14 1
    17   11   12 1
    18   11   13 1
    19   13   31 1
    20   14   15 1
    21   15   16 2
    22   15   17 1
    23   15   18 1
    24   17   34 1
    25   19   20 1
    26   20   21 2
    27   20   22 1
    28   20   23 1
    29   24   32 1
    30   25   26 1
    31   26   27 2
    32   26   28 1
    33   26   29 1
    34   30   33 1
@<TRIPOS>MOLECULE
ZINC26819877
   34    34     0     0     0
SMALL
USER_CHARGES

@<TRIPOS>ATOM
      1 C1         -0.0127    1.0858    0.0080 C.3       1 <0>         0.0934
      2 H1          0.0021   -0.0041    0.0020 H         1 <0>         0.0286
      3 C2         -0.7527    1.5927   -1.2315 C.3       1 <0>         0.1521
      4 H2         -0.2425    1.2411   -2.1283 H         1 <0>         0.0611
      5 C3         -0.7734    3.1225   -1.2231 C.3       1 <0>         0.0997
      6 H3         -1.3006    3.4836   -2.1062 H         1 <0>         0.0456
      7 C4          0.6619    3.6521   -1.2340 C.3       1 <0>         0.1708
      8 H4          1.1721    3.3005   -2.1308 H         1 <0>         0.0339
      9 C5          1.4019    3.1452    0.0056 C.3       1 <0>         0.1757
     10 H5          2.4245    3.5225   -0.0022 H         1 <0>         0.0443
     11 C6          1.4227    1.6154   -0.0028 C.3       1 <0>         0.0517
     12 H6          1.9329    1.2639   -0.8996 H         1 <0>         0.0457
     13 O1          2.1138    1.1420    1.1549 O.3       1 <0>        -0.5172
     14 O2          0.7331    3.6061    1.1813 O.3       1 <0>        -0.6868
     15 P1          1.4428    4.5385    2.2853 P.3       1 <0>         2.1527
     16 O3          2.7568    3.8476    2.7858 O.2       1 <0>        -1.2149
     17 O4          1.7925    5.9270    1.6494 O.3       1 <0>        -1.1819
     18 O5          0.4697    4.7485    3.4951 O.3       1 <0>        -1.2025
     19 O6          0.6426    5.0809   -1.2261 O.3       1 <0>        -0.7034
     20 P2          1.2945    5.9732   -2.3970 P.3       1 <0>         2.1587
     21 O7          2.7960    5.5684   -2.5874 O.2       1 <0>        -1.2063
     22 O8          0.5147    5.7308   -3.7340 O.3       1 <0>        -1.2108
     23 O9          1.2073    7.4885   -2.0089 O.3       1 <0>        -1.1801
     24 O10        -1.4423    3.5833   -0.0474 O.3       1 <0>        -0.4713
     25 O11        -2.0933    1.0980   -1.2214 O.3       1 <0>        -0.7450
     26 P3         -2.6935    0.1674   -2.3901 P.3       1 <0>         2.2041
     27 O12        -2.5164    0.8736   -3.7528 O.2       1 <0>        -1.1081
     28 O13        -1.9439   -1.1834   -2.4088 O.3       1 <0>        -1.1188
     29 O14        -4.2593   -0.0914   -2.1192 O.3       1 <0>        -0.8934
     30 O15        -0.6816    1.5467    1.1837 O.3       1 <0>        -0.4929
     31 H7          2.1657    0.1783    1.2153 H         1 <0>         0.3330
     32 H8         -2.3593    3.2851    0.0259 H         1 <0>         0.3292
     33 H9         -4.6873   -0.6461   -2.7857 H         1 <0>         0.3993
     34 H10        -0.2663    1.2624    2.0094 H         1 <0>         0.3540
@<TRIPOS>BOND
     1    1    2 1
     2    1   11 1
     3    1    3 1
     4    1   30 1
     5    3    4 1
     6    3    5 1
     7    3   25 1
     8    5    6 1
     9    5    7 1
    10    5   24 1
    11    7    8 1
    12    7    9 1
    13    7   19 1
    14    9   10 1
    15    9   11 1
    16    9   14 1
    17   11   12 1
    18   11   13 1
    19   13   31 1
    20   14   15 1
    21   15   16 2
    22   15   17 1
    23   15   18 1
    24   19   20 1
    25   20   21 2
    26   20   22 1
    27   20   23 1
    28   24   32 1
    29   25   26 1
    30   26   27 2
    31   26   28 1
    32   26   29 1
    33   29   33 1
    34   30   34 1
@<TRIPOS>MOLECULE
ZINC26819877
   34    34     0     0     0
SMALL
USER_CHARGES

@<TRIPOS>ATOM
      1 C1         -0.0127    1.0858    0.0080 C.3       1 <0>         0.0938
      2 H1          0.0021   -0.0041    0.0020 H         1 <0>         0.0274
      3 C2         -0.7288    1.5792    1.2668 C.3       1 <0>         0.0517
      4 H2         -0.2017    1.2182    2.1499 H         1 <0>         0.0460
      5 C3         -0.7496    3.1091    1.2752 C.3       1 <0>         0.1757
      6 H3         -1.2598    3.4606    2.1720 H         1 <0>         0.0443
      7 C4          0.6858    3.6387    1.2644 C.3       1 <0>         0.1706
      8 H4          1.2130    3.2776    2.1474 H         1 <0>         0.0336
      9 C5          1.4019    3.1452    0.0056 C.3       1 <0>         0.0993
     10 H5          2.4245    3.5225   -0.0022 H         1 <0>         0.0466
     11 C6          1.4227    1.6154   -0.0028 C.3       1 <0>         0.1521
     12 H6          1.9499    1.2543    0.8802 H         1 <0>         0.0611
     13 O1          2.0915    1.1546   -1.1786 O.3       1 <0>        -0.7448
     14 P1          3.4181    0.2434   -1.1325 P.3       1 <0>         2.2033
     15 O2          3.1476   -1.0174   -0.2815 O.2       1 <0>        -1.1196
     16 O3          3.8202   -0.1951   -2.6285 O.3       1 <0>        -0.8937
     17 O4          4.5757    1.0506   -0.5037 O.3       1 <0>        -1.1064
     18 O5          0.7108    3.6186   -1.1521 O.3       1 <0>        -0.4713
     19 O6          0.6664    5.0675    1.2722 O.3       1 <0>        -0.7032
     20 P2          1.3407    5.9472    2.4399 P.3       1 <0>         2.1585
     21 O7          0.7617    5.5055    3.8271 O.2       1 <0>        -1.2063
     22 O8          2.8921    5.7292    2.4283 O.3       1 <0>        -1.2107
     23 O9          1.0246    7.4629    2.2007 O.3       1 <0>        -1.1800
     24 O10        -1.4407    3.5824    0.1175 O.3       1 <0>        -0.6868
     25 P3         -2.7661    4.4929    0.1987 P.3       1 <0>         2.1527
     26 O11        -3.8454    3.7675    1.0723 O.2       1 <0>        -1.2150
     27 O12        -2.4117    5.8744    0.8471 O.3       1 <0>        -1.1818
     28 O13        -3.3308    4.7229   -1.2444 O.3       1 <0>        -1.2025
     29 O14        -2.0695    1.0846    1.2770 O.3       1 <0>        -0.5172
     30 O15        -0.7038    1.5592   -1.1497 O.3       1 <0>        -0.4930
     31 H7          1.1102    3.3433   -1.9887 H         1 <0>         0.3294
     32 H8         -2.1327    0.1197    1.2724 H         1 <0>         0.3328
     33 H9         -1.6221    1.2617   -1.2086 H         1 <0>         0.3540
     34 H10         4.6125   -0.7474   -2.6770 H         1 <0>         0.3992
@<TRIPOS>BOND
     1    1    2 1
     2    1   11 1
     3    1    3 1
     4    1   30 1
     5    3    4 1
     6    3    5 1
     7    3   29 1
     8    5    6 1
     9    5    7 1
    10    5   24 1
    11    7    8 1
    12    7    9 1
    13    7   19 1
    14    9   10 1
    15    9   11 1
    16    9   18 1
    17   11   12 1
    18   11   13 1
    19   13   14 1
    20   14   15 2
    21   14   16 1
    22   14   17 1
    23   16   34 1
    24   18   31 1
    25   19   20 1
    26   20   21 2
    27   20   22 1
    28   20   23 1
    29   24   25 1
    30   25   26 2
    31   25   27 1
    32   25   28 1
    33   29   32 1
    34   30   33 1
@<TRIPOS>MOLECULE
ZINC26819877
   34    34     0     0     0
SMALL
USER_CHARGES

@<TRIPOS>ATOM
      1 C1         -0.0127    1.0858    0.0080 C.3       1 <0>         0.0893
      2 H1          0.0021   -0.0041    0.0020 H         1 <0>         0.0330
      3 C2         -0.7288    1.5792    1.2668 C.3       1 <0>         0.0520
      4 H2         -0.2017    1.2182    2.1499 H         1 <0>         0.0452
      5 C3         -0.7496    3.1091    1.2752 C.3       1 <0>         0.1796
      6 H3         -1.2598    3.4606    2.1720 H         1 <0>         0.0412
      7 C4          0.6858    3.6387    1.2644 C.3       1 <0>         0.1769
      8 H4          1.2130    3.2776    2.1474 H         1 <0>         0.0482
      9 C5          1.4019    3.1452    0.0056 C.3       1 <0>         0.1012
     10 H5          2.4245    3.5225   -0.0022 H         1 <0>         0.0438
     11 C6          1.4227    1.6154   -0.0028 C.3       1 <0>         0.1492
     12 H6          1.9499    1.2543    0.8802 H         1 <0>         0.0471
     13 O1          2.0915    1.1546   -1.1786 O.3       1 <0>        -0.7428
     14 P1          3.4181    0.2434   -1.1325 P.3       1 <0>         2.1443
     15 O2          4.5139    0.9596   -0.2719 O.2       1 <0>        -1.1940
     16 O3          3.0760   -1.1450   -0.4923 O.3       1 <0>        -1.2011
     17 O4          3.9551    0.0289   -2.5885 O.3       1 <0>        -1.1842
     18 O5          0.7108    3.6186   -1.1521 O.3       1 <0>        -0.4867
     19 O6          0.6664    5.0675    1.2722 O.3       1 <0>        -0.7106
     20 P2          1.3407    5.9472    2.4399 P.3       1 <0>         2.2223
     21 O7          2.8247    5.5462    2.5951 O.2       1 <0>        -1.1262
     22 O8          1.2437    7.5086    2.0596 O.3       1 <0>        -0.8832
     23 O9          0.5970    5.6939    3.7703 O.3       1 <0>        -1.1225
     24 O10        -1.4407    3.5824    0.1175 O.3       1 <0>        -0.6838
     25 P3         -2.7661    4.4929    0.1987 P.3       1 <0>         2.1603
     26 O11        -3.8454    3.7674    1.0723 O.2       1 <0>        -1.2116
     27 O12        -2.4117    5.8744    0.8471 O.3       1 <0>        -1.1975
     28 O13        -3.3308    4.7230   -1.2444 O.3       1 <0>        -1.1984
     29 O14        -2.0695    1.0846    1.2770 O.3       1 <0>        -0.5231
     30 O15        -0.7038    1.5592   -1.1497 O.3       1 <0>        -0.4905
     31 H7          1.1102    3.3433   -1.9887 H         1 <0>         0.3457
     32 H8         -2.1327    0.1197    1.2724 H         1 <0>         0.3399
     33 H9         -1.6221    1.2617   -1.2086 H         1 <0>         0.3473
     34 H10         1.6312    8.0991    2.7201 H         1 <0>         0.3895
@<TRIPOS>BOND
     1    1    2 1
     2    1   11 1
     3    1    3 1
     4    1   30 1
     5    3    4 1
     6    3    5 1
     7    3   29 1
     8    5    6 1
     9    5    7 1
    10    5   24 1
    11    7    8 1
    12    7    9 1
    13    7   19 1
    14    9   10 1
    15    9   11 1
    16    9   18 1
    17   11   12 1
    18   11   13 1
    19   13   14 1
    20   14   15 2
    21   14   16 1
    22   14   17 1
    23   18   31 1
    24   19   20 1
    25   20   21 2
    26   20   22 1
    27   20   23 1
    28   22   34 1
    29   24   25 1
    30   25   26 2
    31   25   27 1
    32   25   28 1
    33   29   32 1
    34   30   33 1
@<TRIPOS>MOLECULE
ZINC26819877
   33    33     0     0     0
SMALL
USER_CHARGES

@<TRIPOS>ATOM
      1 C1         -0.0127    1.0858    0.0080 C.3       1 <0>         0.0949
      2 H1          0.0021   -0.0041    0.0020 H         1 <0>         0.0247
      3 C2         -0.7288    1.5792    1.2668 C.3       1 <0>         0.0504
      4 H2         -0.2017    1.2182    2.1499 H         1 <0>         0.0421
      5 C3         -0.7496    3.1091    1.2752 C.3       1 <0>         0.1830
      6 H3         -1.2598    3.4606    2.1720 H         1 <0>         0.0365
      7 C4          0.6858    3.6387    1.2644 C.3       1 <0>         0.1718
      8 H4          1.2130    3.2776    2.1474 H         1 <0>         0.0298
      9 C5          1.4019    3.1452    0.0056 C.3       1 <0>         0.1021
     10 H5          2.4245    3.5225   -0.0022 H         1 <0>         0.0407
     11 C6          1.4227    1.6154   -0.0028 C.3       1 <0>         0.1487
     12 H6          1.9499    1.2543    0.8802 H         1 <0>         0.0437
     13 O1          2.0915    1.1546   -1.1786 O.3       1 <0>        -0.7470
     14 P1          3.4181    0.2434   -1.1325 P.3       1 <0>         2.1504
     15 O2          4.5139    0.9596   -0.2719 O.2       1 <0>        -1.1955
     16 O3          3.0760   -1.1450   -0.4923 O.3       1 <0>        -1.2065
     17 O4          3.9551    0.0289   -2.5885 O.3       1 <0>        -1.1899
     18 O5          0.7108    3.6186   -1.1521 O.3       1 <0>        -0.4821
     19 O6          0.6664    5.0675    1.2722 O.3       1 <0>        -0.7081
     20 P2          1.3407    5.9472    2.4399 P.3       1 <0>         2.1649
     21 O7          0.7616    5.5056    3.8271 O.2       1 <0>        -1.2116
     22 O8          2.8921    5.7291    2.4284 O.3       1 <0>        -1.2122
     23 O9          1.0246    7.4629    2.2007 O.3       1 <0>        -1.1863
     24 O10        -1.4407    3.5824    0.1175 O.3       1 <0>        -0.6857
     25 P3         -2.7661    4.4929    0.1987 P.3       1 <0>         2.1595
     26 O11        -3.8454    3.7674    1.0723 O.2       1 <0>        -1.2195
     27 O12        -2.4117    5.8744    0.8471 O.3       1 <0>        -1.1864
     28 O13        -3.3308    4.7230   -1.2444 O.3       1 <0>        -1.2062
     29 O14        -2.0695    1.0846    1.2770 O.3       1 <0>        -0.5235
     30 O15        -0.7038    1.5592   -1.1497 O.3       1 <0>        -0.4883
     31 H7          1.1102    3.3433   -1.9887 H         1 <0>         0.3334
     32 H8         -2.1327    0.1197    1.2724 H         1 <0>         0.3303
     33 H9         -1.6221    1.2617   -1.2086 H         1 <0>         0.3420
@<TRIPOS>BOND
     1    1    2 1
     2    1   11 1
     3    1    3 1
     4    1   30 1
     5    3    4 1
     6    3    5 1
     7    3   29 1
     8    5    6 1
     9    5    7 1
    10    5   24 1
    11    7    8 1
    12    7    9 1
    13    7   19 1
    14    9   10 1
    15    9   11 1
    16    9   18 1
    17   11   12 1
    18   11   13 1
    19   13   14 1
    20   14   15 2
    21   14   16 1
    22   14   17 1
    23   18   31 1
    24   19   20 1
    25   20   21 2
    26   20   22 1
    27   20   23 1
    28   24   25 1
    29   25   26 2
    30   25   27 1
    31   25   28 1
    32   29   32 1
    33   30   33 1
@<TRIPOS>MOLECULE
ZINC26819877
   34    34     0     0     0
SMALL
USER_CHARGES

@<TRIPOS>ATOM
      1 C1         -0.0127    1.0858    0.0080 C.3       1 <0>         0.0918
      2 H1          0.0021   -0.0041    0.0020 H         1 <0>         0.0373
      3 C2         -0.7527    1.5927   -1.2315 C.3       1 <0>         0.1452
      4 H2         -0.2425    1.2411   -2.1283 H         1 <0>         0.0504
      5 C3         -0.7734    3.1225   -1.2231 C.3       1 <0>         0.1009
      6 H3         -1.3006    3.4836   -2.1062 H         1 <0>         0.0515
      7 C4          0.6619    3.6521   -1.2340 C.3       1 <0>         0.1682
      8 H4          1.1721    3.3005   -2.1308 H         1 <0>         0.0476
      9 C5          1.4019    3.1452    0.0056 C.3       1 <0>         0.1930
     10 H5          2.4245    3.5225   -0.0022 H         1 <0>         0.0536
     11 C6          1.4227    1.6154   -0.0028 C.3       1 <0>         0.0498
     12 H6          1.9329    1.2639   -0.8996 H         1 <0>         0.0596
     13 O1          2.1138    1.1420    1.1549 O.3       1 <0>        -0.5351
     14 O2          0.7331    3.6061    1.1813 O.3       1 <0>        -0.6861
     15 P1          1.4428    4.5385    2.2853 P.3       1 <0>         2.1984
     16 O3          2.0120    5.8025    1.6030 O.2       1 <0>        -1.0970
     17 O4          0.3623    4.9699    3.3982 O.3       1 <0>        -0.8931
     18 O5          2.5916    3.7555    2.9592 O.3       1 <0>        -1.1268
     19 O6          0.6426    5.0809   -1.2261 O.3       1 <0>        -0.7160
     20 P2          1.2945    5.9732   -2.3970 P.3       1 <0>         2.1532
     21 O7          2.7960    5.5684   -2.5874 O.2       1 <0>        -1.2036
     22 O8          0.5147    5.7308   -3.7340 O.3       1 <0>        -1.2027
     23 O9          1.2074    7.4885   -2.0089 O.3       1 <0>        -1.1817
     24 O10        -1.4423    3.5833   -0.0474 O.3       1 <0>        -0.5010
     25 O11        -2.0933    1.0980   -1.2214 O.3       1 <0>        -0.7443
     26 P3         -2.6935    0.1674   -2.3901 P.3       1 <0>         2.1420
     27 O12        -2.5140    0.8835   -3.7719 O.2       1 <0>        -1.1905
     28 O13        -1.9334   -1.2024   -2.4091 O.3       1 <0>        -1.2014
     29 O14        -4.2171   -0.0845   -2.1265 O.3       1 <0>        -1.1843
     30 O15        -0.6816    1.5467    1.1837 O.3       1 <0>        -0.4950
     31 H7          2.1657    0.1783    1.2153 H         1 <0>         0.3457
     32 H8         -2.3593    3.2851    0.0259 H         1 <0>         0.3435
     33 H9         -0.2663    1.2624    2.0094 H         1 <0>         0.3385
     34 H10         0.7210    5.5343    4.0967 H         1 <0>         0.3882
@<TRIPOS>BOND
     1    1    2 1
     2    1   11 1
     3    1    3 1
     4    1   30 1
     5    3    4 1
     6    3    5 1
     7    3   25 1
     8    5    6 1
     9    5    7 1
    10    5   24 1
    11    7    8 1
    12    7    9 1
    13    7   19 1
    14    9   10 1
    15    9   11 1
    16    9   14 1
    17   11   12 1
    18   11   13 1
    19   13   31 1
    20   14   15 1
    21   15   16 2
    22   15   17 1
    23   15   18 1
    24   17   34 1
    25   19   20 1
    26   20   21 2
    27   20   22 1
    28   20   23 1
    29   24   32 1
    30   25   26 1
    31   26   27 2
    32   26   28 1
    33   26   29 1
    34   30   33 1
@<TRIPOS>MOLECULE
ZINC26973597
   34    34     0     0     0
SMALL
USER_CHARGES

@<TRIPOS>ATOM
      1 C1         -0.0127    1.0858    0.0080 C.3       1 <0>         0.0868
      2 H1          0.0021   -0.0041    0.0020 H         1 <0>         0.0381
      3 C2         -0.7288    1.5792    1.2668 C.3       1 <0>         0.0588
      4 H2         -1.7514    1.2020    1.2746 H         1 <0>         0.0511
      5 C3         -0.7496    3.1091    1.2752 C.3       1 <0>         0.1886
      6 H3         -1.2598    3.4606    2.1720 H         1 <0>         0.0556
      7 C4          0.6858    3.6387    1.2644 C.3       1 <0>         0.1733
      8 H4          1.2130    3.2776    2.1474 H         1 <0>         0.0572
      9 C5          1.4019    3.1452    0.0056 C.3       1 <0>         0.1009
     10 H5          2.4245    3.5225   -0.0022 H         1 <0>         0.0488
     11 C6          1.4227    1.6154   -0.0028 C.3       1 <0>         0.1502
     12 H6          1.9499    1.2543    0.8802 H         1 <0>         0.0585
     13 O1          2.0915    1.1546   -1.1786 O.3       1 <0>        -0.7486
     14 P1          3.4181    0.2434   -1.1325 P.3       1 <0>         2.1437
     15 O2          4.5139    0.9595   -0.2719 O.2       1 <0>        -1.1909
     16 O3          3.0760   -1.1450   -0.4923 O.3       1 <0>        -1.2021
     17 O4          3.9552    0.0289   -2.5885 O.3       1 <0>        -1.1861
     18 O5          0.7108    3.6186   -1.1521 O.3       1 <0>        -0.5043
     19 O6          0.6664    5.0675    1.2722 O.3       1 <0>        -0.7204
     20 P2          1.3407    5.9472    2.4399 P.3       1 <0>         2.1544
     21 O7          0.7617    5.5055    3.8271 O.2       1 <0>        -1.2047
     22 O8          2.8921    5.7292    2.4283 O.3       1 <0>        -1.2044
     23 O9          1.0246    7.4629    2.2007 O.3       1 <0>        -1.1832
     24 O10        -1.4407    3.5824    0.1175 O.3       1 <0>        -0.6918
     25 P3         -2.7661    4.4929    0.1987 P.3       1 <0>         2.1945
     26 O11        -3.8304    3.7775    1.0602 O.2       1 <0>        -1.1361
     27 O12        -2.4166    5.8553    0.8382 O.3       1 <0>        -1.0847
     28 O13        -3.3464    4.7293   -1.2844 O.3       1 <0>        -0.8921
     29 O14        -0.0377    1.1059    2.4245 O.3       1 <0>        -0.5461
     30 O15        -0.7038    1.5592   -1.1497 O.3       1 <0>        -0.4941
     31 H7          1.1102    3.3433   -1.9887 H         1 <0>         0.3418
     32 H8         -4.1469    5.2711   -1.3117 H         1 <0>         0.3905
     33 H9          0.0142    0.1421    2.4850 H         1 <0>         0.3634
     34 H10        -1.6221    1.2617   -1.2086 H         1 <0>         0.3333
@<TRIPOS>BOND
     1    1    2 1
     2    1   11 1
     3    1    3 1
     4    1   30 1
     5    3    4 1
     6    3    5 1
     7    3   29 1
     8    5    6 1
     9    5    7 1
    10    5   24 1
    11    7    8 1
    12    7    9 1
    13    7   19 1
    14    9   10 1
    15    9   11 1
    16    9   18 1
    17   11   12 1
    18   11   13 1
    19   13   14 1
    20   14   15 2
    21   14   16 1
    22   14   17 1
    23   18   31 1
    24   19   20 1
    25   20   21 2
    26   20   22 1
    27   20   23 1
    28   24   25 1
    29   25   26 2
    30   25   27 1
    31   25   28 1
    32   28   32 1
    33   29   33 1
    34   30   34 1
@<TRIPOS>MOLECULE
ZINC26973597
   34    34     0     0     0
SMALL
USER_CHARGES

@<TRIPOS>ATOM
      1 C1         -0.0127    1.0858    0.0080 C.3       1 <0>         0.0871
      2 H1          0.0021   -0.0041    0.0020 H         1 <0>         0.0339
      3 C2         -0.7288    1.5792    1.2668 C.3       1 <0>         0.0550
      4 H2         -1.7514    1.2020    1.2746 H         1 <0>         0.0565
      5 C3         -0.7496    3.1091    1.2752 C.3       1 <0>         0.1809
      6 H3         -1.2598    3.4606    2.1720 H         1 <0>         0.0428
      7 C4          0.6858    3.6387    1.2644 C.3       1 <0>         0.1818
      8 H4          1.2130    3.2776    2.1474 H         1 <0>         0.0578
      9 C5          1.4019    3.1452    0.0056 C.3       1 <0>         0.1009
     10 H5          2.4245    3.5225   -0.0022 H         1 <0>         0.0411
     11 C6          1.4227    1.6154   -0.0028 C.3       1 <0>         0.1541
     12 H6          1.9499    1.2543    0.8802 H         1 <0>         0.0554
     13 O1          2.0915    1.1546   -1.1786 O.3       1 <0>        -0.7472
     14 P1          3.4181    0.2434   -1.1325 P.3       1 <0>         2.1461
     15 O2          4.5139    0.9596   -0.2719 O.2       1 <0>        -1.1945
     16 O3          3.0760   -1.1450   -0.4923 O.3       1 <0>        -1.2017
     17 O4          3.9551    0.0289   -2.5885 O.3       1 <0>        -1.1860
     18 O5          0.7108    3.6186   -1.1521 O.3       1 <0>        -0.4906
     19 O6          0.6664    5.0675    1.2722 O.3       1 <0>        -0.7160
     20 P2          1.3407    5.9472    2.4399 P.3       1 <0>         2.2215
     21 O7          2.8247    5.5462    2.5951 O.2       1 <0>        -1.1269
     22 O8          1.2437    7.5086    2.0596 O.3       1 <0>        -0.8841
     23 O9          0.5970    5.6939    3.7703 O.3       1 <0>        -1.1222
     24 O10        -1.4407    3.5824    0.1175 O.3       1 <0>        -0.6904
     25 P3         -2.7661    4.4929    0.1987 P.3       1 <0>         2.1547
     26 O11        -3.8454    3.7674    1.0723 O.2       1 <0>        -1.2188
     27 O12        -2.4117    5.8744    0.8471 O.3       1 <0>        -1.1890
     28 O13        -3.3308    4.7230   -1.2444 O.3       1 <0>        -1.1914
     29 O14        -0.0377    1.1059    2.4245 O.3       1 <0>        -0.5570
     30 O15        -0.7038    1.5592   -1.1497 O.3       1 <0>        -0.4905
     31 H7          1.1102    3.3433   -1.9887 H         1 <0>         0.3443
     32 H8          0.0142    0.1421    2.4850 H         1 <0>         0.3605
     33 H9         -1.6221    1.2617   -1.2086 H         1 <0>         0.3433
     34 H10         1.6312    8.0991    2.7201 H         1 <0>         0.3889
@<TRIPOS>BOND
     1    1    2 1
     2    1   11 1
     3    1    3 1
     4    1   30 1
     5    3    4 1
     6    3    5 1
     7    3   29 1
     8    5    6 1
     9    5    7 1
    10    5   24 1
    11    7    8 1
    12    7    9 1
    13    7   19 1
    14    9   10 1
    15    9   11 1
    16    9   18 1
    17   11   12 1
    18   11   13 1
    19   13   14 1
    20   14   15 2
    21   14   16 1
    22   14   17 1
    23   18   31 1
    24   19   20 1
    25   20   21 2
    26   20   22 1
    27   20   23 1
    28   22   34 1
    29   24   25 1
    30   25   26 2
    31   25   27 1
    32   25   28 1
    33   29   32 1
    34   30   33 1
@<TRIPOS>MOLECULE
ZINC26973597
   34    34     0     0     0
SMALL
USER_CHARGES

@<TRIPOS>ATOM
      1 C1         -0.0127    1.0858    0.0080 C.3       1 <0>         0.0926
      2 H1          0.0021   -0.0041    0.0020 H         1 <0>         0.0283
      3 C2         -0.7288    1.5792    1.2668 C.3       1 <0>         0.0545
      4 H2         -1.7514    1.2020    1.2746 H         1 <0>         0.0570
      5 C3         -0.7496    3.1091    1.2752 C.3       1 <0>         0.1760
      6 H3         -1.2598    3.4606    2.1720 H         1 <0>         0.0459
      7 C4          0.6858    3.6387    1.2644 C.3       1 <0>         0.1757
      8 H4          1.2130    3.2776    2.1474 H         1 <0>         0.0438
      9 C5          1.4019    3.1452    0.0056 C.3       1 <0>         0.0991
     10 H5          2.4245    3.5225   -0.0022 H         1 <0>         0.0438
     11 C6          1.4227    1.6154   -0.0028 C.3       1 <0>         0.1563
     12 H6          1.9499    1.2543    0.8802 H         1 <0>         0.0688
     13 O1          2.0915    1.1546   -1.1786 O.3       1 <0>        -0.7486
     14 P1          3.4181    0.2434   -1.1325 P.3       1 <0>         2.2029
     15 O2          3.1476   -1.0174   -0.2815 O.2       1 <0>        -1.1193
     16 O3          3.8202   -0.1951   -2.6285 O.3       1 <0>        -0.8943
     17 O4          4.5757    1.0505   -0.5037 O.3       1 <0>        -1.1066
     18 O5          0.7108    3.6186   -1.1521 O.3       1 <0>        -0.4752
     19 O6          0.6664    5.0675    1.2722 O.3       1 <0>        -0.7097
     20 P2          1.3407    5.9472    2.4399 P.3       1 <0>         2.1608
     21 O7          0.7617    5.5055    3.8271 O.2       1 <0>        -1.2065
     22 O8          2.8921    5.7292    2.4283 O.3       1 <0>        -1.2125
     23 O9          1.0246    7.4629    2.2007 O.3       1 <0>        -1.1828
     24 O10        -1.4407    3.5824    0.1175 O.3       1 <0>        -0.6931
     25 P3         -2.7661    4.4929    0.1987 P.3       1 <0>         2.1465
     26 O11        -3.8454    3.7675    1.0723 O.2       1 <0>        -1.2221
     27 O12        -2.4117    5.8744    0.8471 O.3       1 <0>        -1.1730
     28 O13        -3.3308    4.7229   -1.2444 O.3       1 <0>        -1.1953
     29 O14        -0.0377    1.1059    2.4245 O.3       1 <0>        -0.5489
     30 O15        -0.7038    1.5592   -1.1497 O.3       1 <0>        -0.4929
     31 H7          1.1102    3.3433   -1.9887 H         1 <0>         0.3280
     32 H8          0.0142    0.1421    2.4850 H         1 <0>         0.3518
     33 H9         -1.6221    1.2617   -1.2086 H         1 <0>         0.3502
     34 H10         4.6125   -0.7474   -2.6770 H         1 <0>         0.3988
@<TRIPOS>BOND
     1    1    2 1
     2    1   11 1
     3    1    3 1
     4    1   30 1
     5    3    4 1
     6    3    5 1
     7    3   29 1
     8    5    6 1
     9    5    7 1
    10    5   24 1
    11    7    8 1
    12    7    9 1
    13    7   19 1
    14    9   10 1
    15    9   11 1
    16    9   18 1
    17   11   12 1
    18   11   13 1
    19   13   14 1
    20   14   15 2
    21   14   16 1
    22   14   17 1
    23   16   34 1
    24   18   31 1
    25   19   20 1
    26   20   21 2
    27   20   22 1
    28   20   23 1
    29   24   25 1
    30   25   26 2
    31   25   27 1
    32   25   28 1
    33   29   32 1
    34   30   33 1
@<TRIPOS>MOLECULE
ZINC26973597
   33    33     0     0     0
SMALL
USER_CHARGES

@<TRIPOS>ATOM
      1 C1         -0.0127    1.0858    0.0080 C.3       1 <0>         0.0918
      2 H1          0.0021   -0.0041    0.0020 H         1 <0>         0.0255
      3 C2         -0.7288    1.5792    1.2668 C.3       1 <0>         0.0553
      4 H2         -1.7514    1.2020    1.2746 H         1 <0>         0.0477
      5 C3         -0.7496    3.1091    1.2752 C.3       1 <0>         0.1822
      6 H3         -1.2598    3.4606    2.1720 H         1 <0>         0.0382
      7 C4          0.6858    3.6387    1.2644 C.3       1 <0>         0.1772
      8 H4          1.2130    3.2776    2.1474 H         1 <0>         0.0401
      9 C5          1.4019    3.1452    0.0056 C.3       1 <0>         0.1016
     10 H5          2.4245    3.5225   -0.0022 H         1 <0>         0.0379
     11 C6          1.4227    1.6154   -0.0028 C.3       1 <0>         0.1539
     12 H6          1.9499    1.2543    0.8802 H         1 <0>         0.0521
     13 O1          2.0915    1.1546   -1.1786 O.3       1 <0>        -0.7515
     14 P1          3.4181    0.2434   -1.1325 P.3       1 <0>         2.1521
     15 O2          4.5139    0.9596   -0.2719 O.2       1 <0>        -1.1960
     16 O3          3.0760   -1.1450   -0.4923 O.3       1 <0>        -1.2071
     17 O4          3.9551    0.0289   -2.5885 O.3       1 <0>        -1.1918
     18 O5          0.7108    3.6186   -1.1521 O.3       1 <0>        -0.4860
     19 O6          0.6664    5.0675    1.2722 O.3       1 <0>        -0.7147
     20 P2          1.3407    5.9472    2.4399 P.3       1 <0>         2.1672
     21 O7          0.7616    5.5056    3.8271 O.2       1 <0>        -1.2117
     22 O8          2.8921    5.7291    2.4284 O.3       1 <0>        -1.2141
     23 O9          1.0246    7.4629    2.2007 O.3       1 <0>        -1.1891
     24 O10        -1.4407    3.5824    0.1175 O.3       1 <0>        -0.6921
     25 P3         -2.7661    4.4929    0.1987 P.3       1 <0>         2.1535
     26 O11        -3.8454    3.7674    1.0723 O.2       1 <0>        -1.2267
     27 O12        -2.4117    5.8744    0.8471 O.3       1 <0>        -1.1777
     28 O13        -3.3308    4.7230   -1.2444 O.3       1 <0>        -1.1992
     29 O14        -0.0377    1.1059    2.4245 O.3       1 <0>        -0.5506
     30 O15        -0.7038    1.5592   -1.1497 O.3       1 <0>        -0.4882
     31 H7          1.1102    3.3433   -1.9887 H         1 <0>         0.3320
     32 H8          0.0142    0.1421    2.4850 H         1 <0>         0.3507
     33 H9         -1.6221    1.2617   -1.2086 H         1 <0>         0.3378
@<TRIPOS>BOND
     1    1    2 1
     2    1   11 1
     3    1    3 1
     4    1   30 1
     5    3    4 1
     6    3    5 1
     7    3   29 1
     8    5    6 1
     9    5    7 1
    10    5   24 1
    11    7    8 1
    12    7    9 1
    13    7   19 1
    14    9   10 1
    15    9   11 1
    16    9   18 1
    17   11   12 1
    18   11   13 1
    19   13   14 1
    20   14   15 2
    21   14   16 1
    22   14   17 1
    23   18   31 1
    24   19   20 1
    25   20   21 2
    26   20   22 1
    27   20   23 1
    28   24   25 1
    29   25   26 2
    30   25   27 1
    31   25   28 1
    32   29   32 1
    33   30   33 1
@<TRIPOS>MOLECULE
ZINC26973597
   34    34     0     0     0
SMALL
USER_CHARGES

@<TRIPOS>ATOM
      1 C1         -0.0127    1.0858    0.0080 C.3       1 <0>         0.0694
      2 H1          0.0021   -0.0041    0.0020 H         1 <0>         0.0398
      3 C2         -0.7527    1.5927   -1.2315 C.3       1 <0>         0.1574
      4 H2         -1.7753    1.2154   -1.2238 H         1 <0>         0.0289
      5 C3         -0.0366    1.0992   -2.4903 C.3       1 <0>         0.0764
      6 H3         -0.0218    0.0093   -2.4963 H         1 <0>         0.0274
      7 C4          1.3988    1.6288   -2.5012 C.3       1 <0>         0.1723
      8 H4          1.9090    1.2773   -3.3980 H         1 <0>         0.0447
      9 C5          2.1388    1.1220   -1.2617 C.3       1 <0>         0.1947
     10 H5          2.1536    0.0321   -1.2676 H         1 <0>         0.0374
     11 C6          1.4227    1.6154   -0.0028 C.3       1 <0>         0.0668
     12 H6          1.4079    2.7053    0.0031 H         1 <0>         0.1035
     13 O1          2.1138    1.1420    1.1549 O.3       1 <0>        -0.5531
     14 O2          3.4794    1.6166   -1.2718 O.3       1 <0>        -0.7173
     15 P1          4.7694    0.6533   -1.2893 P.3       1 <0>         2.2362
     16 O3          4.6707   -0.3178   -2.4869 O.2       1 <0>        -1.1307
     17 O4          6.1028    1.5446   -1.4295 O.3       1 <0>        -0.8831
     18 O5          4.8263   -0.1551    0.0261 O.3       1 <0>        -1.1253
     19 O6          1.3794    3.0577   -2.4933 O.3       1 <0>        -0.6858
     20 P2          2.0314    3.9499   -3.6642 P.3       1 <0>         2.1584
     21 O7          3.5329    3.5451   -3.8546 O.2       1 <0>        -1.2046
     22 O8          1.2516    3.7076   -5.0012 O.3       1 <0>        -1.2022
     23 O9          1.9443    5.4652   -3.2761 O.3       1 <0>        -1.1876
     24 O10        -0.7277    1.5726   -3.6480 O.3       1 <0>        -0.5011
     25 O11        -0.7721    3.0215   -1.2237 O.3       1 <0>        -0.6830
     26 P3         -2.1340    3.8799   -1.2060 P.3       1 <0>         2.1584
     27 O12        -3.0391    3.4481   -2.4097 O.2       1 <0>        -1.2068
     28 O13        -2.8959    3.6230    0.1386 O.3       1 <0>        -1.2100
     29 O14        -1.7925    5.4039   -1.3298 O.3       1 <0>        -1.1781
     30 O15        -0.6816    1.5467    1.1837 O.3       1 <0>        -0.5214
     31 H7          1.7144    1.4174    1.9914 H         1 <0>         0.3434
     32 H8         -1.6459    1.2751   -3.7070 H         1 <0>         0.3511
     33 H9         -0.2663    1.2624    2.0094 H         1 <0>         0.3362
     34 H10         6.9206    1.0288   -1.4467 H         1 <0>         0.3878
@<TRIPOS>BOND
     1    1    2 1
     2    1   11 1
     3    1    3 1
     4    1   30 1
     5    3    4 1
     6    3    5 1
     7    3   25 1
     8    5    6 1
     9    5    7 1
    10    5   24 1
    11    7    8 1
    12    7    9 1
    13    7   19 1
    14    9   10 1
    15    9   11 1
    16    9   14 1
    17   11   12 1
    18   11   13 1
    19   13   31 1
    20   14   15 1
    21   15   16 2
    22   15   17 1
    23   15   18 1
    24   17   34 1
    25   19   20 1
    26   20   21 2
    27   20   22 1
    28   20   23 1
    29   24   32 1
    30   25   26 1
    31   26   27 2
    32   26   28 1
    33   26   29 1
    34   30   33 1
@<TRIPOS>MOLECULE
ZINC26973607
   34    34     0     0     0
SMALL
USER_CHARGES

@<TRIPOS>ATOM
      1 C1         -0.0127    1.0858    0.0080 C.3       1 <0>         0.0726
      2 H1          0.0021   -0.0041    0.0020 H         1 <0>         0.0753
      3 C2         -0.7527    1.5927   -1.2315 C.3       1 <0>         0.0669
      4 H2         -1.7753    1.2154   -1.2238 H         1 <0>         0.0514
      5 C3         -0.0366    1.0992   -2.4903 C.3       1 <0>         0.1825
      6 H3         -0.5637    1.4603   -3.3734 H         1 <0>         0.0636
      7 C4          1.3988    1.6288   -2.5012 C.3       1 <0>         0.1720
      8 H4          1.3840    2.7187   -2.4952 H         1 <0>         0.0641
      9 C5          2.1388    1.1220   -1.2617 C.3       1 <0>         0.0967
     10 H5          3.1614    1.4993   -1.2694 H         1 <0>         0.0614
     11 C6          1.4227    1.6154   -0.0028 C.3       1 <0>         0.1564
     12 H6          1.4079    2.7053    0.0031 H         1 <0>         0.0565
     13 O1          2.1138    1.1420    1.1549 O.3       1 <0>        -0.7530
     14 P1          2.7494    2.1254    2.2599 P.3       1 <0>         2.1476
     15 O2          3.7261    3.1326    1.5627 O.2       1 <0>        -1.1952
     16 O3          1.6028    2.9192    2.9738 O.3       1 <0>        -1.1906
     17 O4          3.5378    1.2814    3.3184 O.3       1 <0>        -1.1909
     18 O5          2.1582   -0.3069   -1.2695 O.3       1 <0>        -0.5232
     19 O6          2.0677    1.1680   -3.6769 O.3       1 <0>        -0.7204
     20 P2          2.6821    2.1632   -4.7832 P.3       1 <0>         2.1523
     21 O7          1.5651    3.1409   -5.2840 O.2       1 <0>        -1.2030
     22 O8          3.8533    2.9889   -4.1499 O.3       1 <0>        -1.2029
     23 O9          3.2259    1.3284   -5.9923 O.3       1 <0>        -1.1818
     24 O10        -0.0172   -0.3296   -2.4982 O.3       1 <0>        -0.7125
     25 P3         -0.6915   -1.2093   -3.6659 P.3       1 <0>         2.1954
     26 O11        -2.1755   -0.8083   -3.8211 O.2       1 <0>        -1.1315
     27 O12         0.0522   -0.9561   -4.9962 O.3       1 <0>        -1.0796
     28 O13        -0.5944   -2.7707   -3.2856 O.3       1 <0>        -0.8943
     29 O14        -0.7721    3.0215   -1.2237 O.3       1 <0>        -0.5463
     30 O15        -0.6816    1.5467    1.1837 O.3       1 <0>        -0.5337
     31 H7          2.6125   -0.6982   -0.5109 H         1 <0>         0.3462
     32 H8         -0.9820   -3.3612   -3.9460 H         1 <0>         0.3929
     33 H9         -1.2117    3.4046   -0.4523 H         1 <0>         0.3674
     34 H10        -1.5985    1.2485    1.2570 H         1 <0>         0.3377
@<TRIPOS>BOND
     1    1    2 1
     2    1   11 1
     3    1    3 1
     4    1   30 1
     5    3    4 1
     6    3    5 1
     7    3   29 1
     8    5    6 1
     9    5    7 1
    10    5   24 1
    11    7    8 1
    12    7    9 1
    13    7   19 1
    14    9   10 1
    15    9   11 1
    16    9   18 1
    17   11   12 1
    18   11   13 1
    19   13   14 1
    20   14   15 2
    21   14   16 1
    22   14   17 1
    23   18   31 1
    24   19   20 1
    25   20   21 2
    26   20   22 1
    27   20   23 1
    28   24   25 1
    29   25   26 2
    30   25   27 1
    31   25   28 1
    32   28   32 1
    33   29   33 1
    34   30   34 1
@<TRIPOS>MOLECULE
ZINC26973607
   34    34     0     0     0
SMALL
USER_CHARGES

@<TRIPOS>ATOM
      1 C1         -0.0127    1.0858    0.0080 C.3       1 <0>         0.0710
      2 H1          0.0021   -0.0041    0.0020 H         1 <0>         0.0828
      3 C2         -0.7527    1.5927   -1.2315 C.3       1 <0>         0.0651
      4 H2         -1.7753    1.2154   -1.2238 H         1 <0>         0.0574
      5 C3         -0.0366    1.0992   -2.4903 C.3       1 <0>         0.1749
      6 H3         -0.5637    1.4603   -3.3734 H         1 <0>         0.0514
      7 C4          1.3988    1.6288   -2.5012 C.3       1 <0>         0.1807
      8 H4          1.3840    2.7187   -2.4952 H         1 <0>         0.0648
      9 C5          2.1388    1.1220   -1.2617 C.3       1 <0>         0.0963
     10 H5          3.1614    1.4993   -1.2694 H         1 <0>         0.0542
     11 C6          1.4227    1.6154   -0.0028 C.3       1 <0>         0.1608
     12 H6          1.4079    2.7053    0.0031 H         1 <0>         0.0542
     13 O1          2.1138    1.1420    1.1549 O.3       1 <0>        -0.7514
     14 P1          2.7494    2.1254    2.2599 P.3       1 <0>         2.1498
     15 O2          3.7261    3.1326    1.5627 O.2       1 <0>        -1.1987
     16 O3          1.6028    2.9192    2.9738 O.3       1 <0>        -1.1900
     17 O4          3.5378    1.2814    3.3184 O.3       1 <0>        -1.1906
     18 O5          2.1582   -0.3069   -1.2695 O.3       1 <0>        -0.5097
     19 O6          2.0677    1.1680   -3.6769 O.3       1 <0>        -0.7165
     20 P2          2.6821    2.1632   -4.7832 P.3       1 <0>         2.2208
     21 O7          3.6584    3.1491   -4.1035 O.2       1 <0>        -1.1254
     22 O8          3.4713    1.3077   -5.8956 O.3       1 <0>        -0.8842
     23 O9          1.5383    2.9534   -5.4571 O.3       1 <0>        -1.1206
     24 O10        -0.0172   -0.3296   -2.4982 O.3       1 <0>        -0.7111
     25 P3         -0.6915   -1.2093   -3.6659 P.3       1 <0>         2.1528
     26 O11        -2.1963   -0.8027   -3.8233 O.2       1 <0>        -1.2140
     27 O12         0.0627   -0.9525   -5.0149 O.3       1 <0>        -1.1837
     28 O13        -0.5971   -2.7287   -3.2958 O.3       1 <0>        -1.1907
     29 O14        -0.7721    3.0215   -1.2237 O.3       1 <0>        -0.5570
     30 O15        -0.6816    1.5467    1.1837 O.3       1 <0>        -0.5378
     31 H7          2.6125   -0.6982   -0.5109 H         1 <0>         0.3490
     32 H8         -1.2117    3.4046   -0.4523 H         1 <0>         0.3649
     33 H9         -1.5985    1.2485    1.2570 H         1 <0>         0.3411
     34 H10         3.8686    1.8439   -6.5954 H         1 <0>         0.3895
@<TRIPOS>BOND
     1    1    2 1
     2    1   11 1
     3    1    3 1
     4    1   30 1
     5    3    4 1
     6    3    5 1
     7    3   29 1
     8    5    6 1
     9    5    7 1
    10    5   24 1
    11    7    8 1
    12    7    9 1
    13    7   19 1
    14    9   10 1
    15    9   11 1
    16    9   18 1
    17   11   12 1
    18   11   13 1
    19   13   14 1
    20   14   15 2
    21   14   16 1
    22   14   17 1
    23   18   31 1
    24   19   20 1
    25   20   21 2
    26   20   22 1
    27   20   23 1
    28   22   34 1
    29   24   25 1
    30   25   26 2
    31   25   27 1
    32   25   28 1
    33   29   32 1
    34   30   33 1
@<TRIPOS>MOLECULE
ZINC26973607
   33    33     0     0     0
SMALL
USER_CHARGES

@<TRIPOS>ATOM
      1 C1         -0.0127    1.0858    0.0080 C.3       1 <0>         0.0735
      2 H1          0.0021   -0.0041    0.0020 H         1 <0>         0.0806
      3 C2         -0.7527    1.5927   -1.2315 C.3       1 <0>         0.0663
      4 H2         -1.7753    1.2154   -1.2238 H         1 <0>         0.0486
      5 C3         -0.0366    1.0992   -2.4903 C.3       1 <0>         0.1760
      6 H3         -0.5637    1.4603   -3.3734 H         1 <0>         0.0469
      7 C4          1.3988    1.6288   -2.5012 C.3       1 <0>         0.1759
      8 H4          1.3840    2.7187   -2.4952 H         1 <0>         0.0473
      9 C5          2.1388    1.1220   -1.2617 C.3       1 <0>         0.0966
     10 H5          3.1614    1.4993   -1.2694 H         1 <0>         0.0511
     11 C6          1.4227    1.6154   -0.0028 C.3       1 <0>         0.1622
     12 H6          1.4079    2.7053    0.0031 H         1 <0>         0.0507
     13 O1          2.1138    1.1420    1.1549 O.3       1 <0>        -0.7559
     14 P1          2.7494    2.1254    2.2599 P.3       1 <0>         2.1562
     15 O2          3.7261    3.1326    1.5627 O.2       1 <0>        -1.2002
     16 O3          1.6028    2.9192    2.9738 O.3       1 <0>        -1.1955
     17 O4          3.5378    1.2814    3.3184 O.3       1 <0>        -1.1965
     18 O5          2.1582   -0.3069   -1.2695 O.3       1 <0>        -0.5052
     19 O6          2.0677    1.1680   -3.6769 O.3       1 <0>        -0.7147
     20 P2          2.6821    2.1632   -4.7832 P.3       1 <0>         2.1653
     21 O7          1.5651    3.1409   -5.2840 O.2       1 <0>        -1.2101
     22 O8          3.8533    2.9889   -4.1499 O.3       1 <0>        -1.2126
     23 O9          3.2259    1.3284   -5.9922 O.3       1 <0>        -1.1877
     24 O10        -0.0172   -0.3296   -2.4982 O.3       1 <0>        -0.7132
     25 P3         -0.6915   -1.2093   -3.6659 P.3       1 <0>         2.1520
     26 O11        -2.1963   -0.8027   -3.8233 O.2       1 <0>        -1.2220
     27 O12         0.0627   -0.9525   -5.0149 O.3       1 <0>        -1.1724
     28 O13        -0.5971   -2.7287   -3.2958 O.3       1 <0>        -1.1986
     29 O14        -0.7721    3.0215   -1.2237 O.3       1 <0>        -0.5508
     30 O15        -0.6816    1.5467    1.1837 O.3       1 <0>        -0.5412
     31 H7          2.6125   -0.6982   -0.5109 H         1 <0>         0.3367
     32 H8         -1.2117    3.4046   -0.4523 H         1 <0>         0.3553
     33 H9         -1.5985    1.2485    1.2570 H         1 <0>         0.3352
@<TRIPOS>BOND
     1    1    2 1
     2    1   11 1
     3    1    3 1
     4    1   30 1
     5    3    4 1
     6    3    5 1
     7    3   29 1
     8    5    6 1
     9    5    7 1
    10    5   24 1
    11    7    8 1
    12    7    9 1
    13    7   19 1
    14    9   10 1
    15    9   11 1
    16    9   18 1
    17   11   12 1
    18   11   13 1
    19   13   14 1
    20   14   15 2
    21   14   16 1
    22   14   17 1
    23   18   31 1
    24   19   20 1
    25   20   21 2
    26   20   22 1
    27   20   23 1
    28   24   25 1
    29   25   26 2
    30   25   27 1
    31   25   28 1
    32   29   32 1
    33   30   33 1
@<TRIPOS>MOLECULE
ZINC26973607
   34    34     0     0     0
SMALL
USER_CHARGES

@<TRIPOS>ATOM
      1 C1         -0.0127    1.0858    0.0080 C.3       1 <0>         0.0735
      2 H1          0.0021   -0.0041    0.0020 H         1 <0>         0.0889
      3 C2         -0.7527    1.5927   -1.2315 C.3       1 <0>         0.0663
      4 H2         -1.7753    1.2154   -1.2238 H         1 <0>         0.0579
      5 C3         -0.0366    1.0992   -2.4903 C.3       1 <0>         0.1698
      6 H3         -0.5637    1.4603   -3.3734 H         1 <0>         0.0546
      7 C4          1.3988    1.6288   -2.5012 C.3       1 <0>         0.1743
      8 H4          1.3840    2.7187   -2.4952 H         1 <0>         0.0509
      9 C5          2.1388    1.1220   -1.2617 C.3       1 <0>         0.0937
     10 H5          3.1614    1.4993   -1.2694 H         1 <0>         0.0573
     11 C6          1.4227    1.6154   -0.0028 C.3       1 <0>         0.1660
     12 H6          1.4079    2.7053    0.0031 H         1 <0>         0.0673
     13 O1          2.1138    1.1420    1.1549 O.3       1 <0>        -0.7535
     14 P1          2.7494    2.1254    2.2599 P.3       1 <0>         2.2047
     15 O2          1.6575    3.0841    2.7850 O.2       1 <0>        -1.1067
     16 O3          3.3317    1.2542    3.4822 O.3       1 <0>        -0.8972
     17 O4          3.8923    2.9464    1.6222 O.3       1 <0>        -1.1098
     18 O5          2.1582   -0.3069   -1.2695 O.3       1 <0>        -0.4944
     19 O6          2.0677    1.1680   -3.6769 O.3       1 <0>        -0.7095
     20 P2          2.6821    2.1632   -4.7832 P.3       1 <0>         2.1586
     21 O7          1.5651    3.1410   -5.2840 O.2       1 <0>        -1.2048
     22 O8          3.8534    2.9889   -4.1499 O.3       1 <0>        -1.2110
     23 O9          3.2259    1.3284   -5.9923 O.3       1 <0>        -1.1813
     24 O10        -0.0172   -0.3296   -2.4982 O.3       1 <0>        -0.7138
     25 P3         -0.6915   -1.2093   -3.6659 P.3       1 <0>         2.1446
     26 O11        -2.1963   -0.8027   -3.8233 O.2       1 <0>        -1.2173
     27 O12         0.0627   -0.9525   -5.0149 O.3       1 <0>        -1.1676
     28 O13        -0.5971   -2.7287   -3.2958 O.3       1 <0>        -1.1946
     29 O14        -0.7721    3.0215   -1.2237 O.3       1 <0>        -0.5489
     30 O15        -0.6816    1.5467    1.1837 O.3       1 <0>        -0.5555
     31 H7          2.6125   -0.6982   -0.5109 H         1 <0>         0.3327
     32 H8         -1.2117    3.4046   -0.4523 H         1 <0>         0.3566
     33 H9         -1.5985    1.2485    1.2570 H         1 <0>         0.3499
     34 H10         3.7309    1.7827    4.1867 H         1 <0>         0.3983
@<TRIPOS>BOND
     1    1    2 1
     2    1   11 1
     3    1    3 1
     4    1   30 1
     5    3    4 1
     6    3    5 1
     7    3   29 1
     8    5    6 1
     9    5    7 1
    10    5   24 1
    11    7    8 1
    12    7    9 1
    13    7   19 1
    14    9   10 1
    15    9   11 1
    16    9   18 1
    17   11   12 1
    18   11   13 1
    19   13   14 1
    20   14   15 2
    21   14   16 1
    22   14   17 1
    23   16   34 1
    24   18   31 1
    25   19   20 1
    26   20   21 2
    27   20   22 1
    28   20   23 1
    29   24   25 1
    30   25   26 2
    31   25   27 1
    32   25   28 1
    33   29   32 1
    34   30   33 1
@<TRIPOS>MOLECULE
ZINC26973607
   34    34     0     0     0
SMALL
USER_CHARGES

@<TRIPOS>ATOM
      1 C1         -0.0127    1.0858    0.0080 C.3       1 <0>         0.0731
      2 H1          0.0021   -0.0041    0.0020 H         1 <0>         0.0754
      3 C2         -0.7288    1.5792    1.2668 C.3       1 <0>         0.1564
      4 H2         -0.7436    2.6691    1.2728 H         1 <0>         0.0565
      5 C3          0.0111    1.0724    2.5063 C.3       1 <0>         0.0964
      6 H3         -0.4990    1.4239    3.4031 H         1 <0>         0.0613
      7 C4          1.4465    1.6020    2.4955 C.3       1 <0>         0.1726
      8 H4          1.4318    2.6919    2.5015 H         1 <0>         0.0644
      9 C5          2.1627    1.1086    1.2367 C.3       1 <0>         0.1827
     10 H5          3.1853    1.4858    1.2289 H         1 <0>         0.0638
     11 C6          1.4227    1.6154   -0.0028 C.3       1 <0>         0.0662
     12 H6          1.9329    1.2639   -0.8996 H         1 <0>         0.0526
     13 O1          1.4033    3.0442    0.0050 O.3       1 <0>        -0.5468
     14 O2          2.1820   -0.3203    1.2288 O.3       1 <0>        -0.7133
     15 P1          3.5440   -1.1787    1.2112 P.3       1 <0>         2.1995
     16 O3          4.4365   -0.7529    2.3983 O.2       1 <0>        -1.0843
     17 O4          3.1930   -2.7448    1.3384 O.3       1 <0>        -0.8925
     18 O5          4.2953   -0.9254   -0.1148 O.3       1 <0>        -1.1321
     19 O6          2.1377    1.1286    3.6532 O.3       1 <0>        -0.7224
     20 P2          2.7732    2.1120    4.7582 P.3       1 <0>         2.1534
     21 O7          3.7499    3.1192    4.0610 O.2       1 <0>        -1.2021
     22 O8          1.6267    2.9058    5.4722 O.3       1 <0>        -1.2031
     23 O9          3.5616    1.2680    5.8168 O.3       1 <0>        -1.1831
     24 O10         0.0305   -0.3564    2.4985 O.3       1 <0>        -0.5237
     25 O11        -2.0695    1.0846    1.2770 O.3       1 <0>        -0.7530
     26 P3         -3.3594    2.0479    1.2944 P.3       1 <0>         2.1477
     27 O12        -3.2594    3.0326    2.5088 O.2       1 <0>        -1.1953
     28 O13        -3.4171    2.8677   -0.0393 O.3       1 <0>        -1.1905
     29 O14        -4.6570    1.1806    1.4309 O.3       1 <0>        -1.1909
     30 O15        -0.7038    1.5592   -1.1497 O.3       1 <0>        -0.5338
     31 H7          0.9490    3.4356   -0.7536 H         1 <0>         0.3676
     32 H8         -0.8474   -0.7617    2.5047 H         1 <0>         0.3466
     33 H9         -0.3044    1.2838   -1.9862 H         1 <0>         0.3381
     34 H10         3.9680   -3.3231    1.3346 H         1 <0>         0.3927
@<TRIPOS>BOND
     1    1    2 1
     2    1   11 1
     3    1    3 1
     4    1   30 1
     5    3    4 1
     6    3    5 1
     7    3   25 1
     8    5    6 1
     9    5    7 1
    10    5   24 1
    11    7    8 1
    12    7    9 1
    13    7   19 1
    14    9   10 1
    15    9   11 1
    16    9   14 1
    17   11   12 1
    18   11   13 1
    19   13   31 1
    20   14   15 1
    21   15   16 2
    22   15   17 1
    23   15   18 1
    24   17   34 1
    25   19   20 1
    26   20   21 2
    27   20   22 1
    28   20   23 1
    29   24   32 1
    30   25   26 1
    31   26   27 2
    32   26   28 1
    33   26   29 1
    34   30   33 1
