@<TRIPOS>MOLECULE
ZINC66103171
   63    67     0     0     0
SMALL
USER_CHARGES

@<TRIPOS>ATOM
      1 C1          0.8415   -0.7219    1.0870 C.3       1 <0>        -0.1831
      2 C2          0.0143   -0.0202    0.0080 C.3       1 <0>         0.1131
      3 C3          0.7045   -0.1798   -1.3481 C.3       1 <0>        -0.1657
      4 C4         -1.3595   -0.6367   -0.0520 C.2       1 <0>         0.5368
      5 O1         -1.6488   -1.3862   -0.9605 O.2       1 <0>        -0.5277
      6 N1         -2.2668   -0.3551    0.9041 N.am      1 <0>        -0.5996
      7 C5         -1.8952    0.4554    2.0724 C.3       1 <0>         0.0826
      8 C6         -2.8554    1.6477    2.1670 C.3       1 <0>         0.1071
      9 N2         -4.2340    1.1500    2.0597 N.pl3     1 <0>        -0.6197
     10 C7         -4.6056    0.3395    0.8915 C.3       1 <0>         0.1045
     11 C8         -3.6469   -0.8481    0.7941 C.3       1 <0>         0.0951
     12 C9         -5.1743    1.4419    3.0507 C.ar      1 <0>         0.2546
     13 C10        -4.8474    2.3128    4.0847 C.ar      1 <0>        -0.1930
     14 C11        -5.7740    2.6048    5.0682 C.ar      1 <0>        -0.0180
     15 C12        -7.0299    2.0346    5.0309 C.ar      1 <0>        -0.2243
     16 C13        -7.3689    1.1587    3.9963 C.ar      1 <0>         0.0750
     17 C14        -6.4347    0.8681    3.0004 C.ar      1 <0>        -0.1701
     18 C15        -8.7127    0.5467    3.9536 C.2       1 <0>        -0.1137
     19 C16        -9.0431   -0.7630    4.2761 C.2       1 <0>         0.0127
     20 C17       -10.5080   -0.8777    4.0708 C.2       1 <0>         0.5539
     21 O2        -11.1740   -1.8769    4.2502 O.2       1 <0>        -0.4390
     22 N3        -10.9731    0.3122    3.6533 N.am      1 <0>        -0.6874
     23 C18        -9.9731    1.2052    3.5662 C.2       1 <0>         0.5615
     24 O3        -10.0883    2.3647    3.2210 O.2       1 <0>        -0.4346
     25 C19        -8.1287   -1.8194    4.7279 C.2       1 <0>        -0.1566
     26 C20        -7.5690   -1.9421    5.9700 C.2       1 <0>         0.1116
     27 N4         -6.7799   -3.0454    6.0085 N.pl3     1 <0>        -0.5806
     28 H1         -6.2779   -3.3400    6.7844 H         1 <0>         0.4218
     29 C21        -6.7932   -3.6895    4.7878 C.ar      1 <0>         0.0924
     30 C22        -7.6378   -2.9608    3.9343 C.ar      1 <0>        -0.0700
     31 C23        -7.8452   -3.3881    2.6254 C.ar      1 <0>        -0.0765
     32 C24        -7.2206   -4.5307    2.1736 C.ar      1 <0>        -0.1338
     33 C25        -6.3890   -5.2533    3.0161 C.ar      1 <0>        -0.0986
     34 C26        -6.1685   -4.8370    4.3117 C.ar      1 <0>        -0.1228
     35 C27        -8.0358    2.3562    6.1060 C.3       1 <0>         0.5081
     36 F1         -7.4690    3.2475    7.0233 F         1 <0>        -0.1771
     37 F2         -9.1673    2.9401    5.5265 F         1 <0>        -0.1702
     38 F3         -8.4048    1.1793    6.7664 F         1 <0>        -0.1828
     39 O4         -0.1002    1.3688    0.3236 O.3       1 <0>        -0.5492
     40 H2          1.8604   -0.3347    1.0729 H         1 <0>         0.0764
     41 H3          0.3959   -0.5365    2.0643 H         1 <0>         0.0717
     42 H4          0.8576   -1.7943    0.8925 H         1 <0>         0.0745
     43 H5          0.7145   -1.2330   -1.6290 H         1 <0>         0.0786
     44 H6          0.1624    0.3920   -2.1013 H         1 <0>         0.0695
     45 H7          1.7284    0.1878   -1.2802 H         1 <0>         0.0681
     46 H8         -1.9721   -0.1488    2.9763 H         1 <0>         0.0669
     47 H9         -0.8734    0.8169    1.9568 H         1 <0>         0.1252
     48 H10        -2.7213    2.1502    3.1250 H         1 <0>         0.0958
     49 H11        -2.6538    2.3451    1.3539 H         1 <0>         0.0785
     50 H12        -5.6274   -0.0220    1.0070 H         1 <0>         0.0978
     51 H13        -4.5287    0.9437   -0.0124 H         1 <0>         0.0737
     52 H14        -3.7816   -1.3472   -0.1655 H         1 <0>         0.1041
     53 H15        -3.8514   -1.5473    1.6049 H         1 <0>         0.0747
     54 H16        -3.8660    2.7623    4.1195 H         1 <0>         0.1376
     55 H17        -5.5137    3.2813    5.8689 H         1 <0>         0.1423
     56 H18        -6.6920    0.1950    2.1959 H         1 <0>         0.1370
     57 H19       -11.9021    0.5012    3.4479 H         1 <0>         0.4319
     58 H20        -7.7302   -1.2636    6.7946 H         1 <0>         0.1784
     59 H21        -8.4926   -2.8273    1.9676 H         1 <0>         0.1191
     60 H22        -7.3797   -4.8650    1.1590 H         1 <0>         0.1257
     61 H23        -5.9046   -6.1471    2.6517 H         1 <0>         0.1274
     62 H24        -5.5204   -5.4081    4.9600 H         1 <0>         0.1220
     63 H25         0.7475    1.8308    0.3787 H         1 <0>         0.3863
@<TRIPOS>BOND
     1    1    2 1
     2    1   40 1
     3    1   41 1
     4    1   42 1
     5    2    3 1
     6    2    4 1
     7    2   39 1
     8    3   43 1
     9    3   44 1
    10    3   45 1
    11    4    5 2
    12    4    6 am
    13    6   11 1
    14    6    7 1
    15    7    8 1
    16    7   46 1
    17    7   47 1
    18    8    9 1
    19    8   48 1
    20    8   49 1
    21    9   10 1
    22    9   12 1
    23   10   11 1
    24   10   50 1
    25   10   51 1
    26   11   52 1
    27   11   53 1
    28   12   17 ar
    29   12   13 ar
    30   13   14 ar
    31   13   54 1
    32   14   15 ar
    33   14   55 1
    34   15   16 ar
    35   15   35 1
    36   16   17 ar
    37   16   18 1
    38   17   56 1
    39   18   23 1
    40   18   19 2
    41   19   20 1
    42   19   25 1
    43   20   21 2
    44   20   22 am
    45   22   23 am
    46   22   57 1
    47   23   24 2
    48   25   30 1
    49   25   26 2
    50   26   27 1
    51   26   58 1
    52   27   28 1
    53   27   29 1
    54   29   34 ar
    55   29   30 ar
    56   30   31 ar
    57   31   32 ar
    58   31   59 1
    59   32   33 ar
    60   32   60 1
    61   33   34 ar
    62   33   61 1
    63   34   62 1
    64   35   36 1
    65   35   37 1
    66   35   38 1
    67   39   63 1
@<TRIPOS>MOLECULE
ZINC03818808
   43    45     0     0     0
SMALL
USER_CHARGES

@<TRIPOS>ATOM
      1 C1         -0.1632    1.4289   -0.0427 C.3       1 <0>        -0.1412
      2 C2         -0.0864   -0.0984    0.0043 C.3       1 <0>        -0.0993
      3 H1          0.4045   -0.4653   -0.8971 H         1 <0>         0.0854
      4 C3         -1.5005   -0.6778    0.0865 C.3       1 <0>        -0.1618
      5 C4         -1.4214   -2.2076    0.0985 C.3       1 <0>         0.0979
      6 N1         -0.5332   -2.6266    1.1913 N.am      1 <0>        -0.6084
      7 C5          0.8204   -2.0592    1.2586 C.3       1 <0>         0.1008
      8 C6          0.7158   -0.5310    1.2337 C.3       1 <0>         0.1392
      9 H2          1.7154   -0.0989    1.1864 H         1 <0>         0.1227
     10 N2          0.0389   -0.0672    2.4474 N.pl3     1 <0>        -0.5724
     11 C7         -1.3008   -0.5622    2.7736 C.3       1 <0>         0.0568
     12 C8          0.6646    0.8382    3.2852 C.ar      1 <0>         0.4913
     13 C9         -0.0139    1.3910    4.3823 C.ar      1 <0>        -0.2606
     14 C10        -1.3557    1.2550    4.9458 C.2       1 <0>        -0.1714
     15 C11        -1.4077    2.0560    6.0226 C.2       1 <0>         0.0373
     16 N3         -0.2038    2.6908    6.1878 N.pl3     1 <0>        -0.5701
     17 H3          0.0007    3.3193    6.8977 H         1 <0>         0.4217
     18 C12         0.6666    2.3073    5.2049 C.ar      1 <0>         0.3412
     19 N4          1.9288    2.6138    4.9083 N.ar      1 <0>        -0.5745
     20 C13         2.5254    2.0715    3.8692 C.ar      1 <0>         0.3621
     21 N5          1.9260    1.2026    3.0748 N.ar      1 <0>        -0.6016
     22 C14        -0.9523   -3.5144    2.1147 C.2       1 <0>         0.5178
     23 O1         -0.2095   -3.8523    3.0120 O.2       1 <0>        -0.5153
     24 C15        -2.3438   -4.0872    2.0324 C.3       1 <0>        -0.0460
     25 C16        -2.5552   -5.0247    3.1474 C.1       1 <0>         0.2103
     26 N6         -2.7185   -5.7482    4.0078 N.1       1 <0>        -0.4023
     27 H4          0.8439    1.8417   -0.1017 H         1 <0>         0.0576
     28 H5         -0.7342    1.7372   -0.9185 H         1 <0>         0.0554
     29 H6         -0.6541    1.7959    0.8587 H         1 <0>         0.0527
     30 H7         -1.9831   -0.3313    1.0004 H         1 <0>         0.0936
     31 H8         -2.0787   -0.3501   -0.7775 H         1 <0>         0.0813
     32 H9         -2.4164   -2.6237    0.2564 H         1 <0>         0.0917
     33 H10        -1.0222   -2.5603   -0.8525 H         1 <0>         0.0812
     34 H11         1.3045   -2.3773    2.1818 H         1 <0>         0.1011
     35 H12         1.4023   -2.3998    0.4022 H         1 <0>         0.0864
     36 H13        -1.4613   -1.5240    2.2863 H         1 <0>         0.0974
     37 H14        -1.3908   -0.6824    3.8532 H         1 <0>         0.0714
     38 H15        -2.0469    0.1513    2.4239 H         1 <0>         0.0596
     39 H16        -2.1522    0.6306    4.5687 H         1 <0>         0.1530
     40 H17        -2.2689    2.1817    6.6620 H         1 <0>         0.1790
     41 H18         3.5491    2.3441    3.6594 H         1 <0>         0.1974
     42 H19        -3.0733   -3.2796    2.0934 H         1 <0>         0.1393
     43 H20        -2.4641   -4.6148    1.0862 H         1 <0>         0.1422
@<TRIPOS>BOND
     1    1    2 1
     2    1   27 1
     3    1   28 1
     4    1   29 1
     5    2    3 1
     6    2    8 1
     7    2    4 1
     8    4    5 1
     9    4   30 1
    10    4   31 1
    11    5    6 1
    12    5   32 1
    13    5   33 1
    14    6    7 1
    15    6   22 am
    16    7    8 1
    17    7   34 1
    18    7   35 1
    19    8    9 1
    20    8   10 1
    21   10   11 1
    22   10   12 1
    23   11   36 1
    24   11   37 1
    25   11   38 1
    26   12   21 ar
    27   12   13 ar
    28   13   18 ar
    29   13   14 1
    30   14   15 2
    31   14   39 1
    32   15   16 1
    33   15   40 1
    34   16   17 1
    35   16   18 1
    36   18   19 ar
    37   19   20 ar
    38   20   21 ar
    39   20   41 1
    40   22   23 2
    41   22   24 1
    42   24   25 1
    43   24   42 1
    44   24   43 1
    45   25   26 3
@<TRIPOS>MOLECULE
ZINC03818808
   44    46     0     0     0
SMALL
USER_CHARGES

@<TRIPOS>ATOM
      1 C1          1.0751    1.2737   -0.0434 C.3       1 <0>        -0.1717
      2 C2          0.9577   -0.2392    0.1521 C.3       1 <0>        -0.1047
      3 H1          1.6206   -0.7482   -0.5476 H         1 <0>         0.1065
      4 C3         -0.4865   -0.6759   -0.1043 C.3       1 <0>        -0.1315
      5 C4         -0.5928   -2.1955    0.0584 C.3       1 <0>         0.0881
      6 N1         -0.0762   -2.5665    1.3829 N.am      1 <0>        -0.6217
      7 C5          1.2696   -2.1192    1.7670 C.3       1 <0>         0.0703
      8 C6          1.3546   -0.6005    1.5853 C.3       1 <0>         0.1548
      9 H2          2.3753   -0.2682    1.7748 H         1 <0>         0.1151
     10 N2          0.4432    0.0566    2.5254 N.pl3     1 <0>        -0.6726
     11 C7          0.2147    1.5009    2.4360 C.3       1 <0>         0.0820
     12 C8         -0.1863   -0.6692    3.4747 C.cat     1 <0>         0.6538
     13 N3         -1.4115   -1.1477    3.3110 N.pl3     1 <0>        -0.5444
     14 C9         -2.0279   -1.8522    4.2561 C.2       1 <0>         0.3321
     15 N4         -1.4500   -2.3911    5.3069 N.2       1 <0>        -0.3576
     16 C10        -0.1425   -2.2304    5.4947 C.2       1 <0>         0.3486
     17 N5          0.8810   -2.7839    6.0628 N.2       1 <0>        -0.3868
     18 C11         2.0466   -2.4288    5.4730 C.2       1 <0>         0.0742
     19 C12         1.8950   -1.3891    4.6394 C.2       1 <0>        -0.1875
     20 C13         0.4539   -1.0025    4.7995 C.3       1 <0>        -0.1965
     21 H3          0.3826   -0.1407    5.4632 H         1 <0>         0.2035
     22 C14        -0.8228   -3.3029    2.2295 C.2       1 <0>         0.4987
     23 O1         -0.4185   -3.5355    3.3491 O.2       1 <0>        -0.5208
     24 C15        -2.1600   -3.8373    1.7851 C.3       1 <0>        -0.0470
     25 C16        -2.7721   -4.6027    2.8834 C.1       1 <0>         0.1796
     26 N6         -3.2445   -5.1934    3.7309 N.1       1 <0>        -0.3579
     27 H4          1.9917    1.6307    0.4261 H         1 <0>         0.0671
     28 H5          1.1000    1.5016   -1.1090 H         1 <0>         0.0701
     29 H6          0.2170    1.7667    0.4136 H         1 <0>         0.0716
     30 H7         -1.1471   -0.1863    0.6113 H         1 <0>         0.0598
     31 H8         -0.7764   -0.3973   -1.1174 H         1 <0>         0.1011
     32 H9         -1.6361   -2.4998   -0.0253 H         1 <0>         0.1003
     33 H10        -0.0031   -2.6879   -0.7149 H         1 <0>         0.0960
     34 H11         1.4551   -2.3733    2.8106 H         1 <0>         0.1127
     35 H12         2.0111   -2.6054    1.1331 H         1 <0>         0.1150
     36 H13        -0.6534    1.6930    1.8054 H         1 <0>         0.0747
     37 H14         0.0356    1.9028    3.4332 H         1 <0>         0.0735
     38 H15         1.0920    1.9814    2.0027 H         1 <0>         0.1163
     39 H16        -3.0936   -1.9931    4.1516 H         1 <0>         0.2346
     40 H17         2.9889   -2.9247    5.6530 H         1 <0>         0.1925
     41 H18         2.6381   -0.9370    3.9993 H         1 <0>         0.1817
     42 H19        -2.8114   -3.0064    1.5141 H         1 <0>         0.1360
     43 H20        -2.0224   -4.4878    0.9214 H         1 <0>         0.1536
     44 H21        -1.8737   -0.9784    2.4752 H         1 <0>         0.4370
@<TRIPOS>BOND
     1    1    2 1
     2    1   27 1
     3    1   28 1
     4    1   29 1
     5    2    3 1
     6    2    8 1
     7    2    4 1
     8    4    5 1
     9    4   30 1
    10    4   31 1
    11    5    6 1
    12    5   32 1
    13    5   33 1
    14    6    7 1
    15    6   22 am
    16    7    8 1
    17    7   34 1
    18    7   35 1
    19    8    9 1
    20    8   10 1
    21   10   11 1
    22   10   12 1
    23   11   36 1
    24   11   37 1
    25   11   38 1
    26   12   20 1
    27   12   13 2
    28   13   14 1
    29   13   44 1
    30   14   15 2
    31   14   39 1
    32   15   16 1
    33   16   20 1
    34   16   17 2
    35   17   18 1
    36   18   19 2
    37   18   40 1
    38   19   20 1
    39   19   41 1
    40   20   21 1
    41   22   23 2
    42   22   24 1
    43   24   25 1
    44   24   42 1
    45   24   43 1
    46   25   26 3
