@<TRIPOS>MOLECULE
ZINC03814434
   62    69     0     0     0
SMALL
USER_CHARGES

@<TRIPOS>ATOM
      1 C1         -0.1295    1.5952   -0.2973 C.3       1 <0>        -0.1687
      2 C2         -0.0862    0.0696   -0.1900 C.3       1 <0>         0.3342
      3 C3          0.5692   -0.4501   -1.4637 C.3       1 <0>         0.0405
      4 H1          1.4796    0.1159   -1.6612 H         1 <0>         0.1372
      5 C4          0.9167   -1.9328   -1.2889 C.3       1 <0>        -0.0061
      6 H2          1.3963   -2.3075   -2.1932 H         1 <0>         0.1555
      7 C5          1.8785   -2.0596   -0.1021 C.3       1 <0>        -0.1827
      8 C6          1.2061   -1.5198    1.1541 C.3       1 <0>         0.2999
      9 H3          1.9797   -1.4243    1.9161 H         1 <0>         0.1550
     10 O1          0.6555   -0.2442    0.9666 O.3       1 <0>        -0.3234
     11 N1          0.2189   -2.4746    1.6600 N.pl3     1 <0>        -0.5366
     12 C7          0.4705   -3.5508    2.4739 C.ar      1 <0>         0.1469
     13 C8          1.6649   -4.0152    3.0240 C.ar      1 <0>        -0.1522
     14 C9          1.5948   -5.1456    3.8201 C.ar      1 <0>        -0.0582
     15 C10         0.4006   -5.7997    4.0696 C.ar      1 <0>        -0.1457
     16 C11        -0.7984   -5.3597    3.5358 C.ar      1 <0>        -0.0280
     17 C12        -0.7487   -4.2198    2.7307 C.ar      1 <0>        -0.1131
     18 C13        -1.7893   -3.4830    2.0197 C.ar      1 <0>         0.0276
     19 C14        -1.1442   -2.4197    1.3841 C.ar      1 <0>         0.0376
     20 C15        -1.8806   -1.5095    0.6175 C.ar      1 <0>         0.0894
     21 N2         -1.4718   -0.3951   -0.1095 N.pl3     1 <0>        -0.5183
     22 C16        -2.5611    0.1913   -0.7090 C.ar      1 <0>         0.1618
     23 C17        -2.6521    1.3277   -1.5118 C.ar      1 <0>        -0.1305
     24 C18        -3.9109    1.6745   -1.9733 C.ar      1 <0>        -0.0737
     25 C19        -5.0393    0.9368   -1.6616 C.ar      1 <0>        -0.1358
     26 C20        -4.9745   -0.1955   -0.8662 C.ar      1 <0>        -0.0503
     27 C21        -3.7147   -0.5596   -0.3919 C.ar      1 <0>        -0.1042
     28 C22        -3.2693   -1.6660    0.4845 C.ar      1 <0>        -0.0360
     29 C23        -3.9084   -2.7313    1.1102 C.ar      1 <0>        -0.0288
     30 C24        -3.1873   -3.6421    1.8754 C.ar      1 <0>        -0.1255
     31 C25        -4.1221   -4.6480    2.4030 C.2       1 <0>         0.5632
     32 O2         -3.8062   -5.5851    3.1110 O.2       1 <0>        -0.5106
     33 N3         -5.3744   -4.3851    1.9926 N.am      1 <0>        -0.7162
     34 C26        -5.3495   -3.1771    1.1601 C.3       1 <0>         0.1358
     35 N4         -0.3067   -2.7008   -1.0216 N.4       1 <0>        -0.5252
     36 C27         0.0145   -4.1336   -0.9773 C.3       1 <0>        -0.0497
     37 O3         -0.3340   -0.2979   -2.5607 O.3       1 <0>        -0.3614
     38 C28         0.3101   -0.0933   -3.8198 C.3       1 <0>         0.0162
     39 H4          0.8261    2.0094    0.0240 H         1 <0>         0.0984
     40 H5         -0.3202    1.8814   -1.3317 H         1 <0>         0.1036
     41 H6         -0.9255    1.9818    0.3392 H         1 <0>         0.0921
     42 H7          2.1370   -3.1081    0.0458 H         1 <0>         0.1233
     43 H8          2.7835   -1.4869   -0.3048 H         1 <0>         0.1455
     44 H9          2.6036   -3.5149    2.8368 H         1 <0>         0.1365
     45 H10         2.5026   -5.5304    4.2610 H         1 <0>         0.1359
     46 H11         0.4045   -6.6780    4.6980 H         1 <0>         0.1352
     47 H12        -1.7278   -5.8736    3.7323 H         1 <0>         0.1600
     48 H13        -1.7792    1.9122   -1.7624 H         1 <0>         0.1440
     49 H14        -4.0153    2.5500   -2.5970 H         1 <0>         0.1336
     50 H15        -5.9967    1.2527   -2.0488 H         1 <0>         0.1332
     51 H16        -5.8575   -0.7687   -0.6249 H         1 <0>         0.1415
     52 H17        -6.1628   -4.9065    2.2103 H         1 <0>         0.4348
     53 H18        -5.9671   -2.3994    1.6094 H         1 <0>         0.1115
     54 H19        -5.7060   -3.4063    0.1559 H         1 <0>         0.1103
     55 H20        -0.6958   -2.4158   -0.1353 H         1 <0>         0.4186
     56 H21         0.4349   -4.4415   -1.9347 H         1 <0>         0.1256
     57 H22         0.7403   -4.3189   -0.1854 H         1 <0>         0.1191
     58 H23        -0.8932   -4.7035   -0.7789 H         1 <0>         0.1256
     59 H24         0.9168    0.8112   -3.7748 H         1 <0>         0.0633
     60 H25         0.9482   -0.9479   -4.0446 H         1 <0>         0.0514
     61 H26        -0.4433    0.0130   -4.6003 H         1 <0>         0.1100
     62 H27        -0.9785   -2.5293   -1.7546 H         1 <0>         0.4274
@<TRIPOS>BOND
     1    1    2 1
     2    1   39 1
     3    1   40 1
     4    1   41 1
     5    2   10 1
     6    2   21 1
     7    2    3 1
     8    3    4 1
     9    3    5 1
    10    3   37 1
    11    5    6 1
    12    5    7 1
    13    5   35 1
    14    7    8 1
    15    7   42 1
    16    7   43 1
    17    8    9 1
    18    8   10 1
    19    8   11 1
    20   11   19 1
    21   11   12 1
    22   12   17 ar
    23   12   13 ar
    24   13   14 ar
    25   13   44 1
    26   14   15 ar
    27   14   45 1
    28   15   16 ar
    29   15   46 1
    30   16   17 ar
    31   16   47 1
    32   17   18 1
    33   18   30 ar
    34   18   19 ar
    35   19   20 ar
    36   20   28 ar
    37   20   21 1
    38   21   22 1
    39   22   27 ar
    40   22   23 ar
    41   23   24 ar
    42   23   48 1
    43   24   25 ar
    44   24   49 1
    45   25   26 ar
    46   25   50 1
    47   26   27 ar
    48   26   51 1
    49   27   28 1
    50   28   29 ar
    51   29   34 1
    52   29   30 ar
    53   30   31 1
    54   31   32 2
    55   31   33 am
    56   33   34 1
    57   33   52 1
    58   34   53 1
    59   34   54 1
    60   35   36 1
    61   35   55 1
    62   35   62 1
    63   36   56 1
    64   36   57 1
    65   36   58 1
    66   37   38 1
    67   38   59 1
    68   38   60 1
    69   38   61 1
@<TRIPOS>MOLECULE
ZINC02560262
   38    42     0     0     0
SMALL
USER_CHARGES
3,4-bis(1H-indol-3-yl)pyrrole-2,5-dione
@<TRIPOS>ATOM
      1 C1          2.3783    1.4372   -0.0129 C.ar      1 <0>        -0.1378
      2 C2          2.3986    0.0500   -0.0201 C.ar      1 <0>        -0.0992
      3 C3          1.2234   -0.6696   -0.0130 C.ar      1 <0>        -0.1252
      4 C4          0.0021   -0.0041    0.0020 C.ar      1 <0>         0.0932
      5 C5         -0.0170    1.4005    0.0097 C.ar      1 <0>        -0.0762
      6 C6          1.1790    2.1150    0.0022 C.ar      1 <0>        -0.0746
      7 C7         -1.4387    1.7873    0.0313 C.2       1 <0>        -0.1393
      8 C8         -2.1564    0.6276    0.0268 C.2       1 <0>         0.1036
      9 N1         -1.3078   -0.4365    0.0127 N.pl3     1 <0>        -0.5847
     10 H1         -1.5846   -1.3661    0.0104 H         1 <0>         0.4208
     11 C9         -1.9786    3.1572    0.0460 C.2       1 <0>        -0.0287
     12 C10        -2.5428    3.8215    1.1288 C.2       1 <0>        -0.0283
     13 C11        -2.9252    5.1602    0.6339 C.2       1 <0>         0.5560
     14 O1         -3.4500    6.0359    1.2924 O.2       1 <0>        -0.4468
     15 N2         -2.6005    5.2457   -0.6672 N.am      1 <0>        -0.6911
     16 C12        -2.0361    4.1015   -1.0890 C.2       1 <0>         0.5560
     17 O2         -1.6390    3.8805   -2.2156 O.2       1 <0>        -0.4469
     18 C13        -2.7216    3.2977    2.4934 C.2       1 <0>        -0.1393
     19 C14        -1.7506    3.1292    3.4361 C.2       1 <0>         0.1037
     20 N3         -2.3001    2.6255    4.5750 N.pl3     1 <0>        -0.5848
     21 H2         -1.8075    2.4236    5.3858 H         1 <0>         0.4208
     22 C15        -3.6566    2.4375    4.4094 C.ar      1 <0>         0.0933
     23 C16        -3.9836    2.8469    3.1061 C.ar      1 <0>        -0.0762
     24 C17        -5.3006    2.7671    2.6589 C.ar      1 <0>        -0.0746
     25 C18        -6.2790    2.2863    3.5014 C.ar      1 <0>        -0.1378
     26 C19        -5.9574    1.8812    4.7888 C.ar      1 <0>        -0.0992
     27 C20        -4.6588    1.9542    5.2442 C.ar      1 <0>        -0.1252
     28 H3          3.3071    1.9883   -0.0193 H         1 <0>         0.1249
     29 H4          3.3446   -0.4710   -0.0317 H         1 <0>         0.1271
     30 H5          1.2506   -1.7492   -0.0194 H         1 <0>         0.1217
     31 H6          1.1660    3.1949    0.0080 H         1 <0>         0.1195
     32 H7         -3.2345    0.5634    0.0366 H         1 <0>         0.1766
     33 H8         -2.7524    6.0250   -1.2244 H         1 <0>         0.4287
     34 H9         -0.7049    3.3627    3.3006 H         1 <0>         0.1766
     35 H10        -5.5536    3.0819    1.6573 H         1 <0>         0.1194
     36 H11        -7.3010    2.2242    3.1580 H         1 <0>         0.1249
     37 H12        -6.7323    1.5052    5.4404 H         1 <0>         0.1271
     38 H13        -4.4196    1.6368    6.2484 H         1 <0>         0.1217
@<TRIPOS>BOND
     1    1    6 ar
     2    1    2 ar
     3    1   28 1
     4    2    3 ar
     5    2   29 1
     6    3    4 ar
     7    3   30 1
     8    4    9 1
     9    4    5 ar
    10    5    6 ar
    11    5    7 1
    12    6   31 1
    13    7    8 2
    14    7   11 1
    15    8    9 1
    16    8   32 1
    17    9   10 1
    18   11   16 1
    19   11   12 2
    20   12   13 1
    21   12   18 1
    22   13   14 2
    23   13   15 am
    24   15   16 am
    25   15   33 1
    26   16   17 2
    27   18   23 1
    28   18   19 2
    29   19   20 1
    30   19   34 1
    31   20   21 1
    32   20   22 1
    33   22   27 ar
    34   22   23 ar
    35   23   24 ar
    36   24   25 ar
    37   24   35 1
    38   25   26 ar
    39   25   36 1
    40   26   27 ar
    41   26   37 1
    42   27   38 1
@<TRIPOS>MOLECULE
ZINC08195650
   59    58     0     0     0
SMALL
USER_CHARGES
2-aminooctadec-4-ene-1,3-diol
@<TRIPOS>ATOM
      1 C1        -14.6046    0.2647   13.8444 C.3       1 <0>        -0.1548
      2 C2        -13.8885   -0.2287   12.5856 C.3       1 <0>        -0.1261
      3 C3        -12.4960    0.4007   12.5112 C.3       1 <0>        -0.1215
      4 C4        -11.7798   -0.0927   11.2524 C.3       1 <0>        -0.1212
      5 C5        -10.3873    0.5367   11.1781 C.3       1 <0>        -0.1209
      6 C6         -9.6711    0.0433    9.9193 C.3       1 <0>        -0.1206
      7 C7         -8.2786    0.6727    9.8449 C.3       1 <0>        -0.1210
      8 C8         -7.5624    0.1793    8.5861 C.3       1 <0>        -0.1206
      9 C9         -6.1699    0.8087    8.5117 C.3       1 <0>        -0.1214
     10 C10        -5.4537    0.3153    7.2529 C.3       1 <0>        -0.1205
     11 C11        -4.0612    0.9447    7.1786 C.3       1 <0>        -0.1222
     12 C12        -3.3451    0.4513    5.9198 C.3       1 <0>        -0.1156
     13 C13        -1.9525    1.0807    5.8454 C.3       1 <0>        -0.1069
     14 C14        -1.2471    0.5947    4.6055 C.2       1 <0>        -0.0724
     15 C15        -0.7691    1.4573    3.7432 C.2       1 <0>        -0.2755
     16 C16        -0.0638    0.9713    2.5033 C.3       1 <0>         0.1385
     17 H1          0.9829    1.2737    2.5386 H         1 <0>         0.1274
     18 C17        -0.7288    1.5792    1.2668 C.3       1 <0>         0.0066
     19 H2         -1.7755    1.2768    1.2315 H         1 <0>         0.1475
     20 C18        -0.0127    1.0858    0.0080 C.3       1 <0>         0.0501
     21 O1         -0.7038    1.5592   -1.1497 O.3       1 <0>        -0.5828
     22 O2         -0.1458   -0.4537    2.4363 O.3       1 <0>        -0.5290
     23 H3        -14.0294   -0.0207   14.7252 H         1 <0>         0.0537
     24 H4        -14.6980    1.3501   13.8075 H         1 <0>         0.0534
     25 H5        -15.5967   -0.1837   13.8974 H         1 <0>         0.0544
     26 H6        -14.4637    0.0567   11.7048 H         1 <0>         0.0602
     27 H7        -13.7951   -1.3141   12.6225 H         1 <0>         0.0605
     28 H8        -11.9207    0.1153   13.3920 H         1 <0>         0.0609
     29 H9        -12.5893    1.4861   12.4743 H         1 <0>         0.0605
     30 H10       -12.3551    0.1927   10.3717 H         1 <0>         0.0604
     31 H11       -11.6865   -1.1781   11.2894 H         1 <0>         0.0608
     32 H12        -9.8120    0.2513   12.0588 H         1 <0>         0.0609
     33 H13       -10.4806    1.6221   11.1411 H         1 <0>         0.0604
     34 H14       -10.2464    0.3287    9.0385 H         1 <0>         0.0602
     35 H15        -9.5778   -1.0421    9.9562 H         1 <0>         0.0608
     36 H16        -7.7033    0.3873   10.7256 H         1 <0>         0.0612
     37 H17        -8.3719    1.7581    9.8080 H         1 <0>         0.0604
     38 H18        -8.1377    0.4647    7.7053 H         1 <0>         0.0600
     39 H19        -7.4691   -0.9061    8.6230 H         1 <0>         0.0612
     40 H20        -5.5946    0.5233    9.3925 H         1 <0>         0.0621
     41 H21        -6.2632    1.8941    8.4748 H         1 <0>         0.0606
     42 H22        -6.0290    0.6007    6.3722 H         1 <0>         0.0601
     43 H23        -5.3604   -0.7701    7.2899 H         1 <0>         0.0626
     44 H24        -3.4860    0.6593    8.0593 H         1 <0>         0.0652
     45 H25        -4.1546    2.0301    7.1416 H         1 <0>         0.0618
     46 H26        -3.9203    0.7367    5.0390 H         1 <0>         0.0616
     47 H27        -3.2517   -0.6341    5.9567 H         1 <0>         0.0679
     48 H28        -1.3773    0.7953    6.7261 H         1 <0>         0.0872
     49 H29        -2.0459    2.1661    5.8085 H         1 <0>         0.0708
     50 H30        -1.1357   -0.4647    4.4278 H         1 <0>         0.1271
     51 H31        -0.8806    2.5168    3.9209 H         1 <0>         0.1203
     52 H32         0.0021   -0.0041    0.0020 H         1 <0>         0.1022
     53 H33         1.0099    1.4631    0.0003 H         1 <0>         0.0749
     54 H34        -0.3044    1.2838   -1.9862 H         1 <0>         0.4126
     55 H35        -1.1648    3.3997    2.1238 H         1 <0>         0.4373
     56 H36         0.3165    3.3498    1.3694 H         1 <0>         0.4353
     57 H37        -1.0502   -0.7944    2.4021 H         1 <0>         0.3905
     58 N1         -0.6555    3.0502    1.3138 N.4       1 <0>        -0.6366
     59 H38        -1.0768    3.4365    0.4609 H         1 <0>         0.4493
@<TRIPOS>BOND
     1    1    2 1
     2    1   23 1
     3    1   24 1
     4    1   25 1
     5    2    3 1
     6    2   26 1
     7    2   27 1
     8    3    4 1
     9    3   28 1
    10    3   29 1
    11    4    5 1
    12    4   30 1
    13    4   31 1
    14    5    6 1
    15    5   32 1
    16    5   33 1
    17    6    7 1
    18    6   34 1
    19    6   35 1
    20    7    8 1
    21    7   36 1
    22    7   37 1
    23    8    9 1
    24    8   38 1
    25    8   39 1
    26    9   10 1
    27    9   40 1
    28    9   41 1
    29   10   11 1
    30   10   42 1
    31   10   43 1
    32   11   12 1
    33   11   44 1
    34   11   45 1
    35   12   13 1
    36   12   46 1
    37   12   47 1
    38   13   14 1
    39   13   48 1
    40   13   49 1
    41   14   15 2
    42   14   50 1
    43   15   16 1
    44   15   51 1
    45   16   17 1
    46   16   18 1
    47   16   22 1
    48   18   19 1
    49   18   20 1
    50   18   58 1
    51   20   21 1
    52   20   52 1
    53   20   53 1
    54   21   54 1
    55   22   57 1
    56   55   58 1
    57   56   58 1
    58   58   59 1
