@<TRIPOS>MOLECULE
ZINC02043204
   48    50     0     0     0
SMALL
USER_CHARGES

@<TRIPOS>ATOM
      1 C1          2.5162    0.9496    1.4171 C.ar      1 <0>        -0.1558
      2 C2          1.8179    1.8754    0.7027 C.ar      1 <0>        -0.0089
      3 C3          0.8924    1.4496   -0.2625 C.ar      1 <0>        -0.1400
      4 C4          0.1441    2.3570   -1.0300 C.ar      1 <0>         0.1716
      5 N1         -0.7096    1.9109   -1.9214 N.ar      1 <0>        -0.4887
      6 C5         -0.9082    0.6184   -2.1416 C.ar      1 <0>         0.1175
      7 C6         -0.2327   -0.3410   -1.4505 C.ar      1 <0>        -0.1972
      8 C7          0.7007    0.0595   -0.4769 C.ar      1 <0>         0.0581
      9 C8          1.4373   -0.8645    0.2774 C.ar      1 <0>        -0.6935
     10 C9          2.3271   -0.4146    1.2059 C.ar      1 <0>         0.0350
     11 S1          1.2137   -2.5943    0.0269 S.o2      1 <0>         2.6977
     12 O1          2.1244   -3.2517    0.8974 O.2       1 <0>        -0.9448
     13 O2         -0.1865   -2.8329    0.0680 O.2       1 <0>        -0.9312
     14 N2          1.7064   -2.9332   -1.5173 N.pl3     1 <0>        -1.1162
     15 C10         3.1062   -2.7326   -1.9002 C.3       1 <0>         0.0916
     16 C11         3.3893   -3.4769   -3.2066 C.3       1 <0>        -0.0177
     17 N3          4.7929   -3.2757   -3.5905 N.4       1 <0>        -0.5066
     18 C12         5.0647   -3.9903   -4.8449 C.3       1 <0>         0.0395
     19 C13         6.5046   -3.7840   -5.2387 C.2       1 <0>        -0.2534
     20 C14         7.2882   -4.8305   -5.4586 C.2       1 <0>        -0.0124
     21 C15         8.7005   -4.6281   -5.8449 C.ar      1 <0>        -0.0865
     22 C16         9.2134   -3.3367   -5.9733 C.ar      1 <0>        -0.0932
     23 C17        10.5324   -3.1541   -6.3336 C.ar      1 <0>        -0.0930
     24 C18        11.3467   -4.2489   -6.5682 C.ar      1 <0>        -0.0711
     25 C19        10.8435   -5.5324   -6.4424 C.ar      1 <0>        -0.0912
     26 C20         9.5277   -5.7277   -6.0770 C.ar      1 <0>        -0.0822
     27 Br1        13.1533   -3.9899   -7.0630 Br        1 <0>        -0.0276
     28 H1          3.2315    1.2784    2.1565 H         1 <0>         0.1450
     29 H2          1.9750    2.9294    0.8779 H         1 <0>         0.1486
     30 H3          0.2706    3.4199   -0.8866 H         1 <0>         0.1731
     31 H4         -1.6264    0.3180   -2.8902 H         1 <0>         0.1633
     32 H5         -0.4102   -1.3883   -1.6456 H         1 <0>         0.1411
     33 H6          2.8949   -1.1263    1.7868 H         1 <0>         0.1512
     34 H7          1.0683   -3.2645   -2.1683 H         1 <0>         0.4272
     35 H8          3.2957   -1.6683   -2.0399 H         1 <0>         0.0890
     36 H9          3.7565   -3.1173   -1.1145 H         1 <0>         0.1050
     37 H10         3.1998   -4.5411   -3.0669 H         1 <0>         0.1445
     38 H11         2.7390   -3.0921   -3.9922 H         1 <0>         0.1424
     39 H12         4.9683   -2.2905   -3.7199 H         1 <0>         0.4308
     40 H13         4.8752   -5.0546   -4.7051 H         1 <0>         0.1348
     41 H14         4.4144   -3.6056   -5.6305 H         1 <0>         0.1403
     42 H15         6.8982   -2.7835   -5.3419 H         1 <0>         0.1396
     43 H16         6.8946   -5.8309   -5.3555 H         1 <0>         0.1348
     44 H17         8.5789   -2.4819   -5.7913 H         1 <0>         0.1337
     45 H18        10.9305   -2.1552   -6.4334 H         1 <0>         0.1407
     46 H19        11.4834   -6.3826   -6.6269 H         1 <0>         0.1428
     47 H20         9.1374   -6.7295   -5.9748 H         1 <0>         0.1397
     48 H21         5.3949   -3.6319   -2.8633 H         1 <0>         0.4327
@<TRIPOS>BOND
     1    1   10 ar
     2    1    2 ar
     3    1   28 1
     4    2    3 ar
     5    2   29 1
     6    3    8 ar
     7    3    4 ar
     8    4    5 ar
     9    4   30 1
    10    5    6 ar
    11    6    7 ar
    12    6   31 1
    13    7    8 ar
    14    7   32 1
    15    8    9 ar
    16    9   10 ar
    17    9   11 1
    18   10   33 1
    19   11   12 2
    20   11   13 2
    21   11   14 1
    22   14   15 1
    23   14   34 1
    24   15   16 1
    25   15   35 1
    26   15   36 1
    27   16   17 1
    28   16   37 1
    29   16   38 1
    30   17   18 1
    31   17   39 1
    32   17   48 1
    33   18   19 1
    34   18   40 1
    35   18   41 1
    36   19   20 2
    37   19   42 1
    38   20   21 1
    39   20   43 1
    40   21   26 ar
    41   21   22 ar
    42   22   23 ar
    43   22   44 1
    44   23   24 ar
    45   23   45 1
    46   24   25 ar
    47   24   27 1
    48   25   26 ar
    49   25   46 1
    50   26   47 1
@<TRIPOS>MOLECULE
ZINC34371722
   32    35     0     0     0
SMALL
USER_CHARGES

@<TRIPOS>ATOM
      1 C1         -0.0167    1.3786    0.0096 C.ar      1 <0>        -0.0992
      2 C2          1.1696    2.0892    0.0021 C.ar      1 <0>        -0.1009
      3 C3          2.3774    1.4194   -0.0135 C.ar      1 <0>        -0.0868
      4 C4          2.3996    0.0309   -0.0212 C.ar      1 <0>         0.1023
      5 C5          1.2065   -0.6797   -0.0132 C.ar      1 <0>        -0.1019
      6 C6          0.0021   -0.0041    0.0020 C.ar      1 <0>        -0.1064
      7 N1          3.6225   -0.6512   -0.0375 N.pl3     1 <0>        -0.4206
      8 C7          4.1021   -1.4514   -1.0568 C.ar      1 <0>         0.0694
      9 C8          3.6084   -1.8316   -2.2971 C.ar      1 <0>        -0.1075
     10 C9          4.3538   -2.6660   -3.1029 C.ar      1 <0>        -0.0860
     11 C10         5.5934   -3.1281   -2.6823 C.ar      1 <0>        -0.1214
     12 C11         6.0963   -2.7653   -1.4656 C.ar      1 <0>        -0.0553
     13 C12         5.3586   -1.9191   -0.6303 C.ar      1 <0>         0.0508
     14 N2          5.5844   -1.3971    0.5988 N.2       1 <0>        -0.4516
     15 C13         4.5709   -0.6456    0.9523 C.2       1 <0>         0.3285
     16 C14         4.4647    0.0947    2.2285 C.2       1 <0>         0.1298
     17 C15         5.4718    0.1173    3.2969 C.2       1 <0>         0.3642
     18 N3          5.0285    0.8748    4.2620 N.2       1 <0>        -0.3525
     19 O1          3.7551    1.3653    3.8823 O.3       1 <0>         0.0400
     20 N4          3.4597    0.8466    2.5976 N.2       1 <0>        -0.2360
     21 N5          6.6877   -0.5535    3.2826 N.pl3     1 <0>        -0.8022
     22 H1         -0.9598    1.9046    0.0260 H         1 <0>         0.1334
     23 H2          1.1517    3.1690    0.0081 H         1 <0>         0.1352
     24 H3          3.3035    1.9749   -0.0201 H         1 <0>         0.1235
     25 H4          1.2205   -1.7596   -0.0195 H         1 <0>         0.1285
     26 H5         -0.9261   -0.5562    0.0079 H         1 <0>         0.1351
     27 H6          2.6444   -1.4758   -2.6294 H         1 <0>         0.1278
     28 H7          3.9705   -2.9623   -4.0681 H         1 <0>         0.1368
     29 H8          6.1658   -3.7816   -3.3238 H         1 <0>         0.1367
     30 H9          7.0617   -3.1311   -1.1484 H         1 <0>         0.1371
     31 H10         6.9329   -1.0968    2.5174 H         1 <0>         0.4307
     32 H11         7.2918   -0.4786    4.0378 H         1 <0>         0.4182
@<TRIPOS>BOND
     1    1    6 ar
     2    1    2 ar
     3    1   22 1
     4    2    3 ar
     5    2   23 1
     6    3    4 ar
     7    3   24 1
     8    4    5 ar
     9    4    7 1
    10    5    6 ar
    11    5   25 1
    12    6   26 1
    13    7   15 1
    14    7    8 1
    15    8   13 ar
    16    8    9 ar
    17    9   10 ar
    18    9   27 1
    19   10   11 ar
    20   10   28 1
    21   11   12 ar
    22   11   29 1
    23   12   13 ar
    24   12   30 1
    25   13   14 1
    26   14   15 2
    27   15   16 1
    28   16   20 2
    29   16   17 1
    30   17   18 2
    31   17   21 1
    32   18   19 1
    33   19   20 1
    34   21   31 1
    35   21   32 1
@<TRIPOS>MOLECULE
ZINC00053816
   32    35     0     0     0
SMALL
USER_CHARGES
4-[1-(cyclopropylmethyl)benzoimidazol-2-yl]-1,2,5-oxadiazol-3-amine
@<TRIPOS>ATOM
      1 C1          4.8805   -3.7251    1.3030 C.ar      1 <0>        -0.1247
      2 C2          3.5459   -3.5610    1.6481 C.ar      1 <0>        -0.0932
      3 C3          2.9579   -2.3153    1.5945 C.ar      1 <0>        -0.1078
      4 C4          3.7069   -1.2174    1.1928 C.ar      1 <0>         0.0622
      5 C5          5.0586   -1.3839    0.8403 C.ar      1 <0>         0.0499
      6 C6          5.6317   -2.6592    0.8977 C.ar      1 <0>        -0.0594
      7 N1          5.5366   -0.1631    0.5010 N.2       1 <0>        -0.4681
      8 C7          4.5843    0.7295    0.6136 C.2       1 <0>         0.3554
      9 N2          3.4306    0.1256    1.0355 N.pl3     1 <0>        -0.4661
     10 C8          2.1445    0.7830    1.2803 C.3       1 <0>         0.1379
     11 C9          1.3165    0.7789   -0.0063 C.3       1 <0>        -0.1751
     12 C10        -0.0187    1.5258    0.0104 C.3       1 <0>        -0.1609
     13 C11         0.0021   -0.0041    0.0020 C.3       1 <0>        -0.1746
     14 C12         4.7332    2.1733    0.3269 C.2       1 <0>         0.0202
     15 C13         5.9368    2.9099   -0.1250 C.2       1 <0>         0.3226
     16 N3          5.4977    4.1431   -0.2190 N.2       1 <0>        -0.4110
     17 O1          4.3320    4.1813    0.0972 O.3       1 <0>         0.3360
     18 N4          3.8316    3.1279    0.4145 N.2       1 <0>        -0.3189
     19 N5          7.2091    2.4184   -0.3859 N.pl3     1 <0>        -0.8004
     20 H1          5.3276   -4.7071    1.3495 H         1 <0>         0.1331
     21 H2          2.9640   -4.4155    1.9604 H         1 <0>         0.1334
     22 H3          1.9192   -2.1938    1.8642 H         1 <0>         0.1242
     23 H4          6.6697   -2.7981    0.6337 H         1 <0>         0.1328
     24 H5          2.3168    1.8113    1.5981 H         1 <0>         0.1074
     25 H6          1.6052    0.2469    2.0611 H         1 <0>         0.0953
     26 H7          1.8888    0.7918   -0.9339 H         1 <0>         0.1063
     27 H8         -0.3248    2.0300   -0.9061 H         1 <0>         0.1009
     28 H9         -0.3072    2.0201    0.9381 H         1 <0>         0.1003
     29 H10        -0.2728   -0.5162    0.9241 H         1 <0>         0.0972
     30 H11        -0.2904   -0.5063   -0.9201 H         1 <0>         0.0978
     31 H12         7.3960    1.4731   -0.2753 H         1 <0>         0.4300
     32 H13         7.9110    3.0205   -0.6789 H         1 <0>         0.4174
@<TRIPOS>BOND
     1    1    6 ar
     2    1    2 ar
     3    1   20 1
     4    2    3 ar
     5    2   21 1
     6    3    4 ar
     7    3   22 1
     8    4    9 1
     9    4    5 ar
    10    5    6 ar
    11    5    7 1
    12    6   23 1
    13    7    8 2
    14    8    9 1
    15    8   14 1
    16    9   10 1
    17   10   11 1
    18   10   24 1
    19   10   25 1
    20   11   13 1
    21   11   12 1
    22   11   26 1
    23   12   13 1
    24   12   27 1
    25   12   28 1
    26   13   29 1
    27   13   30 1
    28   14   18 2
    29   14   15 1
    30   15   16 2
    31   15   19 1
    32   16   17 1
    33   17   18 1
    34   19   31 1
    35   19   32 1
@<TRIPOS>MOLECULE
ZINC05481799
   34    36     0     0     0
SMALL
USER_CHARGES
4-(1-isobutylbenzoimidazol-2-yl)-1,2,5-oxadiazol-3-amine
@<TRIPOS>ATOM
      1 C1         -3.5703    2.5211   -2.0788 C.3       1 <0>        -0.1529
      2 C2         -4.1971    3.7307   -1.3824 C.3       1 <0>        -0.1080
      3 C3         -5.7197    3.5804   -1.3713 C.3       1 <0>        -0.1448
      4 C4         -3.6824    3.8144    0.0560 C.3       1 <0>         0.1080
      5 N1         -2.2413    4.0776    0.0444 N.pl3     1 <0>        -0.4655
      6 C5         -1.2361    3.1321    0.0298 C.ar      1 <0>         0.0631
      7 C6         -1.2185    1.7438    0.0173 C.ar      1 <0>        -0.1092
      8 C7         -0.0126    1.0758    0.0080 C.ar      1 <0>        -0.0938
      9 C8          1.1830    1.7812    0.0003 C.ar      1 <0>        -0.1250
     10 C9          1.1866    3.1467    0.0072 C.ar      1 <0>        -0.0594
     11 C10        -0.0247    3.8471    0.0220 C.ar      1 <0>         0.0495
     12 N2         -0.3380    5.1645    0.0320 N.2       1 <0>        -0.4686
     13 C11        -1.6401    5.3074    0.0452 C.2       1 <0>         0.3541
     14 C12        -2.3539    6.6034    0.0594 C.2       1 <0>         0.0216
     15 C13        -1.7891    7.9732    0.0674 C.2       1 <0>         0.3225
     16 N3         -2.8650    8.7249    0.0766 N.2       1 <0>        -0.4107
     17 O1         -3.8479    8.0221    0.0826 O.3       1 <0>         0.3355
     18 N4         -3.6501    6.8298    0.0738 N.2       1 <0>        -0.3215
     19 N5         -0.4565    8.3635    0.0635 N.pl3     1 <0>        -0.8003
     20 H1         -3.8418    1.6120   -1.5422 H         1 <0>         0.0582
     21 H2         -3.9370    2.4614   -3.1035 H         1 <0>         0.0612
     22 H3         -2.4856    2.6282   -2.0867 H         1 <0>         0.0568
     23 H4         -3.9257    4.6398   -1.9189 H         1 <0>         0.0747
     24 H5         -6.1662    4.4421   -0.8752 H         1 <0>         0.0630
     25 H6         -6.0864    3.5207   -2.3960 H         1 <0>         0.0640
     26 H7         -5.9911    2.6712   -0.8347 H         1 <0>         0.0589
     27 H8         -3.8753    2.8708    0.5664 H         1 <0>         0.0944
     28 H9         -4.1950    4.6218    0.5789 H         1 <0>         0.1037
     29 H10        -2.1454    1.1896    0.0190 H         1 <0>         0.1247
     30 H11         0.0021   -0.0041    0.0020 H         1 <0>         0.1331
     31 H12         2.1201    1.2444   -0.0115 H         1 <0>         0.1328
     32 H13         2.1228    3.6852    0.0015 H         1 <0>         0.1324
     33 H14         0.2451    7.6937    0.0544 H         1 <0>         0.4300
     34 H15        -0.2271    9.3060    0.0698 H         1 <0>         0.4174
@<TRIPOS>BOND
     1    1    2 1
     2    1   20 1
     3    1   21 1
     4    1   22 1
     5    2    3 1
     6    2    4 1
     7    2   23 1
     8    3   24 1
     9    3   25 1
    10    3   26 1
    11    4    5 1
    12    4   27 1
    13    4   28 1
    14    5   13 1
    15    5    6 1
    16    6   11 ar
    17    6    7 ar
    18    7    8 ar
    19    7   29 1
    20    8    9 ar
    21    8   30 1
    22    9   10 ar
    23    9   31 1
    24   10   11 ar
    25   10   32 1
    26   11   12 1
    27   12   13 2
    28   13   14 1
    29   14   18 2
    30   14   15 1
    31   15   16 2
    32   15   19 1
    33   16   17 1
    34   17   18 1
    35   19   33 1
    36   19   34 1
@<TRIPOS>MOLECULE
ZINC00591953
   63    68     0     0     0
SMALL
USER_CHARGES

@<TRIPOS>ATOM
      1 C1         -0.0178    1.4608    0.0101 C.3       1 <0>         0.0726
      2 N1          0.0021   -0.0041    0.0020 N.pl3     1 <0>        -0.4749
      3 C2          0.0078   -0.7756   -1.1193 C.2       1 <0>         0.1102
      4 C3          0.0272   -2.0937   -0.7697 C.2       1 <0>        -0.1473
      5 C4          0.0340   -2.1368    0.7032 C.ar      1 <0>        -0.0734
      6 C5          0.0236   -0.7983    1.1297 C.ar      1 <0>         0.0958
      7 C6          0.0323   -0.5163    2.4916 C.ar      1 <0>        -0.1199
      8 C7          0.0546   -1.5463    3.4071 C.ar      1 <0>        -0.1019
      9 C8          0.0691   -2.8675    2.9845 C.ar      1 <0>        -0.1411
     10 C9          0.0515   -3.1678    1.6397 C.ar      1 <0>        -0.0792
     11 C10         0.0386   -3.2475   -1.6846 C.2       1 <0>        -0.0124
     12 C11         1.1160   -3.7128   -2.4294 C.2       1 <0>        -0.0445
     13 C12         0.6193   -4.8843   -3.1804 C.2       1 <0>         0.5559
     14 O1          1.2728   -5.5643   -3.9462 O.2       1 <0>        -0.4477
     15 N2         -0.6758   -5.0722   -2.8752 N.am      1 <0>        -0.6903
     16 C13        -1.0913   -4.1487   -1.9919 C.2       1 <0>         0.5510
     17 O2         -2.2104   -4.0662   -1.5265 O.2       1 <0>        -0.4383
     18 C14         2.4770   -3.1515   -2.4634 C.2       1 <0>        -0.1072
     19 C15         2.9761   -2.1055   -3.3737 C.ar      1 <0>        -0.0768
     20 C16         2.3987   -1.3663   -4.4042 C.ar      1 <0>        -0.0735
     21 C17         3.1550   -0.4365   -5.0832 C.ar      1 <0>        -0.1333
     22 C18         4.4856   -0.2346   -4.7452 C.ar      1 <0>        -0.0909
     23 C19         5.0694   -0.9584   -3.7287 C.ar      1 <0>        -0.1280
     24 C20         4.3227   -1.9025   -3.0304 C.ar      1 <0>         0.1049
     25 N3          4.6223   -2.7584   -1.9913 N.pl3     1 <0>        -0.4790
     26 C21         3.5184   -3.4930   -1.6564 C.2       1 <0>         0.1097
     27 C22         3.4894   -4.5246   -0.5514 C.3       1 <0>        -0.0500
     28 C23         4.7179   -4.3078    0.3404 C.3       1 <0>        -0.1190
     29 H1          4.5933   -3.3903    0.9155 H         1 <0>         0.1048
     30 C24         5.9643   -4.1936   -0.5419 C.3       1 <0>        -0.1431
     31 C25         5.9259   -2.8788   -1.3218 C.3       1 <0>         0.1139
     32 C26         4.8723   -5.4931    1.2955 C.3       1 <0>        -0.0072
     33 N4          5.9761   -5.2297    2.2283 N.4       1 <0>        -0.3888
     34 C27         5.6329   -4.0847    3.0823 C.3       1 <0>        -0.0547
     35 C28         6.2024   -6.4150    3.0662 C.3       1 <0>        -0.0480
     36 H2          1.0048    1.8381    0.0023 H         1 <0>         0.0743
     37 H3         -0.5450    1.8219   -0.8730 H         1 <0>         0.0895
     38 H4         -0.5280    1.8123    0.9069 H         1 <0>         0.0864
     39 H5         -0.0018   -0.4009   -2.1322 H         1 <0>         0.1746
     40 H6          0.0219    0.5088    2.8314 H         1 <0>         0.1217
     41 H7          0.0613   -1.3227    4.4637 H         1 <0>         0.1270
     42 H8          0.0869   -3.6646    3.7130 H         1 <0>         0.1226
     43 H9          0.0641   -4.1972    1.3134 H         1 <0>         0.1164
     44 H10        -1.2322   -5.7787   -3.2388 H         1 <0>         0.4312
     45 H11         1.3634   -1.5218   -4.6694 H         1 <0>         0.1224
     46 H12         2.7103    0.1378   -5.8825 H         1 <0>         0.1288
     47 H13         5.0693    0.4968   -5.2844 H         1 <0>         0.1302
     48 H14         6.1059   -0.7935   -3.4741 H         1 <0>         0.1200
     49 H15         2.5809   -4.4054    0.0390 H         1 <0>         0.1041
     50 H16         3.5199   -5.5255   -0.9821 H         1 <0>         0.0994
     51 H17         6.8561   -4.2199    0.0843 H         1 <0>         0.0792
     52 H18         5.9895   -5.0266   -1.2445 H         1 <0>         0.0962
     53 H19         6.7216   -2.8643   -2.0666 H         1 <0>         0.0982
     54 H20         6.0579   -2.0487   -0.6277 H         1 <0>         0.0811
     55 H21         3.9477   -5.6307    1.8562 H         1 <0>         0.1387
     56 H22         5.0878   -6.3953    0.7230 H         1 <0>         0.1366
     57 H23         6.4519   -3.8893    3.7744 H         1 <0>         0.1263
     58 H24         5.4649   -3.2053    2.4606 H         1 <0>         0.1227
     59 H25         4.7272   -4.3100    3.6454 H         1 <0>         0.1263
     60 H26         6.4571   -7.2645    2.4326 H         1 <0>         0.1245
     61 H27         7.0215   -6.2196    3.7584 H         1 <0>         0.1258
     62 H28         5.2967   -6.6402    3.6293 H         1 <0>         0.1244
     63 H29         6.8145   -5.0212    1.7071 H         1 <0>         0.4230
@<TRIPOS>BOND
     1    1    2 1
     2    1   36 1
     3    1   37 1
     4    1   38 1
     5    2    6 1
     6    2    3 1
     7    3    4 2
     8    3   39 1
     9    4    5 1
    10    4   11 1
    11    5   10 ar
    12    5    6 ar
    13    6    7 ar
    14    7    8 ar
    15    7   40 1
    16    8    9 ar
    17    8   41 1
    18    9   10 ar
    19    9   42 1
    20   10   43 1
    21   11   16 1
    22   11   12 2
    23   12   13 1
    24   12   18 1
    25   13   14 2
    26   13   15 am
    27   15   16 am
    28   15   44 1
    29   16   17 2
    30   18   26 2
    31   18   19 1
    32   19   24 ar
    33   19   20 ar
    34   20   21 ar
    35   20   45 1
    36   21   22 ar
    37   21   46 1
    38   22   23 ar
    39   22   47 1
    40   23   24 ar
    41   23   48 1
    42   24   25 1
    43   25   31 1
    44   25   26 1
    45   26   27 1
    46   27   28 1
    47   27   49 1
    48   27   50 1
    49   28   29 1
    50   28   30 1
    51   28   32 1
    52   30   31 1
    53   30   51 1
    54   30   52 1
    55   31   53 1
    56   31   54 1
    57   32   33 1
    58   32   55 1
    59   32   56 1
    60   33   34 1
    61   33   35 1
    62   33   63 1
    63   34   57 1
    64   34   58 1
    65   34   59 1
    66   35   60 1
    67   35   61 1
    68   35   62 1
@<TRIPOS>MOLECULE
ZINC03783756
   63    68     0     0     0
SMALL
USER_CHARGES

@<TRIPOS>ATOM
      1 C1          1.8486    2.2781    0.2550 C.3       1 <0>         0.0719
      2 N1          1.5677    0.8458    0.1299 N.pl3     1 <0>        -0.4740
      3 C2          1.5578    0.1547   -1.0426 C.2       1 <0>         0.1126
      4 C3          1.2609   -1.1544   -0.8017 C.2       1 <0>        -0.1524
      5 C4          1.0705   -1.2801    0.6541 C.ar      1 <0>        -0.0730
      6 C5          1.2812    0.0037    1.1844 C.ar      1 <0>         0.0956
      7 C6          1.1737    0.2008    2.5569 C.ar      1 <0>        -0.1174
      8 C7          0.8666   -0.8596    3.3821 C.ar      1 <0>        -0.1009
      9 C8          0.6629   -2.1275    2.8576 C.ar      1 <0>        -0.1384
     10 C9          0.7559   -2.3415    1.4995 C.ar      1 <0>        -0.0827
     11 C10         1.1516   -2.2310   -1.8004 C.2       1 <0>        -0.0067
     12 C11         2.1964   -2.8738   -2.4540 C.2       1 <0>        -0.0498
     13 C12         1.5694   -3.8681   -3.3493 C.2       1 <0>         0.5559
     14 O1          2.1615   -4.6284   -4.0891 O.2       1 <0>        -0.4512
     15 N2          0.2353   -3.7912   -3.2088 N.am      1 <0>        -0.6911
     16 C13        -0.0908   -2.8509   -2.3059 C.2       1 <0>         0.5492
     17 O2         -1.2191   -2.5569   -1.9648 O.2       1 <0>        -0.4354
     18 C14         3.6367   -2.6158   -2.2880 C.2       1 <0>        -0.1085
     19 C15         4.4522   -1.6518   -3.0478 C.ar      1 <0>        -0.0783
     20 C16         4.1757   -0.7499   -4.0733 C.ar      1 <0>        -0.0746
     21 C17         5.1875    0.0327   -4.5846 C.ar      1 <0>        -0.1330
     22 C18         6.4768   -0.0741   -4.0830 C.ar      1 <0>        -0.0904
     23 C19         6.7647   -0.9618   -3.0695 C.ar      1 <0>        -0.1268
     24 C20         5.7567   -1.7611   -2.5390 C.ar      1 <0>         0.1056
     25 N3          5.7385   -2.7174   -1.5453 N.pl3     1 <0>        -0.4763
     26 C21         4.4737   -3.2168   -1.3990 C.2       1 <0>         0.1095
     27 C22         4.0931   -4.2809   -0.3945 C.3       1 <0>        -0.0689
     28 C23         5.3789   -4.9473    0.1098 C.3       1 <0>        -0.1208
     29 H1          5.8068   -5.5603   -0.6834 H         1 <0>         0.1047
     30 C24         6.3806   -3.8621    0.5151 C.3       1 <0>        -0.1248
     31 C25         6.8924   -3.1491   -0.7427 C.3       1 <0>         0.1102
     32 C26         5.0583   -5.8271    1.3198 C.3       1 <0>        -0.0056
     33 N4          4.1912   -6.9369    0.9022 N.4       1 <0>        -0.3904
     34 C27         4.9311   -7.8205   -0.0087 C.3       1 <0>        -0.0540
     35 C28         3.7660   -7.6978    2.0847 C.3       1 <0>        -0.0484
     36 H2          2.9194    2.4276    0.3938 H         1 <0>         0.0754
     37 H3          1.5242    2.7924   -0.6496 H         1 <0>         0.0896
     38 H4          1.3114    2.6801    1.1140 H         1 <0>         0.0869
     39 H5          1.7549    0.5787   -2.0162 H         1 <0>         0.1745
     40 H6          1.3310    1.1838    2.9758 H         1 <0>         0.1227
     41 H7          0.7842   -0.7019    4.4473 H         1 <0>         0.1283
     42 H8          0.4233   -2.9493    3.5160 H         1 <0>         0.1228
     43 H9          0.5981   -3.3300    1.0939 H         1 <0>         0.1136
     44 H10        -0.4034   -4.3408   -3.6893 H         1 <0>         0.4308
     45 H11         3.1731   -0.6650   -4.4656 H         1 <0>         0.1216
     46 H12         4.9763    0.7325   -5.3797 H         1 <0>         0.1288
     47 H13         7.2624    0.5444   -4.4913 H         1 <0>         0.1306
     48 H14         7.7718   -1.0371   -2.6868 H         1 <0>         0.1214
     49 H15         3.5634   -3.8244    0.4416 H         1 <0>         0.1043
     50 H16         3.4559   -5.0255   -0.8715 H         1 <0>         0.0846
     51 H17         5.8913   -3.1436    1.1726 H         1 <0>         0.0900
     52 H18         7.2200   -4.3200    1.0383 H         1 <0>         0.1002
     53 H19         7.5135   -3.8251   -1.3304 H         1 <0>         0.0868
     54 H20         7.4771   -2.2783   -0.4461 H         1 <0>         0.0965
     55 H21         5.9841   -6.2257    1.7346 H         1 <0>         0.1370
     56 H22         4.5476   -5.2319    2.0767 H         1 <0>         0.1366
     57 H23         4.3279   -8.7008   -0.2307 H         1 <0>         0.1270
     58 H24         5.1503   -7.2874   -0.9338 H         1 <0>         0.1235
     59 H25         5.8643   -8.1290    0.4627 H         1 <0>         0.1250
     60 H26         3.2170   -7.0422    2.7605 H         1 <0>         0.1250
     61 H27         3.1226   -8.5213    1.7748 H         1 <0>         0.1261
     62 H28         4.6431   -8.0946    2.5961 H         1 <0>         0.1239
     63 H29         3.3793   -6.5696    0.4288 H         1 <0>         0.4249
@<TRIPOS>BOND
     1    1    2 1
     2    1   36 1
     3    1   37 1
     4    1   38 1
     5    2    6 1
     6    2    3 1
     7    3    4 2
     8    3   39 1
     9    4    5 1
    10    4   11 1
    11    5   10 ar
    12    5    6 ar
    13    6    7 ar
    14    7    8 ar
    15    7   40 1
    16    8    9 ar
    17    8   41 1
    18    9   10 ar
    19    9   42 1
    20   10   43 1
    21   11   16 1
    22   11   12 2
    23   12   13 1
    24   12   18 1
    25   13   14 2
    26   13   15 am
    27   15   16 am
    28   15   44 1
    29   16   17 2
    30   18   26 2
    31   18   19 1
    32   19   24 ar
    33   19   20 ar
    34   20   21 ar
    35   20   45 1
    36   21   22 ar
    37   21   46 1
    38   22   23 ar
    39   22   47 1
    40   23   24 ar
    41   23   48 1
    42   24   25 1
    43   25   31 1
    44   25   26 1
    45   26   27 1
    46   27   28 1
    47   27   49 1
    48   27   50 1
    49   28   29 1
    50   28   30 1
    51   28   32 1
    52   30   31 1
    53   30   51 1
    54   30   52 1
    55   31   53 1
    56   31   54 1
    57   32   33 1
    58   32   55 1
    59   32   56 1
    60   33   34 1
    61   33   35 1
    62   33   63 1
    63   34   57 1
    64   34   58 1
    65   34   59 1
    66   35   60 1
    67   35   61 1
    68   35   62 1
@<TRIPOS>MOLECULE
ZINC03814434
   62    69     0     0     0
SMALL
USER_CHARGES

@<TRIPOS>ATOM
      1 C1         -0.1295    1.5952   -0.2973 C.3       1 <0>        -0.1687
      2 C2         -0.0862    0.0696   -0.1900 C.3       1 <0>         0.3342
      3 C3          0.5692   -0.4501   -1.4637 C.3       1 <0>         0.0405
      4 H1          1.4796    0.1159   -1.6612 H         1 <0>         0.1372
      5 C4          0.9167   -1.9328   -1.2889 C.3       1 <0>        -0.0061
      6 H2          1.3963   -2.3075   -2.1932 H         1 <0>         0.1555
      7 C5          1.8785   -2.0596   -0.1021 C.3       1 <0>        -0.1827
      8 C6          1.2061   -1.5198    1.1541 C.3       1 <0>         0.2999
      9 H3          1.9797   -1.4243    1.9161 H         1 <0>         0.1550
     10 O1          0.6555   -0.2442    0.9666 O.3       1 <0>        -0.3234
     11 N1          0.2189   -2.4746    1.6600 N.pl3     1 <0>        -0.5366
     12 C7          0.4705   -3.5508    2.4739 C.ar      1 <0>         0.1469
     13 C8          1.6649   -4.0152    3.0240 C.ar      1 <0>        -0.1522
     14 C9          1.5948   -5.1456    3.8201 C.ar      1 <0>        -0.0582
     15 C10         0.4006   -5.7997    4.0696 C.ar      1 <0>        -0.1457
     16 C11        -0.7984   -5.3597    3.5358 C.ar      1 <0>        -0.0280
     17 C12        -0.7487   -4.2198    2.7307 C.ar      1 <0>        -0.1131
     18 C13        -1.7893   -3.4830    2.0197 C.ar      1 <0>         0.0276
     19 C14        -1.1442   -2.4197    1.3841 C.ar      1 <0>         0.0376
     20 C15        -1.8806   -1.5095    0.6175 C.ar      1 <0>         0.0894
     21 N2         -1.4718   -0.3951   -0.1095 N.pl3     1 <0>        -0.5183
     22 C16        -2.5611    0.1913   -0.7090 C.ar      1 <0>         0.1618
     23 C17        -2.6521    1.3277   -1.5118 C.ar      1 <0>        -0.1305
     24 C18        -3.9109    1.6745   -1.9733 C.ar      1 <0>        -0.0737
     25 C19        -5.0393    0.9368   -1.6616 C.ar      1 <0>        -0.1358
     26 C20        -4.9745   -0.1955   -0.8662 C.ar      1 <0>        -0.0503
     27 C21        -3.7147   -0.5596   -0.3919 C.ar      1 <0>        -0.1042
     28 C22        -3.2693   -1.6660    0.4845 C.ar      1 <0>        -0.0360
     29 C23        -3.9084   -2.7313    1.1102 C.ar      1 <0>        -0.0288
     30 C24        -3.1873   -3.6421    1.8754 C.ar      1 <0>        -0.1255
     31 C25        -4.1221   -4.6480    2.4030 C.2       1 <0>         0.5632
     32 O2         -3.8062   -5.5851    3.1110 O.2       1 <0>        -0.5106
     33 N3         -5.3744   -4.3851    1.9926 N.am      1 <0>        -0.7162
     34 C26        -5.3495   -3.1771    1.1601 C.3       1 <0>         0.1358
     35 N4         -0.3067   -2.7008   -1.0216 N.4       1 <0>        -0.5252
     36 C27         0.0145   -4.1336   -0.9773 C.3       1 <0>        -0.0497
     37 O3         -0.3340   -0.2979   -2.5607 O.3       1 <0>        -0.3614
     38 C28         0.3101   -0.0933   -3.8198 C.3       1 <0>         0.0162
     39 H4          0.8261    2.0094    0.0240 H         1 <0>         0.0984
     40 H5         -0.3202    1.8814   -1.3317 H         1 <0>         0.1036
     41 H6         -0.9255    1.9818    0.3392 H         1 <0>         0.0921
     42 H7          2.1370   -3.1081    0.0458 H         1 <0>         0.1233
     43 H8          2.7835   -1.4869   -0.3048 H         1 <0>         0.1455
     44 H9          2.6036   -3.5149    2.8368 H         1 <0>         0.1365
     45 H10         2.5026   -5.5304    4.2610 H         1 <0>         0.1359
     46 H11         0.4045   -6.6780    4.6980 H         1 <0>         0.1352
     47 H12        -1.7278   -5.8736    3.7323 H         1 <0>         0.1600
     48 H13        -1.7792    1.9122   -1.7624 H         1 <0>         0.1440
     49 H14        -4.0153    2.5500   -2.5970 H         1 <0>         0.1336
     50 H15        -5.9967    1.2527   -2.0488 H         1 <0>         0.1332
     51 H16        -5.8575   -0.7687   -0.6249 H         1 <0>         0.1415
     52 H17        -6.1628   -4.9065    2.2103 H         1 <0>         0.4348
     53 H18        -5.9671   -2.3994    1.6094 H         1 <0>         0.1115
     54 H19        -5.7060   -3.4063    0.1559 H         1 <0>         0.1103
     55 H20        -0.6958   -2.4158   -0.1353 H         1 <0>         0.4186
     56 H21         0.4349   -4.4415   -1.9347 H         1 <0>         0.1256
     57 H22         0.7403   -4.3189   -0.1854 H         1 <0>         0.1191
     58 H23        -0.8932   -4.7035   -0.7789 H         1 <0>         0.1256
     59 H24         0.9168    0.8112   -3.7748 H         1 <0>         0.0633
     60 H25         0.9482   -0.9479   -4.0446 H         1 <0>         0.0514
     61 H26        -0.4433    0.0130   -4.6003 H         1 <0>         0.1100
     62 H27        -0.9785   -2.5293   -1.7546 H         1 <0>         0.4274
@<TRIPOS>BOND
     1    1    2 1
     2    1   39 1
     3    1   40 1
     4    1   41 1
     5    2   10 1
     6    2   21 1
     7    2    3 1
     8    3    4 1
     9    3    5 1
    10    3   37 1
    11    5    6 1
    12    5    7 1
    13    5   35 1
    14    7    8 1
    15    7   42 1
    16    7   43 1
    17    8    9 1
    18    8   10 1
    19    8   11 1
    20   11   19 1
    21   11   12 1
    22   12   17 ar
    23   12   13 ar
    24   13   14 ar
    25   13   44 1
    26   14   15 ar
    27   14   45 1
    28   15   16 ar
    29   15   46 1
    30   16   17 ar
    31   16   47 1
    32   17   18 1
    33   18   30 ar
    34   18   19 ar
    35   19   20 ar
    36   20   28 ar
    37   20   21 1
    38   21   22 1
    39   22   27 ar
    40   22   23 ar
    41   23   24 ar
    42   23   48 1
    43   24   25 ar
    44   24   49 1
    45   25   26 ar
    46   25   50 1
    47   26   27 ar
    48   26   51 1
    49   27   28 1
    50   28   29 ar
    51   29   34 1
    52   29   30 ar
    53   30   31 1
    54   31   32 2
    55   31   33 am
    56   33   34 1
    57   33   52 1
    58   34   53 1
    59   34   54 1
    60   35   36 1
    61   35   55 1
    62   35   62 1
    63   36   56 1
    64   36   57 1
    65   36   58 1
    66   37   38 1
    67   38   59 1
    68   38   60 1
    69   38   61 1
@<TRIPOS>MOLECULE
ZINC12504479
   39    42     0     0     0
SMALL
USER_CHARGES
tert-butyl-fluoro-BLAHone
@<TRIPOS>ATOM
      1 C1          0.0306    7.5665   -1.3573 C.3       1 <0>        -0.1435
      2 C2         -0.0131    6.9316    0.0341 C.3       1 <0>         0.0141
      3 C3         -1.4663    6.6486    0.4201 C.3       1 <0>        -0.1303
      4 C4          0.6075    7.8907    1.0520 C.3       1 <0>        -0.1484
      5 C5          0.7640    5.6405    0.0218 C.2       1 <0>         0.2640
      6 N1          2.1200    5.5432    0.0086 N.pl3     1 <0>        -0.5660
      7 H1          2.7692    6.3038    0.0059 H         1 <0>         0.4300
      8 C6          2.4322    4.2055   -0.0004 C.ar      1 <0>         0.0707
      9 C7          3.6945    3.4726   -0.0160 C.ar      1 <0>        -0.0387
     10 C8          4.9179    4.1553   -0.0241 C.ar      1 <0>        -0.0830
     11 C9          6.0889    3.4567   -0.0382 C.ar      1 <0>        -0.1479
     12 C10         6.0877    2.0644   -0.0451 C.ar      1 <0>         0.1067
     13 C11         4.9015    1.3651   -0.0371 C.ar      1 <0>        -0.1434
     14 C12         3.6874    2.0596   -0.0226 C.ar      1 <0>         0.0348
     15 C13         2.4115    1.3424   -0.0138 C.ar      1 <0>        -0.1820
     16 C14         1.2049    2.0599    0.0016 C.ar      1 <0>         0.1180
     17 C15         1.2195    3.5214    0.0080 C.ar      1 <0>         0.0317
     18 N2          0.2386    4.4495    0.0214 N.2       1 <0>        -0.4565
     19 C16        -0.0162    1.3425    0.0094 C.2       1 <0>        -0.2034
     20 C17         0.0021   -0.0041    0.0020 C.2       1 <0>         0.1350
     21 N3          1.1742   -0.7011   -0.0125 N.am      1 <0>        -0.6142
     22 H2          1.1491   -1.6708   -0.0168 H         1 <0>         0.4195
     23 C18         2.3662   -0.0731   -0.0205 C.2       1 <0>         0.5428
     24 O1          3.3998   -0.7196   -0.0338 O.2       1 <0>        -0.5363
     25 F1          7.2604    1.3938   -0.0600 F         1 <0>        -0.1343
     26 H3         -0.4115    6.8833   -2.0824 H         1 <0>         0.0650
     27 H4         -0.5315    8.5004   -1.3483 H         1 <0>         0.0730
     28 H5          1.0659    7.7682   -1.6323 H         1 <0>         0.0547
     29 H6         -1.4974    6.1963    1.4114 H         1 <0>         0.0620
     30 H7         -2.0283    7.5824    0.4291 H         1 <0>         0.0642
     31 H8         -1.9084    5.9653   -0.3050 H         1 <0>         0.0701
     32 H9          1.6428    8.0923    0.7770 H         1 <0>         0.0535
     33 H10         0.0454    8.8245    1.0609 H         1 <0>         0.0757
     34 H11         0.5764    7.4384    2.0432 H         1 <0>         0.0638
     35 H12         4.9335    5.2351   -0.0195 H         1 <0>         0.1298
     36 H13         7.0282    3.9897   -0.0443 H         1 <0>         0.1393
     37 H14         4.9085    0.2852   -0.0418 H         1 <0>         0.1812
     38 H15        -0.9571    1.8725    0.0168 H         1 <0>         0.1577
     39 H16        -0.9330   -0.5444    0.0080 H         1 <0>         0.1706
@<TRIPOS>BOND
     1    1    2 1
     2    1   26 1
     3    1   27 1
     4    1   28 1
     5    2    3 1
     6    2    4 1
     7    2    5 1
     8    3   29 1
     9    3   30 1
    10    3   31 1
    11    4   32 1
    12    4   33 1
    13    4   34 1
    14    5   18 2
    15    5    6 1
    16    6    7 1
    17    6    8 1
    18    8   17 ar
    19    8    9 ar
    20    9   14 ar
    21    9   10 ar
    22   10   11 ar
    23   10   35 1
    24   11   12 ar
    25   11   36 1
    26   12   13 ar
    27   12   25 1
    28   13   14 ar
    29   13   37 1
    30   14   15 ar
    31   15   23 1
    32   15   16 ar
    33   16   17 ar
    34   16   19 1
    35   17   18 1
    36   19   20 2
    37   19   38 1
    38   20   21 1
    39   20   39 1
    40   21   22 1
    41   21   23 am
    42   23   24 2
@<TRIPOS>MOLECULE
ZINC06718813
   46    49     0     0     0
SMALL
USER_CHARGES
3-[4-(3-amino-1H-indazol-4-yl)phenyl]-1-(2-fluoro-5-methyl-phenyl)urea
@<TRIPOS>ATOM
      1 C1          6.9492   -0.6708   -4.4566 C.3       1 <0>        -0.1151
      2 C2          7.3188   -0.0066   -3.1554 C.ar      1 <0>        -0.0747
      3 C3          8.6152   -0.0905   -2.6815 C.ar      1 <0>        -0.1060
      4 C4          8.9590    0.5169   -1.4879 C.ar      1 <0>        -0.1295
      5 C5          8.0061    1.2101   -0.7639 C.ar      1 <0>         0.0645
      6 C6          6.7020    1.2957   -1.2387 C.ar      1 <0>         0.1336
      7 C7          6.3607    0.6802   -2.4351 C.ar      1 <0>        -0.0953
      8 N1          5.7336    1.9963   -0.5085 N.am      1 <0>        -0.6783
      9 C8          4.4547    1.5712   -0.5040 C.2       1 <0>         0.7069
     10 O1          4.1265    0.6239   -1.1921 O.2       1 <0>        -0.5500
     11 N2          3.5395    2.1961    0.2631 N.am      1 <0>        -0.6801
     12 C9          2.2409    1.6865    0.3572 C.ar      1 <0>         0.1677
     13 C10         1.1632    2.5541    0.4899 C.ar      1 <0>        -0.1430
     14 C11        -0.1180    2.0545    0.5834 C.ar      1 <0>        -0.0892
     15 C12        -0.3326    0.6766    0.5442 C.ar      1 <0>        -0.0682
     16 C13         0.7509   -0.1919    0.4104 C.ar      1 <0>        -0.0779
     17 C14         2.0300    0.3132    0.3174 C.ar      1 <0>        -0.1142
     18 C15        -1.7083    0.1367    0.6449 C.ar      1 <0>         0.0376
     19 C16        -2.0347   -0.7648    1.6483 C.ar      1 <0>        -0.1557
     20 C17        -3.3230   -1.2675    1.7456 C.ar      1 <0>        -0.0592
     21 C18        -4.2968   -0.8911    0.8473 C.ar      1 <0>        -0.1529
     22 C19        -3.9969    0.0086   -0.1734 C.ar      1 <0>         0.1547
     23 C20        -2.6946    0.5292   -0.2801 C.ar      1 <0>        -0.1858
     24 C21        -2.7034    1.4283   -1.4324 C.2       1 <0>         0.3642
     25 N3         -3.9099    1.4169   -1.9352 N.2       1 <0>        -0.3205
     26 N4         -4.7292    0.5606   -1.1926 N.pl3     1 <0>        -0.5119
     27 H1         -5.6955    0.3797   -1.3759 H         1 <0>         0.4473
     28 N5         -1.6172    2.1667   -1.9108 N.pl3     1 <0>        -0.8360
     29 F1          8.3418    1.8036    0.4023 F         1 <0>        -0.1384
     30 H2          6.6188   -1.6912   -4.2627 H         1 <0>         0.0755
     31 H3          6.1436   -0.1125   -4.9335 H         1 <0>         0.0695
     32 H4          7.8178   -0.6890   -5.1149 H         1 <0>         0.0704
     33 H5          9.3607   -0.6319   -3.2448 H         1 <0>         0.1352
     34 H6          9.9724    0.4496   -1.1204 H         1 <0>         0.1410
     35 H7          5.3477    0.7413   -2.8045 H         1 <0>         0.1523
     36 H8          5.9835    2.7876   -0.0061 H         1 <0>         0.4118
     37 H9          3.7818    2.9993    0.7499 H         1 <0>         0.4106
     38 H10         1.3298    3.6208    0.5203 H         1 <0>         0.1310
     39 H11        -0.9554    2.7293    0.6824 H         1 <0>         0.1315
     40 H12         0.5876   -1.2590    0.3794 H         1 <0>         0.1314
     41 H13         2.8692   -0.3587    0.2138 H         1 <0>         0.1391
     42 H14        -1.2822   -1.0738    2.3586 H         1 <0>         0.1292
     43 H15        -3.5651   -1.9655    2.5334 H         1 <0>         0.1325
     44 H16        -5.2951   -1.2940    0.9345 H         1 <0>         0.1278
     45 H17        -0.7342    2.0309   -1.5329 H         1 <0>         0.4118
     46 H18        -1.7465    2.8151   -2.6206 H         1 <0>         0.4050
@<TRIPOS>BOND
     1    1    2 1
     2    1   30 1
     3    1   31 1
     4    1   32 1
     5    2    7 ar
     6    2    3 ar
     7    3    4 ar
     8    3   33 1
     9    4    5 ar
    10    4   34 1
    11    5    6 ar
    12    5   29 1
    13    6    7 ar
    14    6    8 1
    15    7   35 1
    16    8    9 am
    17    8   36 1
    18    9   10 2
    19    9   11 am
    20   11   12 1
    21   11   37 1
    22   12   17 ar
    23   12   13 ar
    24   13   14 ar
    25   13   38 1
    26   14   15 ar
    27   14   39 1
    28   15   16 ar
    29   15   18 1
    30   16   17 ar
    31   16   40 1
    32   17   41 1
    33   18   23 ar
    34   18   19 ar
    35   19   20 ar
    36   19   42 1
    37   20   21 ar
    38   20   43 1
    39   21   22 ar
    40   21   44 1
    41   22   26 1
    42   22   23 ar
    43   23   24 1
    44   24   25 2
    45   24   28 1
    46   25   26 1
    47   26   27 1
    48   28   45 1
    49   28   46 1
@<TRIPOS>MOLECULE
ZINC00582590
   54    56     0     0     0
SMALL
USER_CHARGES

@<TRIPOS>ATOM
      1 C1          0.3210   -0.2542   -0.2950 C.3       1 <0>        -0.1471
      2 C2         -0.6989    0.1485    0.7720 C.3       1 <0>        -0.0980
      3 C3         -0.9526    1.6552    0.6922 C.3       1 <0>        -0.1473
      4 C4         -2.0102   -0.6029    0.5335 C.3       1 <0>         0.1711
      5 H1         -2.4152   -0.3269   -0.4401 H         1 <0>         0.1082
      6 C5         -3.0151   -0.2346    1.6269 C.3       1 <0>         0.0616
      7 O1         -2.4404   -0.4943    2.9092 O.3       1 <0>        -0.5710
      8 N1         -1.7592   -2.0458    0.5668 N.pl3     1 <0>        -0.6786
      9 C6         -2.6062   -2.9119   -0.1051 C.ar      1 <0>         0.6293
     10 N2         -3.6349   -2.4098   -0.7763 N.ar      1 <0>        -0.6062
     11 C7         -4.4751   -3.1988   -1.4363 C.ar      1 <0>         0.5376
     12 C8         -4.2539   -4.5867   -1.4114 C.ar      1 <0>        -0.1535
     13 C9         -3.1523   -5.0726   -0.6878 C.ar      1 <0>         0.3509
     14 N3         -2.3585   -4.2107   -0.0601 N.ar      1 <0>        -0.6161
     15 N4         -3.1762   -6.4368   -0.8324 N.pl3     1 <0>        -0.4727
     16 C10        -4.2520   -6.7464   -1.6124 C.2       1 <0>         0.2292
     17 N5         -4.8825   -5.6599   -1.9508 N.2       1 <0>        -0.4526
     18 C11        -2.2219   -7.3866   -0.2551 C.3       1 <0>         0.1354
     19 C12        -2.9632   -8.3593    0.6643 C.3       1 <0>        -0.1619
     20 C13        -1.5372   -8.1679   -1.3784 C.3       1 <0>        -0.1618
     21 N6         -5.5464   -2.6655   -2.1337 N.pl3     1 <0>        -0.6280
     22 C14        -5.6825   -1.2864   -2.2512 C.ar      1 <0>         0.1488
     23 C15        -4.5525   -0.4885   -2.4166 C.ar      1 <0>        -0.1220
     24 C16        -4.6779    0.8657   -2.5326 C.ar      1 <0>        -0.0594
     25 C17        -5.9451    1.4590   -2.4857 C.ar      1 <0>        -0.1364
     26 C18        -7.0831    0.6589   -2.3195 C.ar      1 <0>         0.0117
     27 C19        -6.9477   -0.7079   -2.2089 C.ar      1 <0>        -0.1557
     28 Cl1        -8.6583    1.3861   -2.2597 Cl        1 <0>        -0.0441
     29 C20        -6.0813    2.9182   -2.6102 C.2       1 <0>         0.5168
     30 O2         -5.0862    3.6154   -2.7549 O.co2     1 <0>        -0.6900
     31 O3         -7.1896    3.4349   -2.5690 O.co2     1 <0>        -0.6630
     32 H2          1.2552    0.2811   -0.1251 H         1 <0>         0.0549
     33 H3          0.5018   -1.3276   -0.2382 H         1 <0>         0.0529
     34 H4         -0.0674   -0.0030   -1.2820 H         1 <0>         0.0568
     35 H5         -0.3105   -0.1028    1.7590 H         1 <0>         0.0821
     36 H6         -1.3236    1.9090   -0.3008 H         1 <0>         0.0629
     37 H7         -1.6929    1.9391    1.4402 H         1 <0>         0.0595
     38 H8         -0.0222    2.1908    0.8803 H         1 <0>         0.0576
     39 H9         -3.2659    0.8232    1.5485 H         1 <0>         0.0601
     40 H10        -3.9187   -0.8321    1.5060 H         1 <0>         0.0503
     41 H11        -3.0232   -0.2835    3.6514 H         1 <0>         0.3749
     42 H12        -0.9999   -2.3948    1.0594 H         1 <0>         0.4127
     43 H13        -4.5374   -7.7457   -1.9061 H         1 <0>         0.2129
     44 H14        -1.4715   -6.8438    0.3196 H         1 <0>         0.1056
     45 H15        -3.7136   -8.9021    0.0895 H         1 <0>         0.0647
     46 H16        -2.2531   -9.0660    1.0938 H         1 <0>         0.0772
     47 H17        -3.4510   -7.8027    1.4645 H         1 <0>         0.0630
     48 H18        -1.0091   -7.4750   -2.0333 H         1 <0>         0.0633
     49 H19        -0.8272   -8.8746   -0.9489 H         1 <0>         0.0771
     50 H20        -2.2876   -8.7108   -1.9531 H         1 <0>         0.0647
     51 H21        -6.2018   -3.2539   -2.5402 H         1 <0>         0.4250
     52 H22        -3.5736   -0.9432   -2.4528 H         1 <0>         0.1261
     53 H23        -3.7989    1.4800   -2.6603 H         1 <0>         0.1350
     54 H24        -7.8223   -1.3294   -2.0853 H         1 <0>         0.1255
@<TRIPOS>BOND
     1    1    2 1
     2    1   32 1
     3    1   33 1
     4    1   34 1
     5    2    3 1
     6    2    4 1
     7    2   35 1
     8    3   36 1
     9    3   37 1
    10    3   38 1
    11    4    5 1
    12    4    6 1
    13    4    8 1
    14    6    7 1
    15    6   39 1
    16    6   40 1
    17    7   41 1
    18    8    9 1
    19    8   42 1
    20    9   14 ar
    21    9   10 ar
    22   10   11 ar
    23   11   12 ar
    24   11   21 1
    25   12   17 1
    26   12   13 ar
    27   13   14 ar
    28   13   15 1
    29   15   16 1
    30   15   18 1
    31   16   17 2
    32   16   43 1
    33   18   19 1
    34   18   20 1
    35   18   44 1
    36   19   45 1
    37   19   46 1
    38   19   47 1
    39   20   48 1
    40   20   49 1
    41   20   50 1
    42   21   22 1
    43   21   51 1
    44   22   27 ar
    45   22   23 ar
    46   23   24 ar
    47   23   52 1
    48   24   25 ar
    49   24   53 1
    50   25   26 ar
    51   25   29 1
    52   26   27 ar
    53   26   28 1
    54   27   54 1
    55   29   30 2
    56   29   31 1
@<TRIPOS>MOLECULE
ZINC00582575
   52    54     0     0     0
SMALL
USER_CHARGES

@<TRIPOS>ATOM
      1 C1          0.4280   -0.4909    1.8513 C.3       1 <0>        -0.1353
      2 C2         -0.1373    0.3043    0.6728 C.3       1 <0>        -0.0998
      3 C3          0.1219    1.7960    0.8928 C.3       1 <0>        -0.1438
      4 C4          0.5445   -0.1465   -0.6206 C.3       1 <0>         0.1707
      5 H1          1.6116    0.0682   -0.5626 H         1 <0>         0.1020
      6 C5         -0.0633    0.6053   -1.8064 C.3       1 <0>         0.0638
      7 O1         -1.4784    0.4070   -1.8214 O.3       1 <0>        -0.5678
      8 N1          0.3453   -1.5866   -0.8014 N.pl3     1 <0>        -0.6843
      9 C6          1.2038   -2.4865   -0.1915 C.ar      1 <0>         0.6278
     10 N2          2.1960   -2.0197    0.5559 N.ar      1 <0>        -0.6013
     11 C7          3.0454   -2.8423    1.1611 C.ar      1 <0>         0.5297
     12 C8          2.8737   -4.2277    0.9949 C.ar      1 <0>        -0.1465
     13 C9          1.8096   -4.6754    0.1948 C.ar      1 <0>         0.3495
     14 N3          1.0032   -3.7820   -0.3699 N.ar      1 <0>        -0.6072
     15 N4          1.8776   -6.0456    0.2064 N.pl3     1 <0>        -0.4700
     16 C10         2.9424   -6.3955    0.9844 C.2       1 <0>         0.2415
     17 N5          3.5251   -5.3277    1.4458 N.2       1 <0>        -0.4572
     18 C11         0.9729   -6.9645   -0.4890 C.3       1 <0>         0.1340
     19 C12         1.7722   -7.8175   -1.4761 C.3       1 <0>        -0.1629
     20 C13         0.2864   -7.8742    0.5318 C.3       1 <0>        -0.1632
     21 N6          4.0779   -2.3459    1.9386 N.pl3     1 <0>        -0.6355
     22 C14         4.2903   -0.9669    2.0207 C.ar      1 <0>         0.1742
     23 C15         4.0436   -0.1577    0.9185 C.ar      1 <0>        -0.1100
     24 C16         4.2538    1.2045    1.0024 C.ar      1 <0>        -0.0884
     25 C17         4.7100    1.7642    2.1819 C.ar      1 <0>        -0.1271
     26 C18         4.9569    0.9617    3.2819 C.ar      1 <0>        -0.0129
     27 C19         4.7429   -0.4020    3.2058 C.ar      1 <0>        -0.1416
     28 Cl1         5.5294    1.6687    4.7604 Cl        1 <0>        -0.0669
     29 H2          0.2433   -1.5536    1.6946 H         1 <0>         0.0430
     30 H3          1.5012   -0.3158    1.9263 H         1 <0>         0.0707
     31 H4         -0.0578   -0.1697    2.7727 H         1 <0>         0.0403
     32 H5         -1.2106    0.1292    0.5978 H         1 <0>         0.0766
     33 H6          1.1945    1.9872    0.8596 H         1 <0>         0.0559
     34 H7         -0.3739    2.3703    0.1101 H         1 <0>         0.0538
     35 H8         -0.2703    2.0934    1.8654 H         1 <0>         0.0560
     36 H9          0.1535    1.6693   -1.7118 H         1 <0>         0.0658
     37 H10         0.3663    0.2281   -2.7345 H         1 <0>         0.0519
     38 H11        -1.9308    0.8561   -2.5484 H         1 <0>         0.3823
     39 H12        -0.3878   -1.9099   -1.3481 H         1 <0>         0.4179
     40 H13         3.2553   -7.4091    1.1873 H         1 <0>         0.2164
     41 H14         0.2195   -6.3923   -1.0303 H         1 <0>         0.1069
     42 H15         2.5256   -8.3897   -0.9348 H         1 <0>         0.0660
     43 H16         1.0991   -8.5011   -1.9935 H         1 <0>         0.0802
     44 H17         2.2613   -7.1693   -2.2033 H         1 <0>         0.0632
     45 H18        -0.2830   -7.2665    1.2351 H         1 <0>         0.0634
     46 H19        -0.3867   -8.5579    0.0144 H         1 <0>         0.0803
     47 H20         1.0399   -8.4464    1.0731 H         1 <0>         0.0660
     48 H21         4.6539   -2.9553    2.4263 H         1 <0>         0.4297
     49 H22         3.6881   -0.5939   -0.0033 H         1 <0>         0.1411
     50 H23         4.0621    1.8335    0.1457 H         1 <0>         0.1337
     51 H24         4.8742    2.8298    2.2445 H         1 <0>         0.1331
     52 H25         4.9317   -1.0277    4.0656 H         1 <0>         0.1347
@<TRIPOS>BOND
     1    1    2 1
     2    1   29 1
     3    1   30 1
     4    1   31 1
     5    2    3 1
     6    2    4 1
     7    2   32 1
     8    3   33 1
     9    3   34 1
    10    3   35 1
    11    4    5 1
    12    4    6 1
    13    4    8 1
    14    6    7 1
    15    6   36 1
    16    6   37 1
    17    7   38 1
    18    8    9 1
    19    8   39 1
    20    9   14 ar
    21    9   10 ar
    22   10   11 ar
    23   11   12 ar
    24   11   21 1
    25   12   17 1
    26   12   13 ar
    27   13   14 ar
    28   13   15 1
    29   15   16 1
    30   15   18 1
    31   16   17 2
    32   16   40 1
    33   18   19 1
    34   18   20 1
    35   18   41 1
    36   19   42 1
    37   19   43 1
    38   19   44 1
    39   20   45 1
    40   20   46 1
    41   20   47 1
    42   21   22 1
    43   21   48 1
    44   22   27 ar
    45   22   23 ar
    46   23   24 ar
    47   23   49 1
    48   24   25 ar
    49   24   50 1
    50   25   26 ar
    51   25   51 1
    52   26   27 ar
    53   26   28 1
    54   27   52 1
@<TRIPOS>MOLECULE
ZINC12355112
   41    43     0     0     0
SMALL
USER_CHARGES

@<TRIPOS>ATOM
      1 C1         -0.1028    1.0961   -0.3671 C.ar      1 <0>        -0.0514
      2 C2          0.1939    0.2453    0.6818 C.ar      1 <0>        -0.1484
      3 C3          1.4264   -0.3800    0.7402 C.ar      1 <0>         0.1639
      4 C4          2.3673   -0.1521   -0.2572 C.ar      1 <0>         0.0453
      5 C5          2.0653    0.7038   -1.3099 C.ar      1 <0>         0.1303
      6 C6          0.8305    1.3253   -1.3612 C.ar      1 <0>        -0.1508
      7 F1          2.9766    0.9287   -2.2816 F         1 <0>        -0.1242
      8 N1          3.6170   -0.7832   -0.2014 N.pl3     1 <0>        -0.5829
      9 C7          3.7027   -2.0774    0.1649 C.2       1 <0>         0.5287
     10 S1          2.2783   -2.9758    0.4732 S.2       1 <0>        -0.4610
     11 N2          4.9096   -2.6643    0.2886 N.pl3     1 <0>        -0.3704
     12 C8          5.1565   -3.9777    0.5555 C.2       1 <0>         0.6130
     13 N3          6.4609   -4.1414    0.5939 N.2       1 <0>        -0.5881
     14 C9          7.0702   -2.9726    0.3596 C.2       1 <0>         0.5344
     15 N4          6.1641   -2.0459    0.1621 N.2       1 <0>        -0.3900
     16 N5          8.4494   -2.7737    0.3248 N.pl3     1 <0>        -0.6253
     17 C10         9.3156   -3.8654    0.4276 C.ar      1 <0>         0.2308
     18 C11         8.9430   -5.1006   -0.0877 C.ar      1 <0>        -0.1475
     19 C12         9.8015   -6.1774    0.0157 C.ar      1 <0>         0.0049
     20 C13        11.0306   -6.0273    0.6313 C.ar      1 <0>        -0.6997
     21 C14        11.4044   -4.7993    1.1458 C.ar      1 <0>         0.0107
     22 C15        10.5534   -3.7167    1.0403 C.ar      1 <0>        -0.1718
     23 S2         12.1228   -7.4039    0.7609 S.o2      1 <0>         2.7036
     24 O1         12.9813   -7.1389    1.8619 O.2       1 <0>        -0.9640
     25 O2         11.3155   -8.5710    0.6881 O.2       1 <0>        -0.9611
     26 N6         13.0757   -7.4022   -0.5934 N.pl3     1 <0>        -1.2489
     27 N7          4.2074   -4.9604    0.7511 N.pl3     1 <0>        -0.7789
     28 F2          1.7155   -1.2107    1.7657 F         1 <0>        -0.0889
     29 H1         -1.0676    1.5793   -0.4122 H         1 <0>         0.1524
     30 H2         -0.5376    0.0691    1.4566 H         1 <0>         0.1538
     31 H3          0.5950    1.9905   -2.1789 H         1 <0>         0.1534
     32 H4          4.4206   -0.2887   -0.4264 H         1 <0>         0.4283
     33 H5          8.8079   -1.8774    0.2293 H         1 <0>         0.4322
     34 H6          7.9831   -5.2186   -0.5683 H         1 <0>         0.1467
     35 H7          9.5123   -7.1380   -0.3844 H         1 <0>         0.1464
     36 H8         12.3649   -4.6855    1.6262 H         1 <0>         0.1476
     37 H9         10.8481   -2.7567    1.4378 H         1 <0>         0.1386
     38 H10        13.9781   -7.7554   -0.5519 H         1 <0>         0.4215
     39 H11        12.7314   -7.0480   -1.4282 H         1 <0>         0.4170
     40 H12         3.2665   -4.7264    0.7830 H         1 <0>         0.4323
     41 H13         4.4811   -5.8849    0.8567 H         1 <0>         0.4174
@<TRIPOS>BOND
     1    1    6 ar
     2    1    2 ar
     3    1   29 1
     4    2    3 ar
     5    2   30 1
     6    3    4 ar
     7    3   28 1
     8    4    5 ar
     9    4    8 1
    10    5    6 ar
    11    5    7 1
    12    6   31 1
    13    8    9 1
    14    8   32 1
    15    9   10 2
    16    9   11 1
    17   11   15 1
    18   11   12 1
    19   12   13 2
    20   12   27 1
    21   13   14 1
    22   14   15 2
    23   14   16 1
    24   16   17 1
    25   16   33 1
    26   17   22 ar
    27   17   18 ar
    28   18   19 ar
    29   18   34 1
    30   19   20 ar
    31   19   35 1
    32   20   21 ar
    33   20   23 1
    34   21   22 ar
    35   21   36 1
    36   22   37 1
    37   23   24 2
    38   23   25 2
    39   23   26 1
    40   26   38 1
    41   26   39 1
    42   27   40 1
    43   27   41 1
@<TRIPOS>MOLECULE
ZINC14951176
   39    42     0     0     0
SMALL
USER_CHARGES

@<TRIPOS>ATOM
      1 C1          0.2405    1.0255    0.8302 C.ar      1 <0>        -0.0645
      2 C2          1.4224    1.7334    0.7710 C.ar      1 <0>        -0.1488
      3 C3          2.3671    1.4303   -0.1967 C.ar      1 <0>         0.1270
      4 C4          2.1300    0.4154   -1.1103 C.ar      1 <0>        -0.1484
      5 C5          0.9516   -0.2992   -1.0607 C.ar      1 <0>        -0.0503
      6 C6         -0.0037    0.0016   -0.0874 C.ar      1 <0>        -0.0633
      7 C7         -1.2678   -0.7602   -0.0291 C.2       1 <0>         0.1046
      8 C8         -1.3961   -2.1162   -0.0863 C.2       1 <0>         0.0796
      9 N1         -2.7456   -2.4073    0.0017 N.pl3     1 <0>        -0.5519
     10 C9         -3.4195   -1.2472    0.1100 C.2       1 <0>         0.4661
     11 C10        -4.8730   -1.1131    0.2269 C.2       1 <0>        -0.2712
     12 C11        -5.4545    0.1603    0.3285 C.2       1 <0>        -0.0131
     13 C12        -6.8063    0.2847    0.4372 C.2       1 <0>        -0.2432
     14 C13        -7.6177   -0.8599    0.4477 C.2       1 <0>         0.3274
     15 O1         -8.9418   -0.7377    0.5542 O.2       1 <0>        -0.6199
     16 C14        -7.0368   -2.1329    0.3456 C.2       1 <0>        -0.2432
     17 C15        -5.6854   -2.2577    0.2315 C.2       1 <0>        -0.0132
     18 N2         -2.5363   -0.2302    0.0993 N.pl3     1 <0>        -0.5537
     19 C16        -0.2980   -3.0933   -0.2185 C.ar      1 <0>         0.0029
     20 C17         0.8460   -3.0046    0.5859 C.ar      1 <0>        -0.1375
     21 C18         1.8471   -3.9391    0.4288 C.ar      1 <0>         0.1110
     22 N3          1.7384   -4.9058   -0.4634 N.ar      1 <0>        -0.4697
     23 C19         0.6787   -5.0262   -1.2411 C.ar      1 <0>         0.1111
     24 C20        -0.3725   -4.1394   -1.1479 C.ar      1 <0>        -0.1541
     25 F1          3.5233    2.1271   -0.2501 F         1 <0>        -0.1285
     26 H1         -0.4930    1.2596    1.5875 H         1 <0>         0.1388
     27 H2          1.6122    2.5258    1.4800 H         1 <0>         0.1474
     28 H3          2.8693    0.1839   -1.8628 H         1 <0>         0.1469
     29 H4          0.7677   -1.0896   -1.7733 H         1 <0>         0.1375
     30 H5         -3.1383   -3.2941   -0.0126 H         1 <0>         0.4530
     31 H6         -4.8300    1.0414    0.3209 H         1 <0>         0.1049
     32 H7         -7.2538    1.2645    0.5158 H         1 <0>         0.1221
     33 H8         -7.6616   -3.0138    0.3533 H         1 <0>         0.1221
     34 H9         -5.2386   -3.2374    0.1489 H         1 <0>         0.1046
     35 H10        -2.7542    0.7126    0.1673 H         1 <0>         0.4532
     36 H11         0.9421   -2.2159    1.3174 H         1 <0>         0.1420
     37 H12         2.7328   -3.8793    1.0439 H         1 <0>         0.1658
     38 H13         0.6328   -5.8333   -1.9573 H         1 <0>         0.1659
     39 H14        -1.2383   -4.2467   -1.7845 H         1 <0>         0.1405
@<TRIPOS>BOND
     1    1    6 ar
     2    1    2 ar
     3    1   26 1
     4    2    3 ar
     5    2   27 1
     6    3    4 ar
     7    3   25 1
     8    4    5 ar
     9    4   28 1
    10    5    6 ar
    11    5   29 1
    12    6    7 1
    13    7   18 1
    14    7    8 2
    15    8    9 1
    16    8   19 1
    17    9   10 1
    18    9   30 1
    19   10   11 2
    20   10   18 1
    21   11   17 1
    22   11   12 1
    23   12   13 2
    24   12   31 1
    25   13   14 1
    26   13   32 1
    27   14   15 2
    28   14   16 1
    29   16   17 2
    30   16   33 1
    31   17   34 1
    32   18   35 1
    33   19   24 ar
    34   19   20 ar
    35   20   21 ar
    36   20   36 1
    37   21   22 ar
    38   21   37 1
    39   22   23 ar
    40   23   24 ar
    41   23   38 1
    42   24   39 1
@<TRIPOS>MOLECULE
ZINC14951176
   40    43     0     0     0
SMALL
USER_CHARGES

@<TRIPOS>ATOM
      1 C1          0.2405    1.0255    0.8302 C.ar      1 <0>        -0.0528
      2 C2          1.4224    1.7334    0.7710 C.ar      1 <0>        -0.1439
      3 C3          2.3671    1.4303   -0.1967 C.ar      1 <0>         0.1411
      4 C4          2.1300    0.4154   -1.1103 C.ar      1 <0>        -0.1508
      5 C5          0.9516   -0.2992   -1.0607 C.ar      1 <0>        -0.0597
      6 C6         -0.0037    0.0016   -0.0874 C.ar      1 <0>        -0.0905
      7 C7         -1.2678   -0.7602   -0.0291 C.2       1 <0>         0.1717
      8 C8         -1.3961   -2.1162   -0.0863 C.2       1 <0>         0.0049
      9 N1         -2.7456   -2.4073    0.0017 N.pl3     1 <0>        -0.5619
     10 C9         -3.4195   -1.2472    0.1100 C.2       1 <0>         0.4672
     11 C10        -4.8730   -1.1131    0.2269 C.2       1 <0>        -0.2599
     12 C11        -5.6849   -2.2580    0.2378 C.2       1 <0>        -0.0193
     13 C12        -7.0367   -2.1330    0.3465 C.2       1 <0>        -0.2271
     14 C13        -7.6177   -0.8599    0.4475 C.2       1 <0>         0.3291
     15 O1         -8.9418   -0.7377    0.5539 O.2       1 <0>        -0.5899
     16 C14        -6.8064    0.2847    0.4370 C.2       1 <0>        -0.2265
     17 C15        -5.4541    0.1600    0.3338 C.2       1 <0>        -0.0193
     18 N2         -2.5363   -0.2302    0.0993 N.pl3     1 <0>        -0.5609
     19 C16        -0.2980   -3.0933   -0.2185 C.ar      1 <0>         0.1131
     20 C17         0.8460   -3.0046    0.5859 C.ar      1 <0>        -0.1113
     21 C18         1.8471   -3.9391    0.4288 C.ar      1 <0>         0.1475
     22 N3          1.7384   -4.9058   -0.4634 N.ar      1 <0>        -0.4453
     23 C19         0.6789   -5.0260   -1.2413 C.ar      1 <0>         0.1502
     24 C20        -0.3725   -4.1394   -1.1479 C.ar      1 <0>        -0.1247
     25 F1          3.5233    2.1271   -0.2501 F         1 <0>        -0.1206
     26 H1         -0.4930    1.2596    1.5875 H         1 <0>         0.1448
     27 H2          1.6122    2.5258    1.4800 H         1 <0>         0.1545
     28 H3          2.8693    0.1839   -1.8628 H         1 <0>         0.1503
     29 H4          0.7677   -1.0896   -1.7733 H         1 <0>         0.1343
     30 H5         -3.1383   -3.2941   -0.0126 H         1 <0>         0.4541
     31 H6         -5.2377   -3.2379    0.1597 H         1 <0>         0.1066
     32 H7         -7.6615   -3.0138    0.3545 H         1 <0>         0.1278
     33 H8         -7.2539    1.2645    0.5152 H         1 <0>         0.1286
     34 H9         -4.8293    1.0409    0.3299 H         1 <0>         0.1087
     35 H10        -2.7542    0.7126    0.1673 H         1 <0>         0.4588
     36 H11         0.9421   -2.2159    1.3174 H         1 <0>         0.1893
     37 H12         2.7328   -3.8793    1.0439 H         1 <0>         0.2181
     38 H13         0.6331   -5.8328   -1.9578 H         1 <0>         0.2182
     39 H14        -1.2383   -4.2467   -1.7845 H         1 <0>         0.1884
     40 H15         2.4602   -5.5480   -0.5503 H         1 <0>         0.4572
@<TRIPOS>BOND
     1    1    6 ar
     2    1    2 ar
     3    1   26 1
     4    2    3 ar
     5    2   27 1
     6    3    4 ar
     7    3   25 1
     8    4    5 ar
     9    4   28 1
    10    5    6 ar
    11    5   29 1
    12    6    7 1
    13    7   18 1
    14    7    8 2
    15    8    9 1
    16    8   19 1
    17    9   10 1
    18    9   30 1
    19   10   11 2
    20   10   18 1
    21   11   17 1
    22   11   12 1
    23   12   13 2
    24   12   31 1
    25   13   14 1
    26   13   32 1
    27   14   15 2
    28   14   16 1
    29   16   17 2
    30   16   33 1
    31   17   34 1
    32   18   35 1
    33   19   24 ar
    34   19   20 ar
    35   20   21 ar
    36   20   36 1
    37   21   22 ar
    38   21   37 1
    39   22   23 ar
    40   22   40 1
    41   23   24 ar
    42   23   38 1
    43   24   39 1
@<TRIPOS>MOLECULE
ZINC14951176
   39    42     0     0     0
SMALL
USER_CHARGES

@<TRIPOS>ATOM
      1 C1         -0.0169    1.3921    0.0097 C.ar      1 <0>        -0.0566
      2 C2          1.1683    2.0955    0.0022 C.ar      1 <0>        -0.1420
      3 C3          2.3804    1.4175   -0.0135 C.ar      1 <0>         0.1205
      4 C4          2.4035    0.0288   -0.0217 C.ar      1 <0>        -0.1413
      5 C5          1.2227   -0.6820   -0.0137 C.ar      1 <0>        -0.0915
      6 C6          0.0021   -0.0041    0.0020 C.ar      1 <0>        -0.0305
      7 C7         -1.2663   -0.7622    0.0101 C.2       1 <0>         0.2668
      8 N1         -2.4688   -0.2344    0.0239 N.2       1 <0>        -0.4516
      9 H1         -0.6429   -2.7598   -0.0166 H         1 <0>         0.4248
     10 C8         -3.3891   -1.2133    0.0276 C.2       1 <0>         0.0607
     11 C9         -2.7170   -2.4244    0.0153 C.2       1 <0>         0.0509
     12 N2         -1.3752   -2.1239   -0.0017 N.pl3     1 <0>        -0.5528
     13 C10        -3.3214   -3.7709    0.0147 C.ar      1 <0>        -0.0389
     14 C11        -4.3834   -4.0632    0.8738 C.ar      1 <0>        -0.0572
     15 C12        -4.9440   -5.3230    0.8688 C.ar      1 <0>        -0.1473
     16 C13        -4.4555   -6.2985    0.0139 C.ar      1 <0>         0.1118
     17 C14        -3.4017   -6.0145   -0.8405 C.ar      1 <0>        -0.1493
     18 C15        -2.8374   -4.7564   -0.8492 C.ar      1 <0>        -0.0780
     19 F1         -5.0084   -7.5311    0.0136 F         1 <0>        -0.1337
     20 C16        -4.8582   -1.0303    0.0430 C.ar      1 <0>         0.0400
     21 C17        -5.7004   -1.9173   -0.6371 C.ar      1 <0>        -0.1586
     22 C18        -7.0629   -1.7095   -0.5964 C.ar      1 <0>         0.1014
     23 N3         -7.5737   -0.6921    0.0713 N.ar      1 <0>        -0.4840
     24 C19        -6.8154    0.1672    0.7258 C.ar      1 <0>         0.1006
     25 C20        -5.4433    0.0310    0.7427 C.ar      1 <0>        -0.1465
     26 O1          3.5463    2.1144   -0.0214 O.3       1 <0>        -0.4977
     27 H2         -0.9589    1.9200    0.0260 H         1 <0>         0.1437
     28 H3          1.1545    3.1754    0.0081 H         1 <0>         0.1381
     29 H4          3.3480   -0.4948   -0.0346 H         1 <0>         0.1359
     30 H5          1.2415   -1.7618   -0.0204 H         1 <0>         0.1230
     31 H6         -4.7644   -3.3041    1.5409 H         1 <0>         0.1365
     32 H7         -5.7651   -5.5501    1.5325 H         1 <0>         0.1435
     33 H8         -3.0248   -6.7788   -1.5040 H         1 <0>         0.1419
     34 H9         -2.0195   -4.5348   -1.5187 H         1 <0>         0.1326
     35 H10        -5.2894   -2.7518   -1.1857 H         1 <0>         0.1340
     36 H11        -7.7211   -2.3883   -1.1184 H         1 <0>         0.1574
     37 H12        -7.2760    0.9856    1.2591 H         1 <0>         0.1586
     38 H13        -4.8292    0.7351    1.2845 H         1 <0>         0.1395
     39 H14         3.8927    2.3115    0.8597 H         1 <0>         0.3954
@<TRIPOS>BOND
     1    1    6 ar
     2    1    2 ar
     3    1   27 1
     4    2    3 ar
     5    2   28 1
     6    3    4 ar
     7    3   26 1
     8    4    5 ar
     9    4   29 1
    10    5    6 ar
    11    5   30 1
    12    6    7 1
    13    7    8 2
    14    7   12 1
    15    8   10 1
    16    9   12 1
    17   10   20 1
    18   10   11 2
    19   11   13 1
    20   11   12 1
    21   13   18 ar
    22   13   14 ar
    23   14   15 ar
    24   14   31 1
    25   15   16 ar
    26   15   32 1
    27   16   17 ar
    28   16   19 1
    29   17   18 ar
    30   17   33 1
    31   18   34 1
    32   20   25 ar
    33   20   21 ar
    34   21   22 ar
    35   21   35 1
    36   22   23 ar
    37   22   36 1
    38   23   24 ar
    39   24   25 ar
    40   24   37 1
    41   25   38 1
    42   26   39 1
@<TRIPOS>MOLECULE
ZINC14951176
   40    43     0     0     0
SMALL
USER_CHARGES

@<TRIPOS>ATOM
      1 C1         -0.0079    1.3560    0.4128 C.ar      1 <0>        -0.0502
      2 C2          1.1789    2.0446    0.5411 C.ar      1 <0>        -0.1379
      3 C3          2.3872    1.3600    0.5181 C.ar      1 <0>         0.1743
      4 C4          2.4048   -0.0205    0.3656 C.ar      1 <0>        -0.1372
      5 C5          1.2223   -0.7164    0.2363 C.ar      1 <0>        -0.0529
      6 C6          0.0054   -0.0319    0.2597 C.ar      1 <0>        -0.1114
      7 C7         -1.2648   -0.7743    0.1224 C.cat     1 <0>         0.3974
      8 N1         -2.5103   -0.2175    0.1240 N.pl3     1 <0>        -0.5055
      9 H1         -2.7195    0.7253    0.2141 H         1 <0>         0.4639
     10 C8         -3.4150   -1.2456   -0.0267 C.2       1 <0>         0.1188
     11 C9         -2.6710   -2.4104   -0.1160 C.2       1 <0>         0.1124
     12 N2         -1.3744   -2.0755   -0.0265 N.pl3     1 <0>        -0.4709
     13 C10        -3.2098   -3.7802   -0.2862 C.ar      1 <0>        -0.0876
     14 C11        -4.1834   -4.0340   -1.2519 C.ar      1 <0>        -0.0424
     15 C12        -4.6816   -5.3110   -1.4069 C.ar      1 <0>        -0.1470
     16 C13        -4.2164   -6.3406   -0.6047 C.ar      1 <0>         0.1433
     17 C14        -3.2491   -6.0935    0.3562 C.ar      1 <0>        -0.1478
     18 C15        -2.7406   -4.8209    0.5148 C.ar      1 <0>        -0.0599
     19 F1         -4.7080   -7.5895   -0.7596 F         1 <0>        -0.1208
     20 C16        -4.8840   -1.1288   -0.0821 C.ar      1 <0>        -0.0205
     21 C17        -5.7034   -1.9735    0.6798 C.ar      1 <0>        -0.1289
     22 C18        -7.0715   -1.8287    0.5974 C.ar      1 <0>         0.1171
     23 N3         -7.6107   -0.9116   -0.1841 N.ar      1 <0>        -0.4578
     24 C19        -6.8767   -0.0959   -0.9180 C.ar      1 <0>         0.1165
     25 C20        -5.5005   -0.1662   -0.8936 C.ar      1 <0>        -0.1481
     26 O1          3.5548    2.0423    0.6448 O.3       1 <0>        -0.4899
     27 H2         -0.9472    1.8885    0.4352 H         1 <0>         0.1371
     28 H3          1.1694    3.1181    0.6592 H         1 <0>         0.1540
     29 H4          3.3464   -0.5492    0.3479 H         1 <0>         0.1543
     30 H5          1.2369   -1.7897    0.1170 H         1 <0>         0.1372
     31 H6         -4.5471   -3.2320   -1.8771 H         1 <0>         0.1402
     32 H7         -5.4356   -5.5085   -2.1544 H         1 <0>         0.1527
     33 H8         -2.8897   -6.8992    0.9791 H         1 <0>         0.1527
     34 H9         -1.9838   -4.6301    1.2612 H         1 <0>         0.1391
     35 H10        -5.2693   -2.7263    1.3211 H         1 <0>         0.1460
     36 H11        -7.7114   -2.4748    1.1801 H         1 <0>         0.1719
     37 H12        -7.3614    0.6395   -1.5430 H         1 <0>         0.1713
     38 H13        -4.9063    0.5074   -1.4932 H         1 <0>         0.1422
     39 H14         3.8545    2.1428    1.5587 H         1 <0>         0.4115
     40 H15        -0.6320   -2.6987   -0.0633 H         1 <0>         0.4629
@<TRIPOS>BOND
     1    1    6 ar
     2    1    2 ar
     3    1   27 1
     4    2    3 ar
     5    2   28 1
     6    3    4 ar
     7    3   26 1
     8    4    5 ar
     9    4   29 1
    10    5    6 ar
    11    5   30 1
    12    6    7 1
    13    7   12 2
    14    7    8 1
    15    8    9 1
    16    8   10 1
    17   10   11 2
    18   10   20 1
    19   11   12 1
    20   11   13 1
    21   12   40 1
    22   13   18 ar
    23   13   14 ar
    24   14   15 ar
    25   14   31 1
    26   15   16 ar
    27   15   32 1
    28   16   17 ar
    29   16   19 1
    30   17   18 ar
    31   17   33 1
    32   18   34 1
    33   20   25 ar
    34   20   21 ar
    35   21   22 ar
    36   21   35 1
    37   22   23 ar
    38   22   36 1
    39   23   24 ar
    40   24   25 ar
    41   24   37 1
    42   25   38 1
    43   26   39 1
@<TRIPOS>MOLECULE
ZINC14951176
   40    43     0     0     0
SMALL
USER_CHARGES

@<TRIPOS>ATOM
      1 C1         -0.0268    1.3873   -0.2487 C.ar      1 <0>        -0.0533
      2 C2          1.1507    2.0881   -0.3954 C.ar      1 <0>        -0.1372
      3 C3          2.3508    1.4075   -0.5560 C.ar      1 <0>         0.1741
      4 C4          2.3694    0.0187   -0.5693 C.ar      1 <0>        -0.1379
      5 C5          1.1963   -0.6894   -0.4227 C.ar      1 <0>        -0.0501
      6 C6         -0.0123   -0.0089   -0.2611 C.ar      1 <0>        -0.1113
      7 C7         -1.2726   -0.7643   -0.1040 C.cat     1 <0>         0.3964
      8 N1         -1.3739   -2.1224    0.0021 N.pl3     1 <0>        -0.5087
      9 H1         -0.6406   -2.7573   -0.0113 H         1 <0>         0.4641
     10 C8         -2.7098   -2.4213    0.1324 C.2       1 <0>         0.1445
     11 C9         -3.3862   -1.2129    0.1003 C.2       1 <0>         0.0865
     12 N2         -2.4734   -0.2367   -0.0386 N.pl3     1 <0>        -0.4668
     13 C10        -4.8514   -1.0295    0.2063 C.ar      1 <0>        -0.0181
     14 C11        -5.5878   -1.6830    1.2008 C.ar      1 <0>        -0.1314
     15 C12        -6.9507   -1.4834    1.2636 C.ar      1 <0>         0.1177
     16 N3         -7.5598   -0.6900    0.4025 N.ar      1 <0>        -0.4587
     17 C13        -6.9031   -0.0552   -0.5501 C.ar      1 <0>         0.1173
     18 C14        -5.5375   -0.1932   -0.6817 C.ar      1 <0>        -0.1516
     19 C15        -3.3053   -3.7640    0.2776 C.ar      1 <0>        -0.0905
     20 C16        -4.4063   -4.1307   -0.5000 C.ar      1 <0>        -0.0398
     21 C17        -4.9583   -5.3865   -0.3599 C.ar      1 <0>        -0.1481
     22 C18        -4.4232   -6.2840    0.5507 C.ar      1 <0>         0.1454
     23 C19        -3.3311   -5.9257    1.3253 C.ar      1 <0>        -0.1491
     24 C20        -2.7664   -4.6752    1.1893 C.ar      1 <0>        -0.0562
     25 F1         -4.9685   -7.5129    0.6840 F         1 <0>        -0.1204
     26 O1          3.5092    2.1019   -0.7007 O.3       1 <0>        -0.4899
     27 H2         -0.9590    1.9172   -0.1198 H         1 <0>         0.1369
     28 H3          1.1404    3.1680   -0.3860 H         1 <0>         0.1542
     29 H4          3.3045   -0.5068   -0.6950 H         1 <0>         0.1540
     30 H5          1.2115   -1.7693   -0.4335 H         1 <0>         0.1375
     31 H6         -5.0961   -2.3342    1.9084 H         1 <0>         0.1454
     32 H7         -7.5277   -1.9833    2.0275 H         1 <0>         0.1715
     33 H8         -7.4422    0.5842   -1.2336 H         1 <0>         0.1711
     34 H9         -5.0059    0.3326   -1.4610 H         1 <0>         0.1417
     35 H10        -4.8245   -3.4319   -1.2094 H         1 <0>         0.1408
     36 H11        -5.8095   -5.6711   -0.9606 H         1 <0>         0.1531
     37 H12        -2.9189   -6.6290    2.0337 H         1 <0>         0.1530
     38 H13        -1.9125   -4.3987    1.7900 H         1 <0>         0.1398
     39 H14         3.9581    2.2964    0.1334 H         1 <0>         0.4114
     40 H15        -2.6712    0.7118   -0.0857 H         1 <0>         0.4627
@<TRIPOS>BOND
     1    1    6 ar
     2    1    2 ar
     3    1   27 1
     4    2    3 ar
     5    2   28 1
     6    3    4 ar
     7    3   26 1
     8    4    5 ar
     9    4   29 1
    10    5    6 ar
    11    5   30 1
    12    6    7 1
    13    7   12 2
    14    7    8 1
    15    8    9 1
    16    8   10 1
    17   10   11 2
    18   10   19 1
    19   11   12 1
    20   11   13 1
    21   12   40 1
    22   13   18 ar
    23   13   14 ar
    24   14   15 ar
    25   14   31 1
    26   15   16 ar
    27   15   32 1
    28   16   17 ar
    29   17   18 ar
    30   17   33 1
    31   18   34 1
    32   19   24 ar
    33   19   20 ar
    34   20   21 ar
    35   20   35 1
    36   21   22 ar
    37   21   36 1
    38   22   23 ar
    39   22   25 1
    40   23   24 ar
    41   23   37 1
    42   24   38 1
    43   26   39 1
@<TRIPOS>MOLECULE
ZINC03871640
   66    69     0     0     0
SMALL
USER_CHARGES

@<TRIPOS>ATOM
      1 C1          0.0959    1.4674   -0.2512 C.ar      1 <0>        -0.1091
      2 C2          0.8146    0.9699   -1.3249 C.ar      1 <0>        -0.0948
      3 C3          1.9911    0.2592   -1.1091 C.ar      1 <0>        -0.1068
      4 C4          2.4469    0.0488    0.2089 C.ar      1 <0>        -0.1190
      5 C5          1.7091    0.5580    1.2818 C.ar      1 <0>         0.1242
      6 C6          0.5363    1.2651    1.0413 C.ar      1 <0>        -0.1480
      7 O1          2.1361    0.3623    2.5542 O.3       1 <0>        -0.4980
      8 C7          3.6928   -0.7035    0.4536 C.2       1 <0>         0.4852
      9 O2          4.7460   -0.1095    0.5851 O.2       1 <0>        -0.4322
     10 C8          3.6608   -2.1743    0.5387 C.ar      1 <0>        -0.1265
     11 C9          2.4342   -2.8546    0.5024 C.ar      1 <0>         0.1691
     12 C10         2.4088   -4.2360    0.5827 C.ar      1 <0>        -0.1057
     13 C11         3.6003   -4.9519    0.7000 C.ar      1 <0>        -0.0938
     14 C12         4.8221   -4.2796    0.7369 C.ar      1 <0>        -0.1165
     15 C13         4.8572   -2.8988    0.6505 C.ar      1 <0>         0.1730
     16 O3          6.0463   -2.2463    0.6804 O.3       1 <0>        -0.4652
     17 C14         3.5681   -6.4288    0.7860 C.2       1 <0>         0.5222
     18 O4          2.5055   -7.0158    0.7544 O.2       1 <0>        -0.4916
     19 O5          4.7174   -7.1220    0.8992 O.3       1 <0>        -0.3307
     20 C15         4.6117   -8.5449    0.9774 C.3       1 <0>         0.0657
     21 H1          3.7299   -8.8691    0.4248 H         1 <0>         0.1055
     22 C16         4.4640   -8.9632    2.4617 C.3       1 <0>        -0.1470
     23 C17         3.9653  -10.3824    2.5193 C.3       1 <0>        -0.1434
     24 C18         5.0937  -11.4275    2.5830 C.3       1 <0>        -0.0094
     25 N1          6.2180  -11.1401    1.6666 N.4       1 <0>        -0.4994
     26 C19         5.7588  -10.6833    0.3774 C.3       1 <0>        -0.0231
     27 C20         5.7981   -9.1464    0.3812 C.3       1 <0>         0.1310
     28 H2          6.6752   -8.8189    0.9394 H         1 <0>         0.1179
     29 N2          5.9207   -8.6760   -1.0008 N.am      1 <0>        -0.7209
     30 C21         7.1275   -8.6538   -1.6005 C.2       1 <0>         0.5793
     31 O6          8.1144   -9.0242   -0.9946 O.2       1 <0>        -0.5352
     32 C22         7.2511   -8.1798   -2.9929 C.ar      1 <0>        -0.1671
     33 C23         6.1190   -7.7483   -3.6891 C.ar      1 <0>        -0.0608
     34 C24         6.2385   -7.3064   -4.9878 C.ar      1 <0>        -0.1505
     35 C25         7.4831   -7.2896   -5.6064 C.ar      1 <0>         0.1533
     36 C26         8.6116   -7.7181   -4.9173 C.ar      1 <0>        -0.1554
     37 C27         8.5013   -8.1560   -3.6164 C.ar      1 <0>        -0.0342
     38 O7          7.5966   -6.8543   -6.8868 O.3       1 <0>        -0.4978
     39 O8          1.2748   -2.1593    0.3893 O.3       1 <0>        -0.4747
     40 C28         2.7579   -0.2720   -2.2534 C.2       1 <0>         0.5130
     41 O9          2.3100   -0.1755   -3.3872 O.co2     1 <0>        -0.6731
     42 O10         3.8408   -0.8086   -2.0675 O.co2     1 <0>        -0.6648
     43 H3         -0.8141    2.0219   -0.4264 H         1 <0>         0.1239
     44 H4          0.4610    1.1335   -2.3322 H         1 <0>         0.1348
     45 H5         -0.0334    1.6583    1.8704 H         1 <0>         0.1251
     46 H6          2.6589    1.0936    2.9105 H         1 <0>         0.3854
     47 H7          1.4651   -4.7604    0.5548 H         1 <0>         0.1491
     48 H8          5.7421   -4.8377    0.8285 H         1 <0>         0.1454
     49 H9          6.3403   -2.0050    1.5695 H         1 <0>         0.3934
     50 H10         5.4320   -8.8958    2.9582 H         1 <0>         0.0842
     51 H11         3.7505   -8.3050    2.9574 H         1 <0>         0.1075
     52 H12         3.3348  -10.4953    3.4013 H         1 <0>         0.1186
     53 H13         3.3599  -10.5759    1.6338 H         1 <0>         0.0921
     54 H14         5.4761  -11.4662    3.6030 H         1 <0>         0.1350
     55 H15         4.6795  -12.4038    2.3315 H         1 <0>         0.1342
     56 H16         6.8030  -10.4283    2.0779 H         1 <0>         0.4287
     57 H17         6.4137  -11.0674   -0.4047 H         1 <0>         0.1476
     58 H18         4.7384  -11.0263    0.2064 H         1 <0>         0.1422
     59 H19         5.1334   -8.3805   -1.4842 H         1 <0>         0.4133
     60 H20         5.1515   -7.7616   -3.2093 H         1 <0>         0.1278
     61 H21         5.3639   -6.9727   -5.5265 H         1 <0>         0.1421
     62 H22         9.5769   -7.7036   -5.4015 H         1 <0>         0.1409
     63 H23         9.3793   -8.4849   -3.0803 H         1 <0>         0.1415
     64 H24         7.7635   -5.9051   -6.9661 H         1 <0>         0.4053
     65 H25         0.9516   -2.0784   -0.5186 H         1 <0>         0.4012
     66 H26         6.7632  -11.9799    1.5424 H         1 <0>         0.4364
@<TRIPOS>BOND
     1    1    6 ar
     2    1    2 ar
     3    1   43 1
     4    2    3 ar
     5    2   44 1
     6    3    4 ar
     7    3   40 1
     8    4    5 ar
     9    4    8 1
    10    5    6 ar
    11    5    7 1
    12    6   45 1
    13    7   46 1
    14    8    9 2
    15    8   10 1
    16   10   15 ar
    17   10   11 ar
    18   11   12 ar
    19   11   39 1
    20   12   13 ar
    21   12   47 1
    22   13   14 ar
    23   13   17 1
    24   14   15 ar
    25   14   48 1
    26   15   16 1
    27   16   49 1
    28   17   18 2
    29   17   19 1
    30   19   20 1
    31   20   21 1
    32   20   27 1
    33   20   22 1
    34   22   23 1
    35   22   50 1
    36   22   51 1
    37   23   24 1
    38   23   52 1
    39   23   53 1
    40   24   25 1
    41   24   54 1
    42   24   55 1
    43   25   26 1
    44   25   56 1
    45   25   66 1
    46   26   27 1
    47   26   57 1
    48   26   58 1
    49   27   28 1
    50   27   29 1
    51   29   30 am
    52   29   59 1
    53   30   31 2
    54   30   32 1
    55   32   37 ar
    56   32   33 ar
    57   33   34 ar
    58   33   60 1
    59   34   35 ar
    60   34   61 1
    61   35   36 ar
    62   35   38 1
    63   36   37 ar
    64   36   62 1
    65   37   63 1
    66   38   64 1
    67   39   65 1
    68   40   41 2
    69   40   42 1
@<TRIPOS>MOLECULE
ZINC26731846
   38    42     0     0     0
SMALL
USER_CHARGES
3,4-di(indol-1-yl)pyrrole-2,5-dione
@<TRIPOS>ATOM
      1 C1          1.2028   -0.6678   -0.0130 C.ar      1 <0>        -0.1380
      2 C2          2.3970    0.0391   -0.0211 C.ar      1 <0>        -0.0906
      3 C3          2.3979    1.4174   -0.0137 C.ar      1 <0>        -0.1269
      4 C4          1.1927    2.1101    0.0020 C.ar      1 <0>         0.1036
      5 C5         -0.0169    1.3914    0.0097 C.ar      1 <0>        -0.0971
      6 C6          0.0021   -0.0041    0.0020 C.ar      1 <0>        -0.0667
      7 C7         -1.0852    2.3950    0.0194 C.2       1 <0>        -0.1735
      8 C8         -0.4931    3.5998    0.0254 C.2       1 <0>         0.0565
      9 N1          0.8687    3.4509    0.0119 N.pl3     1 <0>        -0.4291
     10 C9          1.7886    4.4970    0.0093 C.2       1 <0>         0.1072
     11 C10         2.1196    5.2931    1.0633 C.2       1 <0>         0.1063
     12 C11         3.1333    6.2468    0.5675 C.2       1 <0>         0.5537
     13 O1          3.6710    7.1159    1.2238 O.2       1 <0>        -0.4263
     14 N2          3.3566    5.9938   -0.7341 N.am      1 <0>        -0.6879
     15 C12         2.5919    4.9646   -1.1392 C.2       1 <0>         0.5665
     16 O2          2.5658    4.4982   -2.2603 O.2       1 <0>        -0.4255
     17 N3          1.6048    5.2213    2.3556 N.pl3     1 <0>        -0.4298
     18 C13         1.9282    4.2632    3.2801 C.2       1 <0>         0.0566
     19 C14         1.2590    4.4853    4.4224 C.2       1 <0>        -0.1738
     20 C15         0.4328    5.6776    4.2115 C.ar      1 <0>        -0.0972
     21 C16         0.6887    6.1008    2.8943 C.ar      1 <0>         0.1039
     22 C17         0.0386    7.2261    2.4007 C.ar      1 <0>        -0.1270
     23 C18        -0.8462    7.9142    3.2026 C.ar      1 <0>        -0.0907
     24 C19        -1.0975    7.4948    4.5014 C.ar      1 <0>        -0.1382
     25 C20        -0.4668    6.3869    5.0086 C.ar      1 <0>        -0.0667
     26 H1          1.2187   -1.7476   -0.0190 H         1 <0>         0.1280
     27 H2          3.3350   -0.4961   -0.0337 H         1 <0>         0.1295
     28 H3          3.3328    1.9580   -0.0198 H         1 <0>         0.1149
     29 H4         -0.9244   -0.5591    0.0075 H         1 <0>         0.1286
     30 H5         -2.1477    2.2017    0.0229 H         1 <0>         0.1583
     31 H6         -1.0133    4.5462    0.0356 H         1 <0>         0.1705
     32 H7          4.0817    6.6009   -1.2959 H         1 <0>         0.4717
     33 H8          2.6207    3.4511    3.1150 H         1 <0>         0.1704
     34 H9          1.3155    3.8948    5.3249 H         1 <0>         0.1582
     35 H10         0.2268    7.5606    1.3911 H         1 <0>         0.1148
     36 H11        -1.3494    8.7883    2.8163 H         1 <0>         0.1294
     37 H12        -1.7938    8.0445    5.1173 H         1 <0>         0.1279
     38 H13        -0.6654    6.0653    6.0203 H         1 <0>         0.1285
@<TRIPOS>BOND
     1    1    6 ar
     2    1    2 ar
     3    1   26 1
     4    2    3 ar
     5    2   27 1
     6    3    4 ar
     7    3   28 1
     8    4    9 1
     9    4    5 ar
    10    5    6 ar
    11    5    7 1
    12    6   29 1
    13    7    8 2
    14    7   30 1
    15    8    9 1
    16    8   31 1
    17    9   10 1
    18   10   15 1
    19   10   11 2
    20   11   12 1
    21   11   17 1
    22   12   13 2
    23   12   14 am
    24   14   15 am
    25   14   32 1
    26   15   16 2
    27   17   21 1
    28   17   18 1
    29   18   19 2
    30   18   33 1
    31   19   20 1
    32   19   34 1
    33   20   25 ar
    34   20   21 ar
    35   21   22 ar
    36   22   23 ar
    37   22   35 1
    38   23   24 ar
    39   23   36 1
    40   24   25 ar
    41   24   37 1
    42   25   38 1
@<TRIPOS>MOLECULE
ZINC26731846
   37    41     0     0     0
SMALL
USER_CHARGES
3,4-di(indol-1-yl)pyrrole-2,5-dione
@<TRIPOS>ATOM
      1 C1          1.2028   -0.6678   -0.0130 C.ar      1 <0>        -0.1487
      2 C2          2.3970    0.0391   -0.0211 C.ar      1 <0>        -0.1040
      3 C3          2.3979    1.4174   -0.0137 C.ar      1 <0>        -0.1169
      4 C4          1.1927    2.1101    0.0020 C.ar      1 <0>         0.1111
      5 C5         -0.0169    1.3914    0.0097 C.ar      1 <0>        -0.1038
      6 C6          0.0021   -0.0041    0.0020 C.ar      1 <0>        -0.0753
      7 C7         -1.0852    2.3950    0.0194 C.2       1 <0>        -0.2051
      8 C8         -0.4931    3.5998    0.0254 C.2       1 <0>         0.0683
      9 N1          0.8687    3.4509    0.0119 N.pl3     1 <0>        -0.4129
     10 C9          1.7886    4.4970    0.0093 C.2       1 <0>         0.0328
     11 C10         2.1196    5.2931    1.0633 C.2       1 <0>         0.0329
     12 C11         3.1333    6.2468    0.5675 C.2       1 <0>         0.5279
     13 O1          3.6710    7.1159    1.2238 O.3       1 <0>        -0.5133
     14 N2          3.3566    5.9938   -0.7341 N.2       1 <0>        -0.6974
     15 C12         2.5919    4.9646   -1.1392 C.2       1 <0>         0.5279
     16 O2          2.5658    4.4982   -2.2603 O.2       1 <0>        -0.5133
     17 N3          1.6048    5.2213    2.3556 N.pl3     1 <0>        -0.4129
     18 C13         1.9282    4.2632    3.2801 C.2       1 <0>         0.0683
     19 C14         1.2590    4.4853    4.4224 C.2       1 <0>        -0.2050
     20 C15         0.4328    5.6776    4.2115 C.ar      1 <0>        -0.1038
     21 C16         0.6887    6.1008    2.8943 C.ar      1 <0>         0.1112
     22 C17         0.0386    7.2261    2.4007 C.ar      1 <0>        -0.1170
     23 C18        -0.8462    7.9142    3.2026 C.ar      1 <0>        -0.1040
     24 C19        -1.0975    7.4948    4.5014 C.ar      1 <0>        -0.1488
     25 C20        -0.4668    6.3869    5.0086 C.ar      1 <0>        -0.0753
     26 H1          1.2187   -1.7476   -0.0190 H         1 <0>         0.1195
     27 H2          3.3350   -0.4961   -0.0337 H         1 <0>         0.1228
     28 H3          3.3328    1.9580   -0.0198 H         1 <0>         0.1160
     29 H4         -0.9244   -0.5591    0.0075 H         1 <0>         0.1199
     30 H5         -2.1477    2.2017    0.0229 H         1 <0>         0.1487
     31 H6         -1.0133    4.5462    0.0356 H         1 <0>         0.1618
     32 H7          2.6207    3.4511    3.1150 H         1 <0>         0.1618
     33 H8          1.3155    3.8948    5.3249 H         1 <0>         0.1487
     34 H9          0.2268    7.5606    1.3911 H         1 <0>         0.1160
     35 H10        -1.3494    8.7883    2.8163 H         1 <0>         0.1228
     36 H11        -1.7938    8.0445    5.1173 H         1 <0>         0.1195
     37 H12        -0.6654    6.0653    6.0203 H         1 <0>         0.1199
@<TRIPOS>BOND
     1    1    6 ar
     2    1    2 ar
     3    1   26 1
     4    2    3 ar
     5    2   27 1
     6    3    4 ar
     7    3   28 1
     8    4    9 1
     9    4    5 ar
    10    5    6 ar
    11    5    7 1
    12    6   29 1
    13    7    8 2
    14    7   30 1
    15    8    9 1
    16    8   31 1
    17    9   10 1
    18   10   15 1
    19   10   11 2
    20   11   12 1
    21   11   17 1
    22   12   13 1
    23   12   14 2
    24   14   15 1
    25   15   16 2
    26   17   21 1
    27   17   18 1
    28   18   19 2
    29   18   32 1
    30   19   20 1
    31   19   33 1
    32   20   25 ar
    33   20   21 ar
    34   21   22 ar
    35   22   23 ar
    36   22   34 1
    37   23   24 ar
    38   23   35 1
    39   24   25 ar
    40   24   36 1
    41   25   37 1
@<TRIPOS>MOLECULE
ZINC02149990
   31    32     0     0     0
SMALL
USER_CHARGES

@<TRIPOS>ATOM
      1 C1         -0.7696    0.9559    0.1072 C.ar      1 <0>        -0.1561
      2 C2          0.2301    1.8786    0.0407 C.ar      1 <0>        -0.0084
      3 C3          1.5627    1.4486   -0.0513 C.ar      1 <0>        -0.1402
      4 C4          2.6351    2.3527   -0.1222 C.ar      1 <0>         0.1720
      5 N1          3.8651    1.9028   -0.2069 N.ar      1 <0>        -0.4886
      6 C5          4.1565    0.6093   -0.2297 C.ar      1 <0>         0.1179
      7 C6          3.1893   -0.3471   -0.1661 C.ar      1 <0>        -0.1979
      8 C7          1.8450    0.0577   -0.0736 C.ar      1 <0>         0.0580
      9 C8          0.7902   -0.8632   -0.0034 C.ar      1 <0>        -0.6941
     10 C9         -0.4914   -0.4092    0.0852 C.ar      1 <0>         0.0350
     11 S1          1.1192   -2.5940   -0.0301 S.o2      1 <0>         2.6980
     12 O1         -0.1354   -3.2480    0.1013 O.2       1 <0>        -0.9449
     13 O2          1.9874   -2.8254   -1.1310 O.2       1 <0>        -0.9306
     14 N2          1.9836   -2.9492    1.3370 N.pl3     1 <0>        -1.1168
     15 C10         1.3773   -2.7589    2.6570 C.3       1 <0>         0.0891
     16 C11         2.1929   -3.5164    3.7068 C.3       1 <0>        -0.0160
     17 N3          1.5849   -3.3256    5.0304 N.4       1 <0>        -0.6343
     18 H1         -1.7946    1.2878    0.1826 H         1 <0>         0.1452
     19 H2         -0.0012    2.9334    0.0584 H         1 <0>         0.1489
     20 H3          2.4480    3.4163   -0.1074 H         1 <0>         0.1734
     21 H4          5.1905    0.3057   -0.3012 H         1 <0>         0.1635
     22 H5          3.4489   -1.3952   -0.1865 H         1 <0>         0.1410
     23 H6         -1.3041   -1.1184    0.1397 H         1 <0>         0.1512
     24 H7          2.8913   -3.2833    1.2638 H         1 <0>         0.4275
     25 H8          1.3665   -1.6969    2.9022 H         1 <0>         0.0890
     26 H9          0.3561   -3.1398    2.6461 H         1 <0>         0.1052
     27 H10         2.2037   -4.5784    3.4617 H         1 <0>         0.1462
     28 H11         3.2141   -3.1355    3.7177 H         1 <0>         0.1436
     29 H12         1.5749   -2.3425    5.2574 H         1 <0>         0.4381
     30 H13         0.6396   -3.6781    5.0203 H         1 <0>         0.4397
     31 H14         2.1228   -3.8251    5.7228 H         1 <0>         0.4453
@<TRIPOS>BOND
     1    1   10 ar
     2    1    2 ar
     3    1   18 1
     4    2    3 ar
     5    2   19 1
     6    3    8 ar
     7    3    4 ar
     8    4    5 ar
     9    4   20 1
    10    5    6 ar
    11    6    7 ar
    12    6   21 1
    13    7    8 ar
    14    7   22 1
    15    8    9 ar
    16    9   10 ar
    17    9   11 1
    18   10   23 1
    19   11   12 2
    20   11   13 2
    21   11   14 1
    22   14   15 1
    23   14   24 1
    24   15   16 1
    25   15   25 1
    26   15   26 1
    27   16   17 1
    28   16   27 1
    29   16   28 1
    30   17   29 1
    31   17   30 1
    32   17   31 1
@<TRIPOS>MOLECULE
ZINC00206684
   28    30     0     0     0
SMALL
USER_CHARGES
4-(1-ethylbenzimidazol-2-yl)-1,2,5-oxadiazol-3-amine
@<TRIPOS>ATOM
      1 C1         -4.1971    3.7307   -1.3824 C.3       1 <0>        -0.1665
      2 C2         -3.6824    3.8144    0.0560 C.3       1 <0>         0.1005
      3 N1         -2.2413    4.0776    0.0444 N.pl3     1 <0>        -0.4688
      4 C3         -1.2361    3.1321    0.0298 C.ar      1 <0>         0.0595
      5 C4         -1.2185    1.7438    0.0173 C.ar      1 <0>        -0.1102
      6 C5         -0.0126    1.0758    0.0080 C.ar      1 <0>        -0.0927
      7 C6          1.1830    1.7812    0.0003 C.ar      1 <0>        -0.1249
      8 C7          1.1866    3.1467    0.0072 C.ar      1 <0>        -0.0590
      9 C8         -0.0247    3.8471    0.0220 C.ar      1 <0>         0.0501
     10 N2         -0.3380    5.1645    0.0320 N.2       1 <0>        -0.4687
     11 C9         -1.6401    5.3074    0.0452 C.2       1 <0>         0.3546
     12 C10        -2.3539    6.6034    0.0594 C.2       1 <0>         0.0214
     13 C11        -1.7891    7.9732    0.0674 C.2       1 <0>         0.3227
     14 N3         -2.8650    8.7249    0.0766 N.2       1 <0>        -0.4105
     15 O1         -3.8479    8.0221    0.0826 O.3       1 <0>         0.3361
     16 N4         -3.6501    6.8298    0.0738 N.2       1 <0>        -0.3221
     17 N5         -0.4565    8.3635    0.0635 N.pl3     1 <0>        -0.8002
     18 H1         -5.2694    3.5348   -1.3738 H         1 <0>         0.0827
     19 H2         -4.0042    4.6743   -1.8928 H         1 <0>         0.0621
     20 H3         -3.6845    2.9233   -1.9053 H         1 <0>         0.0626
     21 H4         -3.8753    2.8708    0.5664 H         1 <0>         0.0950
     22 H5         -4.1950    4.6218    0.5789 H         1 <0>         0.1036
     23 H6         -2.1454    1.1896    0.0190 H         1 <0>         0.1250
     24 H7          0.0021   -0.0041    0.0020 H         1 <0>         0.1338
     25 H8          2.1201    1.2444   -0.0115 H         1 <0>         0.1334
     26 H9          2.1228    3.6852    0.0015 H         1 <0>         0.1330
     27 H10         0.2451    7.6937    0.0544 H         1 <0>         0.4301
     28 H11        -0.2271    9.3060    0.0698 H         1 <0>         0.4175
@<TRIPOS>BOND
     1    1    2 1
     2    1   18 1
     3    1   19 1
     4    1   20 1
     5    2    3 1
     6    2   21 1
     7    2   22 1
     8    3   11 1
     9    3    4 1
    10    4    9 ar
    11    4    5 ar
    12    5    6 ar
    13    5   23 1
    14    6    7 ar
    15    6   24 1
    16    7    8 ar
    17    7   25 1
    18    8    9 ar
    19    8   26 1
    20    9   10 1
    21   10   11 2
    22   11   12 1
    23   12   16 2
    24   12   13 1
    25   13   14 2
    26   13   17 1
    27   14   15 1
    28   15   16 1
    29   17   27 1
    30   17   28 1
@<TRIPOS>MOLECULE
ZINC28643174
   22    23     0     0     0
SMALL
USER_CHARGES

@<TRIPOS>ATOM
      1 C1         -0.0168    1.3891    0.0097 C.ar      1 <0>        -0.1535
      2 C2          1.1399    2.1082    0.0025 C.ar      1 <0>        -0.0168
      3 C3          2.3717    1.4361   -0.0128 C.ar      1 <0>        -0.1387
      4 C4          3.5965    2.1233   -0.0202 C.ar      1 <0>         0.1638
      5 N1          4.7235    1.4508   -0.0342 N.ar      1 <0>        -0.4902
      6 C5          4.7687    0.1255   -0.0418 C.ar      1 <0>         0.1092
      7 C6          3.6377   -0.6328   -0.0356 C.ar      1 <0>        -0.1872
      8 C7          2.3897    0.0168   -0.0206 C.ar      1 <0>         0.0549
      9 C8          1.1791   -0.6902   -0.0128 C.ar      1 <0>        -0.6832
     10 C9          0.0021   -0.0041    0.0020 C.ar      1 <0>         0.0336
     11 S1          1.1797   -2.4522   -0.0228 S.o2      1 <0>         2.7034
     12 O1          2.0857   -2.8637    0.9917 O.2       1 <0>        -0.9553
     13 O2         -0.1818   -2.8587   -0.0389 O.2       1 <0>        -0.9585
     14 N2          1.8345   -2.9334   -1.4657 N.pl3     1 <0>        -1.2471
     15 H1         -0.9642    1.9073    0.0261 H         1 <0>         0.1430
     16 H2          1.1093    3.1878    0.0082 H         1 <0>         0.1457
     17 H3          3.6110    3.2032   -0.0148 H         1 <0>         0.1702
     18 H4          5.7301   -0.3665   -0.0537 H         1 <0>         0.1625
     19 H5          3.6974   -1.7111   -0.0424 H         1 <0>         0.1491
     20 H6         -0.9306   -0.5485    0.0083 H         1 <0>         0.1526
     21 H7          2.3198   -3.7713   -1.5226 H         1 <0>         0.4239
     22 H8          1.7326   -2.3774   -2.2540 H         1 <0>         0.4187
@<TRIPOS>BOND
     1    1   10 ar
     2    1    2 ar
     3    1   15 1
     4    2    3 ar
     5    2   16 1
     6    3    8 ar
     7    3    4 ar
     8    4    5 ar
     9    4   17 1
    10    5    6 ar
    11    6    7 ar
    12    6   18 1
    13    7    8 ar
    14    7   19 1
    15    8    9 ar
    16    9   10 ar
    17    9   11 1
    18   10   20 1
    19   11   12 2
    20   11   13 2
    21   11   14 1
    22   14   21 1
    23   14   22 1
@<TRIPOS>MOLECULE
ZINC16052569
   50    53     0     0     0
SMALL
USER_CHARGES

@<TRIPOS>ATOM
      1 C1         -0.0184    1.5028    0.0103 C.3       1 <0>        -0.0807
      2 C2          0.0021   -0.0041    0.0020 C.2       1 <0>         0.1088
      3 C3          0.0083   -0.8581   -1.1820 C.ar      1 <0>        -0.1763
      4 C4         -0.0019   -0.6082   -2.5573 C.ar      1 <0>        -0.0083
      5 C5          0.0079   -1.6738   -3.4431 C.ar      1 <0>        -0.1061
      6 C6          0.0279   -2.9891   -2.9631 C.ar      1 <0>        -0.0534
      7 C7          0.0380   -3.2410   -1.6234 C.ar      1 <0>        -0.1371
      8 C8          0.0285   -2.1860   -0.7124 C.ar      1 <0>         0.1440
      9 N1          0.0337   -2.1193    0.6566 N.pl3     1 <0>        -0.5045
     10 H1          0.0468   -2.8812    1.2569 H         1 <0>         0.4444
     11 N2          0.0230   -0.7772    1.0497 N.2       1 <0>        -0.2435
     12 C9         -0.0034   -1.4202   -4.9053 C.ar      1 <0>        -0.0271
     13 C10         0.0004   -2.4846   -5.8096 C.ar      1 <0>        -0.1014
     14 C11        -0.0110   -2.1940   -7.1677 C.ar      1 <0>         0.0698
     15 C12        -0.0257   -0.8671   -7.5756 C.ar      1 <0>         0.0161
     16 N3         -0.0289    0.1132   -6.6940 N.ar      1 <0>        -0.4368
     17 C13        -0.0238   -0.1167   -5.3969 C.ar      1 <0>         0.0812
     18 O1         -0.0074   -3.1961   -8.0859 O.3       1 <0>        -0.3231
     19 C14        -0.0198   -2.8144   -9.4629 C.3       1 <0>         0.0274
     20 C15        -0.0136   -4.0682  -10.3397 C.3       1 <0>         0.0437
     21 H2          0.8359   -4.6958  -10.0703 H         1 <0>         0.1553
     22 C16         0.0989   -3.6615  -11.8104 C.3       1 <0>        -0.0972
     23 C17         0.2286   -4.8962  -12.6646 C.ar      1 <0>        -0.1303
     24 C18         1.4792   -5.4136  -12.9461 C.ar      1 <0>        -0.1030
     25 C19         1.5982   -6.5462  -13.7296 C.ar      1 <0>        -0.1053
     26 C20         0.4666   -7.1617  -14.2312 C.ar      1 <0>        -0.1014
     27 C21        -0.7840   -6.6448  -13.9490 C.ar      1 <0>        -0.1075
     28 C22        -0.9032   -5.5147  -13.1619 C.ar      1 <0>        -0.1401
     29 N4         -1.2605   -4.8167  -10.1327 N.4       1 <0>        -0.6365
     30 H3          1.0042    1.8801    0.0026 H         1 <0>         0.0878
     31 H4         -0.5455    1.8639   -0.8728 H         1 <0>         0.0842
     32 H5         -0.5286    1.8543    0.9071 H         1 <0>         0.0843
     33 H6         -0.0177    0.4067   -2.9264 H         1 <0>         0.1366
     34 H7          0.0350   -3.8127   -3.6617 H         1 <0>         0.1316
     35 H8          0.0531   -4.2604   -1.2670 H         1 <0>         0.1332
     36 H9          0.0123   -3.5071   -5.4619 H         1 <0>         0.1476
     37 H10        -0.0343   -0.6345   -8.6302 H         1 <0>         0.1565
     38 H11        -0.0314    0.7142   -4.7071 H         1 <0>         0.1670
     39 H12        -0.9167   -2.2306   -9.6700 H         1 <0>         0.0927
     40 H13         0.8631   -2.2138   -9.6814 H         1 <0>         0.1143
     41 H14        -0.7936   -3.1088  -12.1038 H         1 <0>         0.1038
     42 H15         0.9777   -3.0313  -11.9469 H         1 <0>         0.1255
     43 H16         2.3632   -4.9328  -12.5542 H         1 <0>         0.1308
     44 H17         2.5752   -6.9501  -13.9502 H         1 <0>         0.1335
     45 H18         0.5596   -8.0462  -14.8440 H         1 <0>         0.1330
     46 H19        -1.6681   -7.1255  -14.3411 H         1 <0>         0.1326
     47 H20        -1.8805   -5.1130  -12.9382 H         1 <0>         0.1228
     48 H21        -1.2564   -5.6436  -10.7110 H         1 <0>         0.4365
     49 H22        -1.3347   -5.0850   -9.1628 H         1 <0>         0.4422
     50 H23        -2.0469   -4.2358  -10.3821 H         1 <0>         0.4324
@<TRIPOS>BOND
     1    1    2 1
     2    1   30 1
     3    1   31 1
     4    1   32 1
     5    2   11 2
     6    2    3 1
     7    3    8 ar
     8    3    4 ar
     9    4    5 ar
    10    4   33 1
    11    5    6 ar
    12    5   12 1
    13    6    7 ar
    14    6   34 1
    15    7    8 ar
    16    7   35 1
    17    8    9 1
    18    9   10 1
    19    9   11 1
    20   12   17 ar
    21   12   13 ar
    22   13   14 ar
    23   13   36 1
    24   14   15 ar
    25   14   18 1
    26   15   16 ar
    27   15   37 1
    28   16   17 ar
    29   17   38 1
    30   18   19 1
    31   19   20 1
    32   19   39 1
    33   19   40 1
    34   20   21 1
    35   20   22 1
    36   20   29 1
    37   22   23 1
    38   22   41 1
    39   22   42 1
    40   23   28 ar
    41   23   24 ar
    42   24   25 ar
    43   24   43 1
    44   25   26 ar
    45   25   44 1
    46   26   27 ar
    47   26   45 1
    48   27   28 ar
    49   27   46 1
    50   28   47 1
    51   29   48 1
    52   29   49 1
    53   29   50 1
@<TRIPOS>MOLECULE
ZINC00006486
   38    40     0     0     0
SMALL
USER_CHARGES

@<TRIPOS>ATOM
      1 C1          1.9298    1.3878   -0.9612 C.ar      1 <0>        -0.1576
      2 C2          1.2945    2.1069    0.0055 C.ar      1 <0>        -0.0072
      3 C3          0.5887    1.4353    1.0155 C.ar      1 <0>        -0.1351
      4 C4         -0.0859    2.1226    2.0377 C.ar      1 <0>         0.1714
      5 N1         -0.7330    1.4506    2.9607 N.ar      1 <0>        -0.4845
      6 C5         -0.7853    0.1257    2.9804 C.ar      1 <0>         0.1226
      7 C6         -0.1649   -0.6326    2.0348 C.ar      1 <0>        -0.1974
      8 C7          0.5498    0.0164    1.0112 C.ar      1 <0>         0.0591
      9 C8          1.2155   -0.6907    0.0002 C.ar      1 <0>        -0.6812
     10 C9          1.8908   -0.0050   -0.9643 C.ar      1 <0>         0.0183
     11 S1          1.1797   -2.4522   -0.0228 S.o2      1 <0>         2.6894
     12 O1          2.1558   -2.8904    0.9123 O.2       1 <0>        -0.9370
     13 O2         -0.1866   -2.8318    0.0679 O.2       1 <0>        -0.9323
     14 N2          1.7064   -2.9332   -1.5173 N.pl3     1 <0>        -1.0124
     15 C10         0.7868   -3.0345   -2.6189 C.3       1 <0>         0.0909
     16 C11         0.1192   -4.4141   -2.8245 C.3       1 <0>        -0.1667
     17 C12         1.1568   -5.5430   -2.6198 C.3       1 <0>        -0.0238
     18 N3          2.4281   -5.1459   -3.1775 N.4       1 <0>        -0.4914
     19 C13         3.2116   -4.7126   -2.0246 C.3       1 <0>        -0.0360
     20 C14         3.1534   -3.2648   -1.7465 C.3       1 <0>         0.0902
     21 H1          2.4689    1.9057   -1.7406 H         1 <0>         0.1429
     22 H2          1.3340    3.1862   -0.0051 H         1 <0>         0.1499
     23 H3         -0.0718    3.2022    2.0643 H         1 <0>         0.1757
     24 H4         -1.3354   -0.3659    3.7691 H         1 <0>         0.1673
     25 H5         -0.2201   -1.7107    2.0699 H         1 <0>         0.1385
     26 H6          2.4035   -0.5495   -1.7435 H         1 <0>         0.1345
     27 H7         -0.0004   -2.2948   -2.4732 H         1 <0>         0.1069
     28 H8          1.3221   -2.7769   -3.5328 H         1 <0>         0.0865
     29 H9         -0.6916   -4.5338   -2.1059 H         1 <0>         0.1214
     30 H10        -0.2846   -4.4731   -3.8352 H         1 <0>         0.1121
     31 H11         1.2739   -5.7387   -1.5540 H         1 <0>         0.1320
     32 H12         0.8098   -6.4486   -3.1175 H         1 <0>         0.1373
     33 H13         2.8736   -5.9290   -3.6319 H         1 <0>         0.4400
     34 H14         2.8551   -5.2487   -1.1450 H         1 <0>         0.1397
     35 H15         4.2526   -4.9884   -2.1925 H         1 <0>         0.1457
     36 H16         3.5339   -2.7035   -2.5999 H         1 <0>         0.1123
     37 H17         3.7354   -3.0302   -0.8552 H         1 <0>         0.1481
     38 H18         2.3053   -4.3833   -3.8267 H         1 <0>         0.4297
@<TRIPOS>BOND
     1    1   10 ar
     2    1    2 ar
     3    1   21 1
     4    2    3 ar
     5    2   22 1
     6    3    8 ar
     7    3    4 ar
     8    4    5 ar
     9    4   23 1
    10    5    6 ar
    11    6    7 ar
    12    6   24 1
    13    7    8 ar
    14    7   25 1
    15    8    9 ar
    16    9   10 ar
    17    9   11 1
    18   10   26 1
    19   11   12 2
    20   11   13 2
    21   11   14 1
    22   14   20 1
    23   14   15 1
    24   15   16 1
    25   15   27 1
    26   15   28 1
    27   16   17 1
    28   16   29 1
    29   16   30 1
    30   17   18 1
    31   17   31 1
    32   17   32 1
    33   18   19 1
    34   18   33 1
    35   18   38 1
    36   19   20 1
    37   19   34 1
    38   19   35 1
    39   20   36 1
    40   20   37 1
@<TRIPOS>MOLECULE
ZINC20149028
   48    51     0     0     0
SMALL
USER_CHARGES

@<TRIPOS>ATOM
      1 C1          0.4585    0.4884    0.9561 C.ar      1 <0>        -0.1053
      2 C2          1.6076    1.2518    1.0011 C.ar      1 <0>        -0.0998
      3 C3          2.4549    1.2978   -0.1049 C.ar      1 <0>         0.0176
      4 C4          2.1363    0.5716   -1.2514 C.ar      1 <0>        -0.1040
      5 C5          0.9840   -0.1888   -1.2854 C.ar      1 <0>        -0.0324
      6 C6          0.1465   -0.2303   -0.1835 C.ar      1 <0>        -0.1156
      7 Cl1         0.5845   -1.0937   -2.7121 Cl        1 <0>        -0.0710
      8 C7          3.6902    2.1165   -0.0621 C.2       1 <0>        -0.2037
      9 C8          4.0508    3.1299   -0.9685 C.2       1 <0>         0.0722
     10 N1          5.2047    3.6215   -0.6039 N.2       1 <0>        -0.2871
     11 N2          5.6429    2.9556    0.5466 N.pl3     1 <0>        -0.4647
     12 H1          6.4701    3.1267    1.0233 H         1 <0>         0.4422
     13 C9          4.7029    2.0294    0.8832 C.2       1 <0>         0.1918
     14 C10         4.7529    1.1045    2.0356 C.2       1 <0>        -0.1449
     15 C11         5.0814    1.4409    3.3654 C.2       1 <0>        -0.0773
     16 C12         5.0056    0.2925    4.1007 C.2       1 <0>        -0.0519
     17 N3          4.6408   -0.7344    3.2595 N.pl3     1 <0>        -0.5281
     18 H2          4.5146   -1.6594    3.5227 H         1 <0>         0.4216
     19 C13         4.4814   -0.2472    2.0125 C.2       1 <0>         0.0829
     20 C14         5.2686    0.1735    5.5394 C.2       1 <0>         0.5932
     21 O1          5.5864    1.1561    6.1831 O.2       1 <0>        -0.5224
     22 N4          5.1581   -1.0240    6.1478 N.am      1 <0>        -0.7200
     23 C15         5.4207   -1.1428    7.5842 C.3       1 <0>         0.1955
     24 H3          5.0845   -0.2383    8.0910 H         1 <0>         0.1178
     25 C16         6.9218   -1.3287    7.8146 C.3       1 <0>         0.0662
     26 O2          7.3400   -2.5728    7.2497 O.3       1 <0>        -0.5690
     27 C17         4.6770   -2.3326    8.1341 C.ar      1 <0>        -0.0923
     28 C18         4.6144   -3.5055    7.4046 C.ar      1 <0>        -0.0584
     29 C19         3.9333   -4.5977    7.9074 C.ar      1 <0>        -0.1407
     30 C20         3.3129   -4.5177    9.1426 C.ar      1 <0>         0.1157
     31 C21         3.3759   -3.3421    9.8731 C.ar      1 <0>        -0.0735
     32 C22         4.0629   -2.2522    9.3697 C.ar      1 <0>        -0.0701
     33 Cl2         2.5989   -3.2394   11.4221 Cl        1 <0>        -0.0419
     34 F1          2.6464   -5.5848    9.6348 F         1 <0>        -0.1235
     35 H4         -0.1960    0.4488    1.8142 H         1 <0>         0.1306
     36 H5          1.8497    1.8128    1.8916 H         1 <0>         0.1270
     37 H6          2.7889    0.6038   -2.1113 H         1 <0>         0.1339
     38 H7         -0.7536   -0.8264   -0.2139 H         1 <0>         0.1311
     39 H8          3.4713    3.4477   -1.8226 H         1 <0>         0.1869
     40 H9          5.3438    2.4220    3.7330 H         1 <0>         0.1533
     41 H10         4.1925   -0.8188    1.1429 H         1 <0>         0.1806
     42 H11         4.9048   -1.8072    5.6347 H         1 <0>         0.3970
     43 H12         7.4661   -0.5126    7.3394 H         1 <0>         0.0611
     44 H13         7.1279   -1.3281    8.8850 H         1 <0>         0.0615
     45 H14         8.2829   -2.7572    7.3588 H         1 <0>         0.3842
     46 H15         5.0980   -3.5680    6.4409 H         1 <0>         0.1389
     47 H16         3.8845   -5.5134    7.3369 H         1 <0>         0.1481
     48 H17         4.1162   -1.3370    9.9406 H         1 <0>         0.1467
@<TRIPOS>BOND
     1    1    6 ar
     2    1    2 ar
     3    1   35 1
     4    2    3 ar
     5    2   36 1
     6    3    4 ar
     7    3    8 1
     8    4    5 ar
     9    4   37 1
    10    5    6 ar
    11    5    7 1
    12    6   38 1
    13    8   13 2
    14    8    9 1
    15    9   10 2
    16    9   39 1
    17   10   11 1
    18   11   12 1
    19   11   13 1
    20   13   14 1
    21   14   19 2
    22   14   15 1
    23   15   16 2
    24   15   40 1
    25   16   17 1
    26   16   20 1
    27   17   18 1
    28   17   19 1
    29   19   41 1
    30   20   21 2
    31   20   22 am
    32   22   23 1
    33   22   42 1
    34   23   24 1
    35   23   25 1
    36   23   27 1
    37   25   26 1
    38   25   43 1
    39   25   44 1
    40   26   45 1
    41   27   32 ar
    42   27   28 ar
    43   28   29 ar
    44   28   46 1
    45   29   30 ar
    46   29   47 1
    47   30   31 ar
    48   30   34 1
    49   31   32 ar
    50   31   33 1
    51   32   48 1
@<TRIPOS>MOLECULE
ZINC20149028
   48    51     0     0     0
SMALL
USER_CHARGES

@<TRIPOS>ATOM
      1 C1         -0.0167    1.3786    0.0096 C.ar      1 <0>        -0.1038
      2 C2          1.1676    2.0878    0.0021 C.ar      1 <0>        -0.1106
      3 C3          2.3840    1.4085   -0.0131 C.ar      1 <0>         0.0145
      4 C4          2.3983    0.0151   -0.0207 C.ar      1 <0>        -0.0965
      5 C5          1.2076   -0.6849   -0.0131 C.ar      1 <0>        -0.0326
      6 C6          0.0021   -0.0041    0.0020 C.ar      1 <0>        -0.1163
      7 Cl1         1.2227   -2.4208   -0.0230 Cl        1 <0>        -0.0706
      8 C7          3.6597    2.1660   -0.0217 C.2       1 <0>        -0.2032
      9 C8          3.9817    3.1931   -0.8578 C.2       1 <0>         0.0825
     10 N1          5.2257    3.6075   -0.5427 N.pl3     1 <0>        -0.4697
     11 N2          5.6983    2.8234    0.5164 N.2       1 <0>        -0.2800
     12 H1          5.7109    4.3266   -0.9767 H         1 <0>         0.4446
     13 C9          4.7639    1.9580    0.8421 C.2       1 <0>         0.1753
     14 C10         4.8515    0.9411    1.9196 C.2       1 <0>        -0.1178
     15 C11         6.0090    0.2429    2.3146 C.2       1 <0>        -0.0657
     16 C12         5.6459   -0.5903    3.3354 C.2       1 <0>        -0.0577
     17 N3          4.3004   -0.4148    3.5685 N.pl3     1 <0>        -0.5321
     18 H2          3.7794   -0.8811    4.2408 H         1 <0>         0.4194
     19 C13         3.8255    0.5150    2.7144 C.2       1 <0>         0.0728
     20 C14         6.5335   -1.5100    4.0557 C.2       1 <0>         0.5950
     21 O1          7.7114   -1.5775    3.7574 O.2       1 <0>        -0.5234
     22 N4          6.0445   -2.2801    5.0478 N.am      1 <0>        -0.7212
     23 C15         6.9308   -3.1985    5.7669 C.3       1 <0>         0.1953
     24 H3          7.9206   -2.7511    5.8585 H         1 <0>         0.1174
     25 C16         7.0358   -4.5153    4.9950 C.3       1 <0>         0.0663
     26 O2          5.7601   -5.1589    4.9753 O.3       1 <0>        -0.5686
     27 C17         6.3708   -3.4647    7.1405 C.ar      1 <0>        -0.0909
     28 C18         5.0096   -3.6389    7.3095 C.ar      1 <0>        -0.0580
     29 C19         4.4944   -3.8835    8.5683 C.ar      1 <0>        -0.1408
     30 C20         5.3415   -3.9543    9.6610 C.ar      1 <0>         0.1147
     31 C21         6.7054   -3.7797    9.4910 C.ar      1 <0>        -0.0736
     32 C22         7.2190   -3.5401    8.2292 C.ar      1 <0>        -0.0704
     33 Cl2         7.7697   -3.8679   10.8597 Cl        1 <0>        -0.0431
     34 F1          4.8387   -4.1930   10.8920 F         1 <0>        -0.1241
     35 H4         -0.9598    1.9047    0.0260 H         1 <0>         0.1327
     36 H5          1.1513    3.1677    0.0077 H         1 <0>         0.1287
     37 H6          3.3383   -0.5164   -0.0328 H         1 <0>         0.1337
     38 H7         -0.9269   -0.5549    0.0079 H         1 <0>         0.1317
     39 H8          3.3526    3.6020   -1.6347 H         1 <0>         0.1815
     40 H9          6.9969    0.3459    1.8906 H         1 <0>         0.1533
     41 H10         2.8041    0.8626    2.6654 H         1 <0>         0.1753
     42 H11         5.1056   -2.2264    5.2856 H         1 <0>         0.3967
     43 H12         7.3564   -4.3128    3.9731 H         1 <0>         0.0616
     44 H13         7.7630   -5.1650    5.4820 H         1 <0>         0.0605
     45 H14         5.7521   -6.0018    4.5014 H         1 <0>         0.3836
     46 H15         4.3486   -3.5834    6.4573 H         1 <0>         0.1395
     47 H16         3.4310   -4.0191    8.6996 H         1 <0>         0.1478
     48 H17         8.2825   -3.4083    8.0952 H         1 <0>         0.1466
@<TRIPOS>BOND
     1    1    6 ar
     2    1    2 ar
     3    1   35 1
     4    2    3 ar
     5    2   36 1
     6    3    4 ar
     7    3    8 1
     8    4    5 ar
     9    4   37 1
    10    5    6 ar
    11    5    7 1
    12    6   38 1
    13    8   13 1
    14    8    9 2
    15    9   39 1
    16    9   10 1
    17   10   11 1
    18   10   12 1
    19   11   13 2
    20   13   14 1
    21   14   19 2
    22   14   15 1
    23   15   16 2
    24   15   40 1
    25   16   17 1
    26   16   20 1
    27   17   18 1
    28   17   19 1
    29   19   41 1
    30   20   21 2
    31   20   22 am
    32   22   23 1
    33   22   42 1
    34   23   24 1
    35   23   25 1
    36   23   27 1
    37   25   26 1
    38   25   43 1
    39   25   44 1
    40   26   45 1
    41   27   32 ar
    42   27   28 ar
    43   28   29 ar
    44   28   46 1
    45   29   30 ar
    46   29   47 1
    47   30   31 ar
    48   30   34 1
    49   31   32 ar
    50   31   33 1
    51   32   48 1
@<TRIPOS>MOLECULE
ZINC03801072
   57    62     0     0     0
SMALL
USER_CHARGES
3-(aminomethylBLAHyl)-4-(1-methylindol-3-yl)-pyrrole-2,5-dione
@<TRIPOS>ATOM
      1 C1         -3.3259    7.1513   -1.4756 C.3       1 <0>         0.0723
      2 N1         -2.7966    6.0928   -0.6121 N.pl3     1 <0>        -0.4749
      3 C2         -1.9223    5.1286   -1.0105 C.2       1 <0>         0.1101
      4 C3         -1.6367    4.3057    0.0389 C.2       1 <0>        -0.1496
      5 C4         -2.4117    4.8068    1.1877 C.ar      1 <0>        -0.0736
      6 C5         -3.1136    5.9306    0.7206 C.ar      1 <0>         0.0952
      7 C6         -3.9408    6.6294    1.5934 C.ar      1 <0>        -0.1201
      8 C7         -4.0730    6.2101    2.8997 C.ar      1 <0>        -0.1007
      9 C8         -3.3765    5.1025    3.3605 C.ar      1 <0>        -0.1389
     10 C9         -2.5480    4.3999    2.5129 C.ar      1 <0>        -0.0798
     11 C10        -0.7356    3.1412    0.0251 C.2       1 <0>        -0.0074
     12 C11         0.6542    3.1601    0.0122 C.2       1 <0>        -0.0489
     13 C12         1.0829    1.7461    0.0011 C.2       1 <0>         0.5569
     14 O1          2.2328    1.3543   -0.0120 O.2       1 <0>        -0.4501
     15 N2         -0.0111    0.9658    0.0074 N.am      1 <0>        -0.6904
     16 C13        -1.1258    1.7161    0.0162 C.2       1 <0>         0.5503
     17 O2         -2.2647    1.2931    0.0185 O.2       1 <0>        -0.4368
     18 C14         1.5234    4.3487    0.0094 C.2       1 <0>        -0.1029
     19 C15         2.0341    5.0570   -1.1625 C.ar      1 <0>        -0.0809
     20 C16         1.8723    4.8452   -2.5318 C.ar      1 <0>        -0.0685
     21 C17         2.5154    5.7314   -3.3791 C.ar      1 <0>        -0.1378
     22 C18         3.2819    6.7783   -2.8957 C.ar      1 <0>        -0.0920
     23 C19         3.4473    7.0091   -1.5406 C.ar      1 <0>        -0.1299
     24 C20         2.8142    6.1277   -0.6658 C.ar      1 <0>         0.1065
     25 N3          2.7859    6.0659    0.7003 N.pl3     1 <0>        -0.4762
     26 C21         2.0165    5.0037    1.1008 C.2       1 <0>         0.0993
     27 C22         1.7661    4.6329    2.5442 C.3       1 <0>        -0.0498
     28 C23         2.7987    5.3589    3.4147 C.3       1 <0>        -0.1226
     29 H1          3.7825    4.9161    3.2592 H         1 <0>         0.1052
     30 C24         2.8343    6.8379    3.0190 C.3       1 <0>        -0.1422
     31 C25         3.4640    6.9813    1.6311 C.3       1 <0>         0.1126
     32 C26         2.4057    5.2326    4.8879 C.3       1 <0>        -0.0001
     33 H2         -4.2445    6.8072   -1.9508 H         1 <0>         0.0775
     34 H3         -3.5365    8.0374   -0.8768 H         1 <0>         0.0850
     35 H4         -2.5905    7.3969   -2.2418 H         1 <0>         0.0880
     36 H5         -1.5164    5.0301   -2.0064 H         1 <0>         0.1742
     37 H6         -4.4891    7.4919    1.2444 H         1 <0>         0.1218
     38 H7         -4.7194    6.7536    3.5730 H         1 <0>         0.1276
     39 H8         -3.4845    4.7892    4.3884 H         1 <0>         0.1235
     40 H9         -2.0071    3.5376    2.8741 H         1 <0>         0.1166
     41 H10         0.0021   -0.0041    0.0020 H         1 <0>         0.4311
     42 H11         1.2751    4.0297   -2.9123 H         1 <0>         0.1298
     43 H12         2.4160    5.6028   -4.4468 H         1 <0>         0.1249
     44 H13         3.7619    7.4416   -3.5999 H         1 <0>         0.1259
     45 H14         4.0500    7.8285   -1.1775 H         1 <0>         0.1275
     46 H15         0.7610    4.9401    2.8333 H         1 <0>         0.1021
     47 H16         1.8712    3.5553    2.6702 H         1 <0>         0.1005
     48 H17         1.8187    7.2331    2.9995 H         1 <0>         0.0956
     49 H18         3.4264    7.3941    3.7456 H         1 <0>         0.0809
     50 H19         3.3484    8.0075    1.2824 H         1 <0>         0.0966
     51 H20         4.5233    6.7296    1.6834 H         1 <0>         0.0844
     52 H21         1.4654    5.7567    5.0594 H         1 <0>         0.1414
     53 H22         2.2864    4.1796    5.1432 H         1 <0>         0.1406
     54 H23         3.6306    6.7829    5.4663 H         1 <0>         0.4337
     55 H24         3.2198    5.7530    6.7058 H         1 <0>         0.4433
     56 N4          3.4755    5.8090    5.7213 N.4       1 <0>        -0.6481
     57 H25         4.3429    5.2808    5.5699 H         1 <0>         0.4410
@<TRIPOS>BOND
     1    1    2 1
     2    1   33 1
     3    1   34 1
     4    1   35 1
     5    2    6 1
     6    2    3 1
     7    3    4 2
     8    3   36 1
     9    4    5 1
    10    4   11 1
    11    5   10 ar
    12    5    6 ar
    13    6    7 ar
    14    7    8 ar
    15    7   37 1
    16    8    9 ar
    17    8   38 1
    18    9   10 ar
    19    9   39 1
    20   10   40 1
    21   11   16 1
    22   11   12 2
    23   12   13 1
    24   12   18 1
    25   13   14 2
    26   13   15 am
    27   15   16 am
    28   15   41 1
    29   16   17 2
    30   18   26 2
    31   18   19 1
    32   19   24 ar
    33   19   20 ar
    34   20   21 ar
    35   20   42 1
    36   21   22 ar
    37   21   43 1
    38   22   23 ar
    39   22   44 1
    40   23   24 ar
    41   23   45 1
    42   24   25 1
    43   25   31 1
    44   25   26 1
    45   26   27 1
    46   27   28 1
    47   27   46 1
    48   27   47 1
    49   28   29 1
    50   28   30 1
    51   28   32 1
    52   30   31 1
    53   30   48 1
    54   30   49 1
    55   31   50 1
    56   31   51 1
    57   32   52 1
    58   32   53 1
    59   32   56 1
    60   54   56 1
    61   55   56 1
    62   56   57 1
@<TRIPOS>MOLECULE
ZINC03871742
   57    62     0     0     0
SMALL
USER_CHARGES
3-(aminomethylBLAHyl)-4-(1-methylindol-3-yl)-pyrrole-2,5-dione
@<TRIPOS>ATOM
      1 C1         -1.1887   -0.8574    0.0084 C.3       1 <0>         0.0721
      2 N1          0.0021   -0.0041    0.0020 N.pl3     1 <0>        -0.4749
      3 C2         -0.0164    1.3569    0.0095 C.2       1 <0>         0.1103
      4 C3          1.2614    1.8336   -0.0001 C.2       1 <0>        -0.1482
      5 C4          2.1479    0.6566   -0.0149 C.ar      1 <0>        -0.0735
      6 C5          1.3021   -0.4652   -0.0129 C.ar      1 <0>         0.0954
      7 C6          1.8593   -1.7394   -0.0243 C.ar      1 <0>        -0.1198
      8 C7          3.2291   -1.8910   -0.0389 C.ar      1 <0>        -0.1018
      9 C8          4.0630   -0.7824   -0.0409 C.ar      1 <0>        -0.1402
     10 C9          3.5305    0.4884   -0.0290 C.ar      1 <0>        -0.0800
     11 C10         1.6741    3.2471    0.0035 C.2       1 <0>        -0.0109
     12 C11         1.6378    4.1254    1.0802 C.2       1 <0>        -0.0459
     13 C12         2.1552    5.4140    0.5751 C.2       1 <0>         0.5561
     14 O1          2.2787    6.4322    1.2261 O.2       1 <0>        -0.4479
     15 N2          2.4610    5.2735   -0.7259 N.am      1 <0>        -0.6903
     16 C13         2.2046    4.0205   -1.1382 C.2       1 <0>         0.5507
     17 O2          2.3795    3.5948   -2.2625 O.2       1 <0>        -0.4377
     18 C14         1.1793    3.8307    2.4481 C.2       1 <0>        -0.1038
     19 C15        -0.1788    3.9792    2.9672 C.ar      1 <0>        -0.0807
     20 C16        -1.3704    4.3967    2.3738 C.ar      1 <0>        -0.0687
     21 C17        -2.4967    4.4063    3.1788 C.ar      1 <0>        -0.1376
     22 C18        -2.4492    4.0151    4.5061 C.ar      1 <0>        -0.0921
     23 C19        -1.2776    3.5924    5.1106 C.ar      1 <0>        -0.1297
     24 C20        -0.1286    3.5737    4.3217 C.ar      1 <0>         0.1064
     25 N3          1.1618    3.2177    4.6031 N.pl3     1 <0>        -0.4761
     26 C21         1.9397    3.3702    3.4840 C.2       1 <0>         0.0999
     27 C22         3.4190    3.0664    3.4303 C.3       1 <0>        -0.0509
     28 C23         3.7816    2.2172    4.6545 C.3       1 <0>        -0.1214
     29 H1          3.3660    1.2160    4.5398 H         1 <0>         0.1054
     30 C24         3.1994    2.8749    5.9089 C.3       1 <0>        -0.1438
     31 C25         1.6745    2.7401    5.8965 C.3       1 <0>         0.1131
     32 C26         5.3036    2.1279    4.7828 C.3       1 <0>        -0.0001
     33 H2         -1.4937   -1.0632   -1.0177 H         1 <0>         0.0777
     34 H3         -0.9609   -1.7954    0.5147 H         1 <0>         0.0848
     35 H4         -1.9976   -0.3486    0.5328 H         1 <0>         0.0884
     36 H5         -0.9077    1.9668    0.0172 H         1 <0>         0.1746
     37 H6          1.2192   -2.6093   -0.0229 H         1 <0>         0.1218
     38 H7          3.6574   -2.8824   -0.0480 H         1 <0>         0.1272
     39 H8          5.1347   -0.9160   -0.0522 H         1 <0>         0.1230
     40 H9          4.1820    1.3498   -0.0303 H         1 <0>         0.1166
     41 H10         2.8172    5.9784   -1.2889 H         1 <0>         0.4313
     42 H11        -1.4112    4.7019    1.3387 H         1 <0>         0.1299
     43 H12        -3.4388    4.7276    2.7596 H         1 <0>         0.1249
     44 H13        -3.3573    4.0410    5.0902 H         1 <0>         0.1260
     45 H14        -1.2550    3.2902    6.1472 H         1 <0>         0.1276
     46 H15         3.6476    2.5137    2.5191 H         1 <0>         0.1042
     47 H16         3.9860    3.9972    3.4480 H         1 <0>         0.0990
     48 H17         3.6002    2.3840    6.7957 H         1 <0>         0.0806
     49 H18         3.4703    3.9306    5.9245 H         1 <0>         0.0964
     50 H19         1.3997    1.6944    6.0341 H         1 <0>         0.0833
     51 H20         1.2490    3.3381    6.7024 H         1 <0>         0.0974
     52 H21         5.7252    1.7492    3.8517 H         1 <0>         0.1439
     53 H22         5.7095    3.1182    4.9892 H         1 <0>         0.1380
     54 H23         5.2305    0.3102    5.7467 H         1 <0>         0.4383
     55 H24         6.6503    1.1419    5.9880 H         1 <0>         0.4433
     56 N4          5.6391    1.2303    5.9022 N.4       1 <0>        -0.6481
     57 H25         5.2619    1.6215    6.7733 H         1 <0>         0.4361
@<TRIPOS>BOND
     1    1    2 1
     2    1   33 1
     3    1   34 1
     4    1   35 1
     5    2    6 1
     6    2    3 1
     7    3    4 2
     8    3   36 1
     9    4    5 1
    10    4   11 1
    11    5   10 ar
    12    5    6 ar
    13    6    7 ar
    14    7    8 ar
    15    7   37 1
    16    8    9 ar
    17    8   38 1
    18    9   10 ar
    19    9   39 1
    20   10   40 1
    21   11   16 1
    22   11   12 2
    23   12   13 1
    24   12   18 1
    25   13   14 2
    26   13   15 am
    27   15   16 am
    28   15   41 1
    29   16   17 2
    30   18   26 2
    31   18   19 1
    32   19   24 ar
    33   19   20 ar
    34   20   21 ar
    35   20   42 1
    36   21   22 ar
    37   21   43 1
    38   22   23 ar
    39   22   44 1
    40   23   24 ar
    41   23   45 1
    42   24   25 1
    43   25   31 1
    44   25   26 1
    45   26   27 1
    46   27   28 1
    47   27   46 1
    48   27   47 1
    49   28   29 1
    50   28   30 1
    51   28   32 1
    52   30   31 1
    53   30   48 1
    54   30   49 1
    55   31   50 1
    56   31   51 1
    57   32   52 1
    58   32   53 1
    59   32   56 1
    60   54   56 1
    61   55   56 1
    62   56   57 1
@<TRIPOS>MOLECULE
ZINC27646798
   37    40     0     0     0
SMALL
USER_CHARGES
3-(4-morpholinothieno[3,2-d]pyrimidin-2-yl)phenol
@<TRIPOS>ATOM
      1 C1         -1.2199    1.7485    0.0173 C.ar      1 <0>        -0.0892
      2 C2         -1.2454    3.1288    0.0298 C.ar      1 <0>        -0.1126
      3 C3         -0.0514    3.8476    0.0223 C.ar      1 <0>        -0.0081
      4 C4          1.1652    3.1691    0.0075 C.ar      1 <0>        -0.1131
      5 C5          1.1814    1.7842    0.0004 C.ar      1 <0>         0.1468
      6 C6         -0.0126    1.0758    0.0080 C.ar      1 <0>        -0.1927
      7 O1          2.3662    1.1187   -0.0145 O.3       1 <0>        -0.5085
      8 C7         -0.0760    5.3307    0.0295 C.ar      1 <0>         0.3925
      9 N1          1.0716    5.9741    0.0216 N.ar      1 <0>        -0.5030
     10 C8          1.1211    7.3278    0.0275 C.ar      1 <0>         0.1897
     11 C9          2.2454    8.1729    0.0212 C.2       1 <0>        -0.1560
     12 C10         2.0874    9.5099    0.0298 C.2       1 <0>        -0.1082
     13 S1          0.3128    9.7024    0.0473 S.3       1 <0>         0.0987
     14 C11        -0.1289    7.9855    0.0425 C.ar      1 <0>        -0.2646
     15 C12        -1.3162    7.2724    0.0507 C.ar      1 <0>         0.4224
     16 N2         -1.2564    5.9419    0.0383 N.ar      1 <0>        -0.5299
     17 N3         -2.5370    7.9274    0.0650 N.pl3     1 <0>        -0.4689
     18 C13        -2.6310    8.8416    1.2125 C.3       1 <0>         0.0169
     19 C14        -3.9673    9.5866    1.1565 C.3       1 <0>         0.0634
     20 O2         -5.0362    8.6368    1.1320 O.3       1 <0>        -0.3790
     21 C15        -4.9762    7.7309    0.0269 C.3       1 <0>         0.0577
     22 C16        -3.6502    6.9671    0.0715 C.3       1 <0>         0.0252
     23 H1         -2.1460    1.1927    0.0191 H         1 <0>         0.1309
     24 H2         -2.1904    3.6515    0.0409 H         1 <0>         0.1364
     25 H3          2.0932    3.7215    0.0012 H         1 <0>         0.1426
     26 H4          0.0021   -0.0041    0.0020 H         1 <0>         0.1300
     27 H5          2.3792    0.0188   -0.0201 H         1 <0>         0.4347
     28 H6          3.2383    7.7480    0.0097 H         1 <0>         0.1535
     29 H7          2.8474   10.2773    0.0272 H         1 <0>         0.2047
     30 H8         -2.5696    8.2646    2.1470 H         1 <0>         0.0647
     31 H9         -1.8036    9.5654    1.1735 H         1 <0>         0.0973
     32 H10        -4.0660   10.2298    2.0434 H         1 <0>         0.1117
     33 H11        -4.0039   10.2062    0.2484 H         1 <0>         0.0678
     34 H12        -5.8133    7.0201    0.0897 H         1 <0>         0.1102
     35 H13        -5.0447    8.2958   -0.9145 H         1 <0>         0.0643
     36 H14        -3.5732    6.3106   -0.8077 H         1 <0>         0.1032
     37 H15        -3.6053    6.3598    0.9876 H         1 <0>         0.0685
@<TRIPOS>BOND
     1    1    6 ar
     2    1    2 ar
     3    1   23 1
     4    2    3 ar
     5    2   24 1
     6    3    4 ar
     7    3    8 1
     8    4    5 ar
     9    4   25 1
    10    5    6 ar
    11    5    7 1
    12    6   26 1
    13    7   27 1
    14    8   16 ar
    15    8    9 ar
    16    9   10 ar
    17   10   14 ar
    18   10   11 1
    19   11   12 2
    20   11   28 1
    21   12   13 1
    22   12   29 1
    23   13   14 1
    24   14   15 ar
    25   15   16 ar
    26   15   17 1
    27   17   22 1
    28   17   18 1
    29   18   19 1
    30   18   30 1
    31   18   31 1
    32   19   20 1
    33   19   32 1
    34   19   33 1
    35   20   21 1
    36   21   22 1
    37   21   34 1
    38   21   35 1
    39   22   36 1
    40   22   37 1
@<TRIPOS>MOLECULE
ZINC13132888
   46    49     0     0     0
SMALL
USER_CHARGES

@<TRIPOS>ATOM
      1 C1         -0.4024    1.4640   -0.2596 C.3       1 <0>        -0.1435
      2 C2         -0.2022   -0.0486   -0.1459 C.3       1 <0>         0.1912
      3 C3          0.5317   -0.3694    1.1577 C.3       1 <0>        -0.1615
      4 C4         -1.5645   -0.7450   -0.1490 C.3       1 <0>        -0.1622
      5 N1          0.5913   -0.5229   -1.2824 N.pl3     1 <0>        -0.3634
      6 C5          0.9612   -1.8141   -1.5150 C.ar      1 <0>         0.3746
      7 C6          1.7077   -1.8088   -2.7096 C.ar      1 <0>        -0.3278
      8 C7          1.7573   -0.4719   -3.1602 C.2       1 <0>         0.1297
      9 N2          1.0952    0.2715   -2.3201 N.2       1 <0>        -0.2391
     10 C8          2.4532    0.0125   -4.4060 C.3       1 <0>        -0.0064
     11 C9          1.4787    0.0187   -5.5556 C.ar      1 <0>        -0.0714
     12 C10         1.4067   -1.0488   -6.3972 C.ar      1 <0>        -0.1084
     13 C11         0.5121   -1.0612   -7.4653 C.ar      1 <0>        -0.1155
     14 C12        -0.3156   -0.0059   -7.6985 C.ar      1 <0>        -0.1014
     15 C13        -0.2700    1.1138   -6.8511 C.ar      1 <0>        -0.0506
     16 C14         0.6357    1.1238   -5.7608 C.ar      1 <0>        -0.0393
     17 C15         0.6771    2.2415   -4.9097 C.ar      1 <0>        -0.0979
     18 C16        -0.1547    3.2939   -5.1394 C.ar      1 <0>        -0.1148
     19 C17        -1.0498    3.2813   -6.2077 C.ar      1 <0>        -0.1134
     20 C18        -1.1085    2.2222   -7.0604 C.ar      1 <0>        -0.1091
     21 C19         2.2169   -3.0332   -3.1834 C.ar      1 <0>         0.5199
     22 N3          1.9692   -4.1339   -2.4817 N.ar      1 <0>        -0.6092
     23 C20         1.2632   -4.0896   -1.3658 C.ar      1 <0>         0.3850
     24 N4          0.7670   -2.9710   -0.8841 N.ar      1 <0>        -0.5722
     25 N5          2.9554   -3.0885   -4.3491 N.pl3     1 <0>        -0.8266
     26 H1          0.5681    1.9601   -0.2574 H         1 <0>         0.0677
     27 H2         -0.9252    1.6925   -1.1883 H         1 <0>         0.0677
     28 H3         -0.9928    1.8169    0.5860 H         1 <0>         0.0748
     29 H4         -0.0587   -0.0165    2.0033 H         1 <0>         0.0794
     30 H5          0.6743   -1.4470    1.2387 H         1 <0>         0.0761
     31 H6          1.5022    0.1268    1.1599 H         1 <0>         0.0599
     32 H7         -2.0873   -0.5165   -1.0777 H         1 <0>         0.0592
     33 H8         -1.4218   -1.8226   -0.0681 H         1 <0>         0.0763
     34 H9         -2.1548   -0.3922    0.6966 H         1 <0>         0.0794
     35 H10         2.8290    1.0226   -4.2429 H         1 <0>         0.1038
     36 H11         3.2855   -0.6517   -4.6388 H         1 <0>         0.0893
     37 H12         2.0530   -1.8987   -6.2348 H         1 <0>         0.1192
     38 H13         0.4751   -1.9207   -8.1182 H         1 <0>         0.1252
     39 H14        -1.0035   -0.0292   -8.5308 H         1 <0>         0.1280
     40 H15         1.3650    2.2650   -4.0775 H         1 <0>         0.1310
     41 H16        -0.1208    4.1515   -4.4839 H         1 <0>         0.1230
     42 H17        -1.6992    4.1294   -6.3675 H         1 <0>         0.1230
     43 H18        -1.8067    2.2268   -7.8844 H         1 <0>         0.1269
     44 H19         1.0860   -5.0091   -0.8278 H         1 <0>         0.2029
     45 H20         3.2072   -2.2692   -4.8032 H         1 <0>         0.4085
     46 H21         3.2222   -3.9468   -4.7139 H         1 <0>         0.4119
@<TRIPOS>BOND
     1    1    2 1
     2    1   26 1
     3    1   27 1
     4    1   28 1
     5    2    3 1
     6    2    4 1
     7    2    5 1
     8    3   29 1
     9    3   30 1
    10    3   31 1
    11    4   32 1
    12    4   33 1
    13    4   34 1
    14    5    9 1
    15    5    6 1
    16    6   24 ar
    17    6    7 ar
    18    7    8 1
    19    7   21 ar
    20    8    9 2
    21    8   10 1
    22   10   11 1
    23   10   35 1
    24   10   36 1
    25   11   16 ar
    26   11   12 ar
    27   12   13 ar
    28   12   37 1
    29   13   14 ar
    30   13   38 1
    31   14   15 ar
    32   14   39 1
    33   15   20 ar
    34   15   16 ar
    35   16   17 ar
    36   17   18 ar
    37   17   40 1
    38   18   19 ar
    39   18   41 1
    40   19   20 ar
    41   19   42 1
    42   20   43 1
    43   21   22 ar
    44   21   25 1
    45   22   23 ar
    46   23   24 ar
    47   23   44 1
    48   25   45 1
    49   25   46 1
@<TRIPOS>MOLECULE
ZINC33901069
   63    70     0     0     0
SMALL
USER_CHARGES

@<TRIPOS>ATOM
      1 C1         -0.1295    1.5952   -0.2973 C.3       1 <0>        -0.1689
      2 C2         -0.0862    0.0696   -0.1900 C.3       1 <0>         0.3341
      3 C3          0.5692   -0.4501   -1.4637 C.3       1 <0>         0.0405
      4 H1          1.4796    0.1159   -1.6612 H         1 <0>         0.1376
      5 C4          0.9167   -1.9328   -1.2889 C.3       1 <0>        -0.0062
      6 H2          1.3963   -2.3075   -2.1932 H         1 <0>         0.1561
      7 C5          1.8785   -2.0596   -0.1021 C.3       1 <0>        -0.1826
      8 C6          1.2061   -1.5198    1.1541 C.3       1 <0>         0.2993
      9 H3          1.9797   -1.4243    1.9161 H         1 <0>         0.1558
     10 O1          0.6555   -0.2442    0.9666 O.3       1 <0>        -0.3230
     11 N1          0.2189   -2.4746    1.6600 N.pl3     1 <0>        -0.5360
     12 C7          0.4705   -3.5508    2.4739 C.ar      1 <0>         0.1461
     13 C8          1.6649   -4.0152    3.0240 C.ar      1 <0>        -0.1504
     14 C9          1.5948   -5.1456    3.8201 C.ar      1 <0>        -0.0584
     15 C10         0.4006   -5.7997    4.0696 C.ar      1 <0>        -0.1441
     16 C11        -0.7984   -5.3597    3.5358 C.ar      1 <0>        -0.0290
     17 C12        -0.7487   -4.2198    2.7307 C.ar      1 <0>        -0.1115
     18 C13        -1.7893   -3.4830    2.0197 C.ar      1 <0>         0.0213
     19 C14        -1.1442   -2.4197    1.3841 C.ar      1 <0>         0.0473
     20 C15        -1.8806   -1.5095    0.6175 C.ar      1 <0>         0.0846
     21 N2         -1.4718   -0.3951   -0.1095 N.pl3     1 <0>        -0.5182
     22 C16        -2.5611    0.1913   -0.7090 C.ar      1 <0>         0.1628
     23 C17        -2.6521    1.3277   -1.5118 C.ar      1 <0>        -0.1327
     24 C18        -3.9109    1.6745   -1.9733 C.ar      1 <0>        -0.0716
     25 C19        -5.0393    0.9368   -1.6616 C.ar      1 <0>        -0.1386
     26 C20        -4.9745   -0.1955   -0.8662 C.ar      1 <0>        -0.0405
     27 C21        -3.7147   -0.5596   -0.3919 C.ar      1 <0>        -0.1042
     28 C22        -3.2693   -1.6660    0.4845 C.ar      1 <0>        -0.0171
     29 C23        -3.9084   -2.7313    1.1102 C.ar      1 <0>        -0.0268
     30 C24        -3.1873   -3.6421    1.8754 C.ar      1 <0>        -0.1120
     31 C25        -4.1221   -4.6480    2.4030 C.2       1 <0>         0.5712
     32 O2         -3.8062   -5.5851    3.1110 O.2       1 <0>        -0.4999
     33 N3         -5.3744   -4.3851    1.9926 N.am      1 <0>        -0.7338
     34 C26        -5.3495   -3.1771    1.1601 C.3       1 <0>         0.3531
     35 H4         -5.7060   -3.4063    0.1559 H         1 <0>         0.1073
     36 O3         -6.1592   -2.1576    1.7492 O.3       1 <0>        -0.5461
     37 N4         -0.3067   -2.7008   -1.0216 N.4       1 <0>        -0.5258
     38 C27         0.0145   -4.1336   -0.9773 C.3       1 <0>        -0.0504
     39 O4         -0.3340   -0.2979   -2.5607 O.3       1 <0>        -0.3612
     40 C28         0.3101   -0.0933   -3.8198 C.3       1 <0>         0.0162
     41 H5          0.8261    2.0094    0.0240 H         1 <0>         0.0985
     42 H6         -0.3202    1.8814   -1.3317 H         1 <0>         0.1039
     43 H7         -0.9255    1.9818    0.3392 H         1 <0>         0.0924
     44 H8          2.1370   -3.1081    0.0458 H         1 <0>         0.1235
     45 H9          2.7835   -1.4869   -0.3048 H         1 <0>         0.1460
     46 H10         2.6036   -3.5149    2.8368 H         1 <0>         0.1371
     47 H11         2.5026   -5.5304    4.2610 H         1 <0>         0.1364
     48 H12         0.4045   -6.6780    4.6980 H         1 <0>         0.1356
     49 H13        -1.7278   -5.8736    3.7323 H         1 <0>         0.1596
     50 H14        -1.7792    1.9122   -1.7624 H         1 <0>         0.1441
     51 H15        -4.0153    2.5500   -2.5970 H         1 <0>         0.1337
     52 H16        -5.9967    1.2527   -2.0488 H         1 <0>         0.1330
     53 H17        -5.8575   -0.7687   -0.6249 H         1 <0>         0.1424
     54 H18        -6.1628   -4.9065    2.2103 H         1 <0>         0.4317
     55 H19        -7.0970   -2.3857    1.8091 H         1 <0>         0.3958
     56 H20        -0.6958   -2.4158   -0.1353 H         1 <0>         0.4181
     57 H21        -0.8932   -4.7035   -0.7789 H         1 <0>         0.1257
     58 H22         0.4349   -4.4415   -1.9347 H         1 <0>         0.1262
     59 H23         0.7403   -4.3189   -0.1854 H         1 <0>         0.1194
     60 H24         0.9482   -0.9479   -4.0446 H         1 <0>         0.0513
     61 H25        -0.4433    0.0130   -4.6003 H         1 <0>         0.1100
     62 H26         0.9168    0.8112   -3.7748 H         1 <0>         0.0633
     63 H27        -0.9785   -2.5293   -1.7546 H         1 <0>         0.4278
@<TRIPOS>BOND
     1    1    2 1
     2    1   41 1
     3    1   42 1
     4    1   43 1
     5    2   10 1
     6    2   21 1
     7    2    3 1
     8    3    4 1
     9    3    5 1
    10    3   39 1
    11    5    6 1
    12    5    7 1
    13    5   37 1
    14    7    8 1
    15    7   44 1
    16    7   45 1
    17    8    9 1
    18    8   10 1
    19    8   11 1
    20   11   19 1
    21   11   12 1
    22   12   17 ar
    23   12   13 ar
    24   13   14 ar
    25   13   46 1
    26   14   15 ar
    27   14   47 1
    28   15   16 ar
    29   15   48 1
    30   16   17 ar
    31   16   49 1
    32   17   18 1
    33   18   30 ar
    34   18   19 ar
    35   19   20 ar
    36   20   28 ar
    37   20   21 1
    38   21   22 1
    39   22   27 ar
    40   22   23 ar
    41   23   24 ar
    42   23   50 1
    43   24   25 ar
    44   24   51 1
    45   25   26 ar
    46   25   52 1
    47   26   27 ar
    48   26   53 1
    49   27   28 1
    50   28   29 ar
    51   29   34 1
    52   29   30 ar
    53   30   31 1
    54   31   32 2
    55   31   33 am
    56   33   34 1
    57   33   54 1
    58   34   35 1
    59   34   36 1
    60   36   55 1
    61   37   38 1
    62   37   56 1
    63   37   63 1
    64   38   57 1
    65   38   58 1
    66   38   59 1
    67   39   40 1
    68   40   60 1
    69   40   61 1
    70   40   62 1
@<TRIPOS>MOLECULE
ZINC23247639
   69    72     0     0     0
SMALL
USER_CHARGES
1-[4-[(4-ethylpiperazin-1-yl)methyl]-3-(trifluoromethyl)phenyl]-3-[4-(6-methylaminopyrimidin-4-yl)oxyphenyl]urea
@<TRIPOS>ATOM
      1 C1          8.9417    3.3719    8.2172 C.3       1 <0>        -0.1901
      2 C2         10.1498    2.9102    7.3997 C.3       1 <0>        -0.0070
      3 N1          9.9972    3.3533    6.0075 N.4       1 <0>        -0.4011
      4 C3         11.2367    3.1387    5.2477 C.3       1 <0>         0.0016
      5 C4         11.0629    3.6845    3.8284 C.3       1 <0>         0.0271
      6 N2          9.9288    3.0094    3.1822 N.3       1 <0>        -0.5300
      7 C5          8.6893    3.2240    3.9420 C.3       1 <0>         0.0232
      8 C6          8.8631    2.6781    5.3612 C.3       1 <0>        -0.0016
      9 C7          9.7762    3.4524    1.7899 C.3       1 <0>         0.0786
     10 C8          8.7879    2.5601    1.0842 C.ar      1 <0>        -0.0666
     11 C9          7.5022    3.0092    0.8434 C.ar      1 <0>        -0.0932
     12 C10         6.5958    2.1959    0.1923 C.ar      1 <0>        -0.0888
     13 C11         6.9731    0.9214   -0.2106 C.ar      1 <0>         0.1880
     14 C12         8.2646    0.4735    0.0326 C.ar      1 <0>        -0.1043
     15 C13         9.1683    1.2940    0.6793 C.ar      1 <0>        -0.1369
     16 C14        10.5702    0.8086    0.9441 C.3       1 <0>         0.5111
     17 F1         10.7250   -0.4786    0.4184 F         1 <0>        -0.1776
     18 F2         11.4860    1.6739    0.3362 F         1 <0>        -0.1774
     19 F3         10.8008    0.7797    2.3237 F         1 <0>        -0.1628
     20 N3          6.0552    0.0926   -0.8655 N.am      1 <0>        -0.6979
     21 C15         4.7513    0.1311   -0.5266 C.2       1 <0>         0.7117
     22 O1          4.3858    0.8194    0.4067 O.2       1 <0>        -0.5623
     23 N4          3.8526   -0.5934   -1.2222 N.am      1 <0>        -0.6900
     24 C16         2.4863   -0.4790   -0.9335 C.ar      1 <0>         0.1635
     25 C17         1.5516   -0.5518   -1.9576 C.ar      1 <0>        -0.1265
     26 C18         0.2052   -0.4394   -1.6724 C.ar      1 <0>        -0.0923
     27 C19        -0.2137   -0.2543   -0.3628 C.ar      1 <0>         0.0841
     28 C20         0.7198   -0.1815    0.6609 C.ar      1 <0>        -0.0957
     29 C21         2.0665   -0.2932    0.3769 C.ar      1 <0>        -0.1058
     30 O2         -1.5393   -0.1385   -0.0833 O.3       1 <0>        -0.2424
     31 C22        -2.3129   -1.2454   -0.1983 C.ar      1 <0>         0.3836
     32 C23        -3.6894   -1.1637   -0.0277 C.ar      1 <0>        -0.3134
     33 C24        -4.4409   -2.3284   -0.1601 C.ar      1 <0>         0.4631
     34 N5         -3.8165   -3.4721   -0.4341 N.ar      1 <0>        -0.5936
     35 C25        -2.5082   -3.5081   -0.5840 C.ar      1 <0>         0.3760
     36 N6         -1.7644   -2.4263   -0.4707 N.ar      1 <0>        -0.6039
     37 N7         -5.8178   -2.2988   -0.0034 N.pl3     1 <0>        -0.7218
     38 C26        -6.4937   -1.0344    0.2979 C.3       1 <0>         0.0891
     39 H1          9.0560    3.0401    9.2597 H         1 <0>         0.1066
     40 H2          8.0243    2.9380    7.7928 H         1 <0>         0.0798
     41 H3          8.8763    4.4695    8.1868 H         1 <0>         0.0803
     42 H4         11.0672    3.3441    7.8241 H         1 <0>         0.1306
     43 H5         10.2153    1.8126    7.4301 H         1 <0>         0.1269
     44 H6         12.0665    3.6630    5.7442 H         1 <0>         0.1361
     45 H7         11.4577    2.0621    5.2031 H         1 <0>         0.1357
     46 H8         10.8699    4.7665    3.8728 H         1 <0>         0.0625
     47 H9         11.9796    3.4990    3.2494 H         1 <0>         0.1239
     48 H10         8.4684    4.3007    3.9867 H         1 <0>         0.0621
     49 H11         7.8594    2.6998    3.4455 H         1 <0>         0.1239
     50 H12         9.0569    1.5962    5.3178 H         1 <0>         0.1351
     51 H13         7.9470    2.8635    5.9412 H         1 <0>         0.1359
     52 H14         9.4106    4.4897    1.7732 H         1 <0>         0.0663
     53 H15        10.7489    3.3982    1.2791 H         1 <0>         0.1073
     54 H16         7.2082    3.9988    1.1607 H         1 <0>         0.1358
     55 H17         5.5933    2.5489    0.0003 H         1 <0>         0.1466
     56 H18         8.5625   -0.5152   -0.2838 H         1 <0>         0.1447
     57 H19         6.3979   -0.5903   -1.6569 H         1 <0>         0.4387
     58 H20         4.1917   -1.2745   -2.0166 H         1 <0>         0.4355
     59 H21         1.8775   -0.6959   -2.9771 H         1 <0>         0.1334
     60 H22        -0.5220   -0.4960   -2.4689 H         1 <0>         0.1303
     61 H23         0.3932   -0.0371    1.6801 H         1 <0>         0.1327
     62 H24         2.7931   -0.2369    1.1740 H         1 <0>         0.1442
     63 H25        -4.1646   -0.2205    0.1982 H         1 <0>         0.1466
     64 H26        -2.0315   -4.4515   -0.8058 H         1 <0>         0.2000
     65 H27        -6.4030   -3.2246   -0.1053 H         1 <0>         0.4376
     66 H28        -7.5762   -1.2091    0.3856 H         1 <0>         0.0864
     67 H29        -6.3028   -0.3146   -0.5117 H         1 <0>         0.0603
     68 H30        -6.1096   -0.6302    1.2461 H         1 <0>         0.0599
     69 H31         9.7882    4.4332    6.0188 H         1 <0>         0.4364
@<TRIPOS>BOND
     1    1    2 1
     2    1   39 1
     3    1   40 1
     4    1   41 1
     5    2    3 1
     6    2   42 1
     7    2   43 1
     8    3    8 1
     9    3    4 1
    10    3   69 1
    11    4    5 1
    12    4   44 1
    13    4   45 1
    14    5    6 1
    15    5   46 1
    16    5   47 1
    17    6    7 1
    18    6    9 1
    19    7    8 1
    20    7   48 1
    21    7   49 1
    22    8   50 1
    23    8   51 1
    24    9   10 1
    25    9   52 1
    26    9   53 1
    27   10   15 ar
    28   10   11 ar
    29   11   12 ar
    30   11   54 1
    31   12   13 ar
    32   12   55 1
    33   13   14 ar
    34   13   20 1
    35   14   15 ar
    36   14   56 1
    37   15   16 1
    38   16   17 1
    39   16   18 1
    40   16   19 1
    41   20   21 am
    42   20   57 1
    43   21   22 2
    44   21   23 am
    45   23   24 1
    46   23   58 1
    47   24   29 ar
    48   24   25 ar
    49   25   26 ar
    50   25   59 1
    51   26   27 ar
    52   26   60 1
    53   27   28 ar
    54   27   30 1
    55   28   29 ar
    56   28   61 1
    57   29   62 1
    58   30   31 1
    59   31   36 ar
    60   31   32 ar
    61   32   33 ar
    62   32   63 1
    63   33   34 ar
    64   33   37 1
    65   34   35 ar
    66   35   36 ar
    67   35   64 1
    68   37   38 1
    69   37   65 1
    70   38   66 1
    71   38   67 1
    72   38   68 1
@<TRIPOS>MOLECULE
ZINC23247639
   69    72     0     0     0
SMALL
USER_CHARGES
1-[4-[(4-ethylpiperazin-1-yl)methyl]-3-(trifluoromethyl)phenyl]-3-[4-(6-methylaminopyrimidin-4-yl)oxyphenyl]urea
@<TRIPOS>ATOM
      1 C1          8.9417    3.3719    8.2172 C.3       1 <0>        -0.1569
      2 C2         10.1498    2.9102    7.3997 C.3       1 <0>         0.0486
      3 N1          9.9972    3.3533    6.0075 N.3       1 <0>        -0.5379
      4 C3         11.2367    3.1387    5.2477 C.3       1 <0>         0.0250
      5 C4         11.0629    3.6845    3.8284 C.3       1 <0>         0.0004
      6 N2          9.9288    3.0094    3.1822 N.4       1 <0>        -0.4202
      7 C5          8.6893    3.2240    3.9420 C.3       1 <0>        -0.0009
      8 C6          8.8631    2.6781    5.3612 C.3       1 <0>         0.0222
      9 C7          9.7762    3.4524    1.7899 C.3       1 <0>         0.0266
     10 C8          8.7879    2.5601    1.0842 C.ar      1 <0>        -0.1272
     11 C9          7.5022    3.0092    0.8434 C.ar      1 <0>        -0.0630
     12 C10         6.5958    2.1959    0.1923 C.ar      1 <0>        -0.0846
     13 C11         6.9731    0.9214   -0.2106 C.ar      1 <0>         0.2154
     14 C12         8.2646    0.4735    0.0326 C.ar      1 <0>        -0.0955
     15 C13         9.1683    1.2940    0.6793 C.ar      1 <0>        -0.1507
     16 C14        10.5702    0.8086    0.9441 C.3       1 <0>         0.5109
     17 F1         10.7250   -0.4786    0.4184 F         1 <0>        -0.1491
     18 F2         11.4860    1.6739    0.3362 F         1 <0>        -0.1584
     19 F3         10.8008    0.7797    2.3237 F         1 <0>        -0.1724
     20 N3          6.0552    0.0926   -0.8655 N.am      1 <0>        -0.6988
     21 C15         4.7513    0.1311   -0.5266 C.2       1 <0>         0.7114
     22 O1          4.3858    0.8194    0.4067 O.2       1 <0>        -0.5584
     23 N4          3.8526   -0.5934   -1.2222 N.am      1 <0>        -0.6858
     24 C16         2.4863   -0.4790   -0.9335 C.ar      1 <0>         0.1577
     25 C17         1.5516   -0.5518   -1.9576 C.ar      1 <0>        -0.1240
     26 C18         0.2052   -0.4394   -1.6724 C.ar      1 <0>        -0.0926
     27 C19        -0.2137   -0.2543   -0.3628 C.ar      1 <0>         0.0883
     28 C20         0.7198   -0.1815    0.6609 C.ar      1 <0>        -0.0957
     29 C21         2.0665   -0.2932    0.3769 C.ar      1 <0>        -0.1046
     30 O2         -1.5393   -0.1385   -0.0833 O.3       1 <0>        -0.2426
     31 C22        -2.3129   -1.2454   -0.1983 C.ar      1 <0>         0.3832
     32 C23        -3.6894   -1.1637   -0.0277 C.ar      1 <0>        -0.3126
     33 C24        -4.4409   -2.3284   -0.1601 C.ar      1 <0>         0.4635
     34 N5         -3.8165   -3.4721   -0.4341 N.ar      1 <0>        -0.5931
     35 C25        -2.5082   -3.5081   -0.5840 C.ar      1 <0>         0.3762
     36 N6         -1.7644   -2.4263   -0.4707 N.ar      1 <0>        -0.6049
     37 N7         -5.8178   -2.2988   -0.0034 N.pl3     1 <0>        -0.7212
     38 C26        -6.4937   -1.0344    0.2979 C.3       1 <0>         0.0887
     39 H1          9.0560    3.0401    9.2597 H         1 <0>         0.0714
     40 H2          8.0243    2.9380    7.7928 H         1 <0>         0.0562
     41 H3          8.8763    4.4695    8.1868 H         1 <0>         0.0696
     42 H4         11.0672    3.3441    7.8241 H         1 <0>         0.0895
     43 H5         10.2153    1.8126    7.4301 H         1 <0>         0.0455
     44 H6         12.0665    3.6630    5.7442 H         1 <0>         0.1253
     45 H7         11.4577    2.0621    5.2031 H         1 <0>         0.0582
     46 H8         10.8699    4.7665    3.8728 H         1 <0>         0.1369
     47 H9         11.9796    3.4990    3.2494 H         1 <0>         0.1329
     48 H10         8.4684    4.3007    3.9867 H         1 <0>         0.1355
     49 H11         7.8594    2.6998    3.4455 H         1 <0>         0.1312
     50 H12         9.0569    1.5962    5.3178 H         1 <0>         0.0572
     51 H13         7.9470    2.8635    5.9412 H         1 <0>         0.1266
     52 H14         9.4106    4.4897    1.7732 H         1 <0>         0.1472
     53 H15        10.7489    3.3982    1.2791 H         1 <0>         0.1420
     54 H16         7.2082    3.9988    1.1607 H         1 <0>         0.1512
     55 H17         5.5933    2.5489    0.0003 H         1 <0>         0.1583
     56 H18         8.5625   -0.5152   -0.2838 H         1 <0>         0.1556
     57 H19         6.3979   -0.5903   -1.6569 H         1 <0>         0.4440
     58 H20         4.1917   -1.2745   -2.0166 H         1 <0>         0.4371
     59 H21         1.8775   -0.6959   -2.9771 H         1 <0>         0.1338
     60 H22        -0.5220   -0.4960   -2.4689 H         1 <0>         0.1313
     61 H23         0.3932   -0.0371    1.6801 H         1 <0>         0.1341
     62 H24         2.7931   -0.2369    1.1740 H         1 <0>         0.1440
     63 H25        -4.1646   -0.2205    0.1982 H         1 <0>         0.1470
     64 H26        -2.0315   -4.4515   -0.8058 H         1 <0>         0.2001
     65 H27        -6.4030   -3.2246   -0.1053 H         1 <0>         0.4380
     66 H28        -7.5762   -1.2091    0.3856 H         1 <0>         0.0868
     67 H29        -6.3028   -0.3146   -0.5117 H         1 <0>         0.0604
     68 H30        -6.1096   -0.6302    1.2461 H         1 <0>         0.0603
     69 H31        10.1379    1.9295    3.1711 H         1 <0>         0.4253
@<TRIPOS>BOND
     1    1    2 1
     2    1   39 1
     3    1   40 1
     4    1   41 1
     5    2    3 1
     6    2   42 1
     7    2   43 1
     8    3    8 1
     9    3    4 1
    10    4    5 1
    11    4   44 1
    12    4   45 1
    13    5    6 1
    14    5   46 1
    15    5   47 1
    16    6    7 1
    17    6    9 1
    18    6   69 1
    19    7    8 1
    20    7   48 1
    21    7   49 1
    22    8   50 1
    23    8   51 1
    24    9   10 1
    25    9   52 1
    26    9   53 1
    27   10   15 ar
    28   10   11 ar
    29   11   12 ar
    30   11   54 1
    31   12   13 ar
    32   12   55 1
    33   13   14 ar
    34   13   20 1
    35   14   15 ar
    36   14   56 1
    37   15   16 1
    38   16   17 1
    39   16   18 1
    40   16   19 1
    41   20   21 am
    42   20   57 1
    43   21   22 2
    44   21   23 am
    45   23   24 1
    46   23   58 1
    47   24   29 ar
    48   24   25 ar
    49   25   26 ar
    50   25   59 1
    51   26   27 ar
    52   26   60 1
    53   27   28 ar
    54   27   30 1
    55   28   29 ar
    56   28   61 1
    57   29   62 1
    58   30   31 1
    59   31   36 ar
    60   31   32 ar
    61   32   33 ar
    62   32   63 1
    63   33   34 ar
    64   33   37 1
    65   34   35 ar
    66   35   36 ar
    67   35   64 1
    68   37   38 1
    69   37   65 1
    70   38   66 1
    71   38   67 1
    72   38   68 1
@<TRIPOS>MOLECULE
ZINC23247639
   68    71     0     0     0
SMALL
USER_CHARGES
1-[4-[(4-ethylpiperazin-1-yl)methyl]-3-(trifluoromethyl)phenyl]-3-[4-(6-methylaminopyrimidin-4-yl)oxyphenyl]urea
@<TRIPOS>ATOM
      1 C1          8.9417    3.3719    8.2172 C.3       1 <0>        -0.1510
      2 C2         10.1498    2.9102    7.3997 C.3       1 <0>         0.0499
      3 N1          9.9972    3.3533    6.0075 N.3       1 <0>        -0.5402
      4 C3         11.2367    3.1387    5.2477 C.3       1 <0>         0.0569
      5 C4         11.0629    3.6845    3.8284 C.3       1 <0>         0.0590
      6 N2          9.9288    3.0094    3.1822 N.3       1 <0>        -0.5268
      7 C5          8.6893    3.2240    3.9420 C.3       1 <0>         0.0561
      8 C6          8.8631    2.6781    5.3612 C.3       1 <0>         0.0550
      9 C7          9.7762    3.4524    1.7899 C.3       1 <0>         0.0729
     10 C8          8.7879    2.5601    1.0842 C.ar      1 <0>        -0.0447
     11 C9          7.5022    3.0092    0.8434 C.ar      1 <0>        -0.0942
     12 C10         6.5958    2.1959    0.1923 C.ar      1 <0>        -0.0884
     13 C11         6.9731    0.9214   -0.2106 C.ar      1 <0>         0.1720
     14 C12         8.2646    0.4735    0.0326 C.ar      1 <0>        -0.1038
     15 C13         9.1683    1.2940    0.6793 C.ar      1 <0>        -0.1404
     16 C14        10.5702    0.8086    0.9441 C.3       1 <0>         0.5095
     17 F1         10.7250   -0.4786    0.4184 F         1 <0>        -0.1841
     18 F2         11.4860    1.6739    0.3362 F         1 <0>        -0.1795
     19 F3         10.8008    0.7797    2.3237 F         1 <0>        -0.1519
     20 N3          6.0552    0.0926   -0.8655 N.am      1 <0>        -0.6948
     21 C15         4.7513    0.1311   -0.5266 C.2       1 <0>         0.7096
     22 O1          4.3858    0.8194    0.4067 O.2       1 <0>        -0.5587
     23 N4          3.8526   -0.5934   -1.2222 N.am      1 <0>        -0.6930
     24 C16         2.4863   -0.4790   -0.9335 C.ar      1 <0>         0.1697
     25 C17         1.5516   -0.5518   -1.9576 C.ar      1 <0>        -0.1297
     26 C18         0.2052   -0.4394   -1.6724 C.ar      1 <0>        -0.0930
     27 C19        -0.2137   -0.2543   -0.3628 C.ar      1 <0>         0.0783
     28 C20         0.7198   -0.1815    0.6609 C.ar      1 <0>        -0.0936
     29 C21         2.0665   -0.2932    0.3769 C.ar      1 <0>        -0.1059
     30 O2         -1.5393   -0.1385   -0.0833 O.3       1 <0>        -0.2412
     31 C22        -2.3129   -1.2454   -0.1983 C.ar      1 <0>         0.3851
     32 C23        -3.6894   -1.1637   -0.0277 C.ar      1 <0>        -0.3141
     33 C24        -4.4409   -2.3284   -0.1601 C.ar      1 <0>         0.4620
     34 N5         -3.8165   -3.4721   -0.4341 N.ar      1 <0>        -0.5954
     35 C25        -2.5082   -3.5081   -0.5840 C.ar      1 <0>         0.3753
     36 N6         -1.7644   -2.4263   -0.4707 N.ar      1 <0>        -0.6017
     37 N7         -5.8178   -2.2988   -0.0034 N.pl3     1 <0>        -0.7231
     38 C26        -6.4937   -1.0344    0.2979 C.3       1 <0>         0.0898
     39 H1          9.0560    3.0401    9.2597 H         1 <0>         0.0595
     40 H2          8.0243    2.9380    7.7928 H         1 <0>         0.0547
     41 H3          8.8763    4.4695    8.1868 H         1 <0>         0.0631
     42 H4         11.0672    3.3441    7.8241 H         1 <0>         0.0746
     43 H5         10.2153    1.8126    7.4301 H         1 <0>         0.0335
     44 H6         12.0665    3.6630    5.7442 H         1 <0>         0.0800
     45 H7         11.4577    2.0621    5.2031 H         1 <0>         0.0441
     46 H8         10.8699    4.7665    3.8728 H         1 <0>         0.0445
     47 H9         11.9796    3.4990    3.2494 H         1 <0>         0.0809
     48 H10         8.4684    4.3007    3.9867 H         1 <0>         0.0435
     49 H11         7.8594    2.6998    3.4455 H         1 <0>         0.0808
     50 H12         9.0569    1.5962    5.3178 H         1 <0>         0.0425
     51 H13         7.9470    2.8635    5.9412 H         1 <0>         0.0819
     52 H14         9.4106    4.4897    1.7732 H         1 <0>         0.0550
     53 H15        10.7489    3.3982    1.2791 H         1 <0>         0.0962
     54 H16         7.2082    3.9988    1.1607 H         1 <0>         0.1355
     55 H17         5.5933    2.5489    0.0003 H         1 <0>         0.1427
     56 H18         8.5625   -0.5152   -0.2838 H         1 <0>         0.1409
     57 H19         6.3979   -0.5903   -1.6569 H         1 <0>         0.4343
     58 H20         4.1917   -1.2745   -2.0166 H         1 <0>         0.4332
     59 H21         1.8775   -0.6959   -2.9771 H         1 <0>         0.1323
     60 H22        -0.5220   -0.4960   -2.4689 H         1 <0>         0.1282
     61 H23         0.3932   -0.0371    1.6801 H         1 <0>         0.1328
     62 H24         2.7931   -0.2369    1.1740 H         1 <0>         0.1466
     63 H25        -4.1646   -0.2205    0.1982 H         1 <0>         0.1463
     64 H26        -2.0315   -4.4515   -0.8058 H         1 <0>         0.1996
     65 H27        -6.4030   -3.2246   -0.1053 H         1 <0>         0.4362
     66 H28        -7.5762   -1.2091    0.3856 H         1 <0>         0.0851
     67 H29        -6.3028   -0.3146   -0.5117 H         1 <0>         0.0598
     68 H30        -6.1096   -0.6302    1.2461 H         1 <0>         0.0599
@<TRIPOS>BOND
     1    1    2 1
     2    1   39 1
     3    1   40 1
     4    1   41 1
     5    2    3 1
     6    2   42 1
     7    2   43 1
     8    3    8 1
     9    3    4 1
    10    4    5 1
    11    4   44 1
    12    4   45 1
    13    5    6 1
    14    5   46 1
    15    5   47 1
    16    6    7 1
    17    6    9 1
    18    7    8 1
    19    7   48 1
    20    7   49 1
    21    8   50 1
    22    8   51 1
    23    9   10 1
    24    9   52 1
    25    9   53 1
    26   10   15 ar
    27   10   11 ar
    28   11   12 ar
    29   11   54 1
    30   12   13 ar
    31   12   55 1
    32   13   14 ar
    33   13   20 1
    34   14   15 ar
    35   14   56 1
    36   15   16 1
    37   16   17 1
    38   16   18 1
    39   16   19 1
    40   20   21 am
    41   20   57 1
    42   21   22 2
    43   21   23 am
    44   23   24 1
    45   23   58 1
    46   24   29 ar
    47   24   25 ar
    48   25   26 ar
    49   25   59 1
    50   26   27 ar
    51   26   60 1
    52   27   28 ar
    53   27   30 1
    54   28   29 ar
    55   28   61 1
    56   29   62 1
    57   30   31 1
    58   31   36 ar
    59   31   32 ar
    60   32   33 ar
    61   32   63 1
    62   33   34 ar
    63   33   37 1
    64   34   35 ar
    65   35   36 ar
    66   35   64 1
    67   37   38 1
    68   37   65 1
    69   38   66 1
    70   38   67 1
    71   38   68 1
@<TRIPOS>MOLECULE
ZINC03872446
   28    31     0     0     0
SMALL
USER_CHARGES

@<TRIPOS>ATOM
      1 C1         -0.0167    1.3830    0.0096 C.ar      1 <0>        -0.0604
      2 C2          1.1863    2.0770    0.0019 C.ar      1 <0>        -0.1234
      3 C3          2.3926    1.3452   -0.0012 C.ar      1 <0>        -0.0764
      4 C4          3.6485    2.1050    0.0027 C.ar      1 <0>        -0.0764
      5 C5          4.8466    1.3869   -0.1987 C.ar      1 <0>        -0.1232
      6 C6          6.0497    2.0805   -0.1986 C.ar      1 <0>        -0.0590
      7 C7          6.0379    3.4562   -0.0202 C.ar      1 <0>         0.1179
      8 C8          4.8480    4.1611    0.1666 C.ar      1 <0>         0.1231
      9 C9          3.6323    3.4858    0.1873 C.ar      1 <0>         0.1200
     10 O1          2.4525    4.1170    0.4119 O.3       1 <0>        -0.2602
     11 C10         1.3009    3.5438   -0.0161 C.2       1 <0>         0.5371
     12 O2          0.3774    4.2309   -0.4091 O.2       1 <0>        -0.4121
     13 O3          4.8772    5.5099    0.3289 O.3       1 <0>        -0.4645
     14 O4          7.2160    4.1351   -0.0270 O.3       1 <0>        -0.4711
     15 C11         4.7207   -0.0622   -0.4200 C.2       1 <0>         0.5387
     16 O5          5.6013   -0.6796   -0.9881 O.2       1 <0>        -0.4109
     17 O6          3.6072   -0.6979    0.0201 O.3       1 <0>        -0.2624
     18 C12         2.4165   -0.0480   -0.0047 C.ar      1 <0>         0.1193
     19 C13         1.1993   -0.7211   -0.0097 C.ar      1 <0>         0.1247
     20 C14         0.0021   -0.0041    0.0020 C.ar      1 <0>         0.1186
     21 O7         -1.1763   -0.6825    0.0061 O.3       1 <0>        -0.4765
     22 O8          1.1759   -2.0796   -0.0262 O.3       1 <0>        -0.4696
     23 H1         -0.9555    1.9167    0.0260 H         1 <0>         0.1661
     24 H2          6.9834    1.5552   -0.3355 H         1 <0>         0.1663
     25 H3          4.8118    6.0071   -0.4979 H         1 <0>         0.4009
     26 H4          7.4868    4.4442   -0.9023 H         1 <0>         0.4006
     27 H5         -1.5229   -0.8740   -0.8761 H         1 <0>         0.4061
     28 H6          1.1714   -2.4835    0.8524 H         1 <0>         0.4066
@<TRIPOS>BOND
     1    1   20 ar
     2    1    2 ar
     3    1   23 1
     4    2   11 1
     5    2    3 ar
     6    3   18 ar
     7    3    4 1
     8    4    9 ar
     9    4    5 ar
    10    5    6 ar
    11    5   15 1
    12    6    7 ar
    13    6   24 1
    14    7    8 ar
    15    7   14 1
    16    8    9 ar
    17    8   13 1
    18    9   10 1
    19   10   11 1
    20   11   12 2
    21   13   25 1
    22   14   26 1
    23   15   16 2
    24   15   17 1
    25   17   18 1
    26   18   19 ar
    27   19   20 ar
    28   19   22 1
    29   20   21 1
    30   21   27 1
    31   22   28 1
@<TRIPOS>MOLECULE
ZINC03812168
   64    69     0     0     0
SMALL
USER_CHARGES
dimethylaminomethylBLAHdione
@<TRIPOS>ATOM
      1 C1         -3.6591   -3.4932   -0.5238 C.3       1 <0>        -0.0551
      2 C2         -2.4926   -2.9550   -2.5762 C.3       1 <0>        -0.0445
      3 C3         -2.6578   -1.3072   -0.8098 C.3       1 <0>        -0.0358
      4 C4         -2.4673   -1.1012    0.6860 C.3       1 <0>         0.0654
      5 H1         -3.1645   -1.7751    1.2185 H         1 <0>         0.0947
      6 C5         -2.7230    0.3270    1.1457 C.3       1 <0>        -0.1345
      7 C6         -2.5225    1.3892    0.0793 C.3       1 <0>         0.1021
      8 N1         -1.1339    1.8402    0.0096 N.pl3     1 <0>        -0.4782
      9 C7         -0.0126    1.0747    0.0080 C.2       1 <0>         0.0759
     10 C8          1.1009    1.8532    0.0015 C.2       1 <0>        -0.1124
     11 C9          0.6150    3.2557   -0.0375 C.ar      1 <0>        -0.0829
     12 C10        -0.7846    3.1777   -0.0610 C.ar      1 <0>         0.0902
     13 C11        -1.5354    4.3459   -0.1576 C.ar      1 <0>        -0.1369
     14 C12        -0.9089    5.5725   -0.1941 C.ar      1 <0>        -0.0870
     15 C13         0.4756    5.6497   -0.1263 C.ar      1 <0>        -0.1387
     16 C14         1.2312    4.5008   -0.0317 C.ar      1 <0>        -0.0542
     17 C15         2.5293    1.4989    0.0288 C.2       1 <0>        -0.0575
     18 C16         3.2121    0.4058    0.5546 C.2       1 <0>        -0.0318
     19 C17         2.7061   -0.7744    1.2787 C.2       1 <0>        -0.1258
     20 C18         1.4206   -1.0272    1.6582 C.2       1 <0>         0.1002
     21 N2          1.3169   -2.2819    2.1682 N.pl3     1 <0>        -0.4767
     22 C19         2.5720   -2.8515    2.2654 C.ar      1 <0>         0.0850
     23 C20         3.5031   -1.9214    1.7684 C.ar      1 <0>        -0.0774
     24 C21         4.8560   -2.2219    1.8708 C.ar      1 <0>        -0.0704
     25 C22         5.2705   -3.4529    2.3343 C.ar      1 <0>        -0.1401
     26 C23         4.3436   -4.3996    2.7389 C.ar      1 <0>        -0.0882
     27 C24         3.0009   -4.0952    2.7142 C.ar      1 <0>        -0.1389
     28 C25         0.0751   -2.9597    2.5494 C.3       1 <0>         0.1083
     29 C26        -0.9464   -2.8428    1.4151 C.3       1 <0>         0.0261
     30 O1         -1.1329   -1.4683    1.0718 O.3       1 <0>        -0.3787
     31 C27         4.6407    0.6399    0.2297 C.2       1 <0>         0.5576
     32 O2          5.5801   -0.0982    0.4313 O.2       1 <0>        -0.4501
     33 N3          4.7726    1.8285   -0.3761 N.am      1 <0>        -0.6884
     34 C28         3.5684    2.3701   -0.5773 C.2       1 <0>         0.5496
     35 O3          3.3676    3.4021   -1.1909 O.2       1 <0>        -0.4507
     36 H2         -4.6064   -3.1194   -0.9125 H         1 <0>         0.1320
     37 H3         -3.5558   -4.5494   -0.7723 H         1 <0>         0.1292
     38 H4         -3.6371   -3.3709    0.5591 H         1 <0>         0.1176
     39 H5         -1.6226   -2.4415   -2.9853 H         1 <0>         0.1242
     40 H6         -2.4140   -4.0227   -2.7812 H         1 <0>         0.1266
     41 H7         -3.3976   -2.5618   -3.0392 H         1 <0>         0.1281
     42 H8         -3.6420   -0.9427   -1.1043 H         1 <0>         0.1512
     43 H9         -1.8892   -0.7576   -1.3530 H         1 <0>         0.1401
     44 H10        -3.7581    0.3948    1.5248 H         1 <0>         0.1133
     45 H11        -2.0693    0.5478    1.9998 H         1 <0>         0.1111
     46 H12        -2.8851    1.1097   -0.8943 H         1 <0>         0.0847
     47 H13        -3.1227    2.2722    0.3811 H         1 <0>         0.1001
     48 H14         0.0021   -0.0041    0.0020 H         1 <0>         0.1790
     49 H15        -2.6150    4.2937   -0.2077 H         1 <0>         0.1188
     50 H16        -1.4958    6.4773   -0.2780 H         1 <0>         0.1308
     51 H17         0.9608    6.6157   -0.1385 H         1 <0>         0.1284
     52 H18         2.3072    4.5814    0.0562 H         1 <0>         0.1320
     53 H19         0.6104   -0.3170    1.5917 H         1 <0>         0.1871
     54 H20         5.6126   -1.4944    1.6337 H         1 <0>         0.1514
     55 H21         6.3257   -3.6782    2.3787 H         1 <0>         0.1280
     56 H22         4.6724   -5.3687    3.0799 H         1 <0>         0.1300
     57 H23         2.2783   -4.8297    3.0422 H         1 <0>         0.1175
     58 H24         0.2774   -4.0129    2.7458 H         1 <0>         0.1169
     59 H25        -0.3264   -2.4933    3.4522 H         1 <0>         0.0971
     60 H26        -0.5876   -3.3893    0.5423 H         1 <0>         0.0664
     61 H27        -1.8985   -3.2659    1.7424 H         1 <0>         0.0864
     62 H28         5.6204    2.2247   -0.6318 H         1 <0>         0.4332
     63 N4         -2.5268   -2.7479   -1.1131 N.4       1 <0>        -0.4048
     64 H29        -1.6507   -3.0961   -0.7064 H         1 <0>         0.4232
@<TRIPOS>BOND
     1    1   36 1
     2    1   37 1
     3    1   38 1
     4    1   63 1
     5    2   39 1
     6    2   40 1
     7    2   41 1
     8    2   63 1
     9    3    4 1
    10    3   42 1
    11    3   43 1
    12    3   63 1
    13    4    5 1
    14    4   30 1
    15    4    6 1
    16    6    7 1
    17    6   44 1
    18    6   45 1
    19    7    8 1
    20    7   46 1
    21    7   47 1
    22    8   12 1
    23    8    9 1
    24    9   10 2
    25    9   48 1
    26   10   11 1
    27   10   17 1
    28   11   16 ar
    29   11   12 ar
    30   12   13 ar
    31   13   14 ar
    32   13   49 1
    33   14   15 ar
    34   14   50 1
    35   15   16 ar
    36   15   51 1
    37   16   52 1
    38   17   34 1
    39   17   18 2
    40   18   19 1
    41   18   31 1
    42   19   23 1
    43   19   20 2
    44   20   21 1
    45   20   53 1
    46   21   22 1
    47   21   28 1
    48   22   27 ar
    49   22   23 ar
    50   23   24 ar
    51   24   25 ar
    52   24   54 1
    53   25   26 ar
    54   25   55 1
    55   26   27 ar
    56   26   56 1
    57   27   57 1
    58   28   29 1
    59   28   58 1
    60   28   59 1
    61   29   30 1
    62   29   60 1
    63   29   61 1
    64   31   32 2
    65   31   33 am
    66   33   34 am
    67   33   62 1
    68   34   35 2
    69   63   64 1
