@<TRIPOS>MOLECULE
ZINC02043204
   48    50     0     0     0
SMALL
USER_CHARGES

@<TRIPOS>ATOM
      1 C1          2.5162    0.9496    1.4171 C.ar      1 <0>        -0.1558
      2 C2          1.8179    1.8754    0.7027 C.ar      1 <0>        -0.0089
      3 C3          0.8924    1.4496   -0.2625 C.ar      1 <0>        -0.1400
      4 C4          0.1441    2.3570   -1.0300 C.ar      1 <0>         0.1716
      5 N1         -0.7096    1.9109   -1.9214 N.ar      1 <0>        -0.4887
      6 C5         -0.9082    0.6184   -2.1416 C.ar      1 <0>         0.1175
      7 C6         -0.2327   -0.3410   -1.4505 C.ar      1 <0>        -0.1972
      8 C7          0.7007    0.0595   -0.4769 C.ar      1 <0>         0.0581
      9 C8          1.4373   -0.8645    0.2774 C.ar      1 <0>        -0.6935
     10 C9          2.3271   -0.4146    1.2059 C.ar      1 <0>         0.0350
     11 S1          1.2137   -2.5943    0.0269 S.o2      1 <0>         2.6977
     12 O1          2.1244   -3.2517    0.8974 O.2       1 <0>        -0.9448
     13 O2         -0.1865   -2.8329    0.0680 O.2       1 <0>        -0.9312
     14 N2          1.7064   -2.9332   -1.5173 N.pl3     1 <0>        -1.1162
     15 C10         3.1062   -2.7326   -1.9002 C.3       1 <0>         0.0916
     16 C11         3.3893   -3.4769   -3.2066 C.3       1 <0>        -0.0177
     17 N3          4.7929   -3.2757   -3.5905 N.4       1 <0>        -0.5066
     18 C12         5.0647   -3.9903   -4.8449 C.3       1 <0>         0.0395
     19 C13         6.5046   -3.7840   -5.2387 C.2       1 <0>        -0.2534
     20 C14         7.2882   -4.8305   -5.4586 C.2       1 <0>        -0.0124
     21 C15         8.7005   -4.6281   -5.8449 C.ar      1 <0>        -0.0865
     22 C16         9.2134   -3.3367   -5.9733 C.ar      1 <0>        -0.0932
     23 C17        10.5324   -3.1541   -6.3336 C.ar      1 <0>        -0.0930
     24 C18        11.3467   -4.2489   -6.5682 C.ar      1 <0>        -0.0711
     25 C19        10.8435   -5.5324   -6.4424 C.ar      1 <0>        -0.0912
     26 C20         9.5277   -5.7277   -6.0770 C.ar      1 <0>        -0.0822
     27 Br1        13.1533   -3.9899   -7.0630 Br        1 <0>        -0.0276
     28 H1          3.2315    1.2784    2.1565 H         1 <0>         0.1450
     29 H2          1.9750    2.9294    0.8779 H         1 <0>         0.1486
     30 H3          0.2706    3.4199   -0.8866 H         1 <0>         0.1731
     31 H4         -1.6264    0.3180   -2.8902 H         1 <0>         0.1633
     32 H5         -0.4102   -1.3883   -1.6456 H         1 <0>         0.1411
     33 H6          2.8949   -1.1263    1.7868 H         1 <0>         0.1512
     34 H7          1.0683   -3.2645   -2.1683 H         1 <0>         0.4272
     35 H8          3.2957   -1.6683   -2.0399 H         1 <0>         0.0890
     36 H9          3.7565   -3.1173   -1.1145 H         1 <0>         0.1050
     37 H10         3.1998   -4.5411   -3.0669 H         1 <0>         0.1445
     38 H11         2.7390   -3.0921   -3.9922 H         1 <0>         0.1424
     39 H12         4.9683   -2.2905   -3.7199 H         1 <0>         0.4308
     40 H13         4.8752   -5.0546   -4.7051 H         1 <0>         0.1348
     41 H14         4.4144   -3.6056   -5.6305 H         1 <0>         0.1403
     42 H15         6.8982   -2.7835   -5.3419 H         1 <0>         0.1396
     43 H16         6.8946   -5.8309   -5.3555 H         1 <0>         0.1348
     44 H17         8.5789   -2.4819   -5.7913 H         1 <0>         0.1337
     45 H18        10.9305   -2.1552   -6.4334 H         1 <0>         0.1407
     46 H19        11.4834   -6.3826   -6.6269 H         1 <0>         0.1428
     47 H20         9.1374   -6.7295   -5.9748 H         1 <0>         0.1397
     48 H21         5.3949   -3.6319   -2.8633 H         1 <0>         0.4327
@<TRIPOS>BOND
     1    1   10 ar
     2    1    2 ar
     3    1   28 1
     4    2    3 ar
     5    2   29 1
     6    3    8 ar
     7    3    4 ar
     8    4    5 ar
     9    4   30 1
    10    5    6 ar
    11    6    7 ar
    12    6   31 1
    13    7    8 ar
    14    7   32 1
    15    8    9 ar
    16    9   10 ar
    17    9   11 1
    18   10   33 1
    19   11   12 2
    20   11   13 2
    21   11   14 1
    22   14   15 1
    23   14   34 1
    24   15   16 1
    25   15   35 1
    26   15   36 1
    27   16   17 1
    28   16   37 1
    29   16   38 1
    30   17   18 1
    31   17   39 1
    32   17   48 1
    33   18   19 1
    34   18   40 1
    35   18   41 1
    36   19   20 2
    37   19   42 1
    38   20   21 1
    39   20   43 1
    40   21   26 ar
    41   21   22 ar
    42   22   23 ar
    43   22   44 1
    44   23   24 ar
    45   23   45 1
    46   24   25 ar
    47   24   27 1
    48   25   26 ar
    49   25   46 1
    50   26   47 1
@<TRIPOS>MOLECULE
ZINC00591953
   63    68     0     0     0
SMALL
USER_CHARGES

@<TRIPOS>ATOM
      1 C1         -0.0178    1.4608    0.0101 C.3       1 <0>         0.0726
      2 N1          0.0021   -0.0041    0.0020 N.pl3     1 <0>        -0.4749
      3 C2          0.0078   -0.7756   -1.1193 C.2       1 <0>         0.1102
      4 C3          0.0272   -2.0937   -0.7697 C.2       1 <0>        -0.1473
      5 C4          0.0340   -2.1368    0.7032 C.ar      1 <0>        -0.0734
      6 C5          0.0236   -0.7983    1.1297 C.ar      1 <0>         0.0958
      7 C6          0.0323   -0.5163    2.4916 C.ar      1 <0>        -0.1199
      8 C7          0.0546   -1.5463    3.4071 C.ar      1 <0>        -0.1019
      9 C8          0.0691   -2.8675    2.9845 C.ar      1 <0>        -0.1411
     10 C9          0.0515   -3.1678    1.6397 C.ar      1 <0>        -0.0792
     11 C10         0.0386   -3.2475   -1.6846 C.2       1 <0>        -0.0124
     12 C11         1.1160   -3.7128   -2.4294 C.2       1 <0>        -0.0445
     13 C12         0.6193   -4.8843   -3.1804 C.2       1 <0>         0.5559
     14 O1          1.2728   -5.5643   -3.9462 O.2       1 <0>        -0.4477
     15 N2         -0.6758   -5.0722   -2.8752 N.am      1 <0>        -0.6903
     16 C13        -1.0913   -4.1487   -1.9919 C.2       1 <0>         0.5510
     17 O2         -2.2104   -4.0662   -1.5265 O.2       1 <0>        -0.4383
     18 C14         2.4770   -3.1515   -2.4634 C.2       1 <0>        -0.1072
     19 C15         2.9761   -2.1055   -3.3737 C.ar      1 <0>        -0.0768
     20 C16         2.3987   -1.3663   -4.4042 C.ar      1 <0>        -0.0735
     21 C17         3.1550   -0.4365   -5.0832 C.ar      1 <0>        -0.1333
     22 C18         4.4856   -0.2346   -4.7452 C.ar      1 <0>        -0.0909
     23 C19         5.0694   -0.9584   -3.7287 C.ar      1 <0>        -0.1280
     24 C20         4.3227   -1.9025   -3.0304 C.ar      1 <0>         0.1049
     25 N3          4.6223   -2.7584   -1.9913 N.pl3     1 <0>        -0.4790
     26 C21         3.5184   -3.4930   -1.6564 C.2       1 <0>         0.1097
     27 C22         3.4894   -4.5246   -0.5514 C.3       1 <0>        -0.0500
     28 C23         4.7179   -4.3078    0.3404 C.3       1 <0>        -0.1190
     29 H1          4.5933   -3.3903    0.9155 H         1 <0>         0.1048
     30 C24         5.9643   -4.1936   -0.5419 C.3       1 <0>        -0.1431
     31 C25         5.9259   -2.8788   -1.3218 C.3       1 <0>         0.1139
     32 C26         4.8723   -5.4931    1.2955 C.3       1 <0>        -0.0072
     33 N4          5.9761   -5.2297    2.2283 N.4       1 <0>        -0.3888
     34 C27         5.6329   -4.0847    3.0823 C.3       1 <0>        -0.0547
     35 C28         6.2024   -6.4150    3.0662 C.3       1 <0>        -0.0480
     36 H2          1.0048    1.8381    0.0023 H         1 <0>         0.0743
     37 H3         -0.5450    1.8219   -0.8730 H         1 <0>         0.0895
     38 H4         -0.5280    1.8123    0.9069 H         1 <0>         0.0864
     39 H5         -0.0018   -0.4009   -2.1322 H         1 <0>         0.1746
     40 H6          0.0219    0.5088    2.8314 H         1 <0>         0.1217
     41 H7          0.0613   -1.3227    4.4637 H         1 <0>         0.1270
     42 H8          0.0869   -3.6646    3.7130 H         1 <0>         0.1226
     43 H9          0.0641   -4.1972    1.3134 H         1 <0>         0.1164
     44 H10        -1.2322   -5.7787   -3.2388 H         1 <0>         0.4312
     45 H11         1.3634   -1.5218   -4.6694 H         1 <0>         0.1224
     46 H12         2.7103    0.1378   -5.8825 H         1 <0>         0.1288
     47 H13         5.0693    0.4968   -5.2844 H         1 <0>         0.1302
     48 H14         6.1059   -0.7935   -3.4741 H         1 <0>         0.1200
     49 H15         2.5809   -4.4054    0.0390 H         1 <0>         0.1041
     50 H16         3.5199   -5.5255   -0.9821 H         1 <0>         0.0994
     51 H17         6.8561   -4.2199    0.0843 H         1 <0>         0.0792
     52 H18         5.9895   -5.0266   -1.2445 H         1 <0>         0.0962
     53 H19         6.7216   -2.8643   -2.0666 H         1 <0>         0.0982
     54 H20         6.0579   -2.0487   -0.6277 H         1 <0>         0.0811
     55 H21         3.9477   -5.6307    1.8562 H         1 <0>         0.1387
     56 H22         5.0878   -6.3953    0.7230 H         1 <0>         0.1366
     57 H23         6.4519   -3.8893    3.7744 H         1 <0>         0.1263
     58 H24         5.4649   -3.2053    2.4606 H         1 <0>         0.1227
     59 H25         4.7272   -4.3100    3.6454 H         1 <0>         0.1263
     60 H26         6.4571   -7.2645    2.4326 H         1 <0>         0.1245
     61 H27         7.0215   -6.2196    3.7584 H         1 <0>         0.1258
     62 H28         5.2967   -6.6402    3.6293 H         1 <0>         0.1244
     63 H29         6.8145   -5.0212    1.7071 H         1 <0>         0.4230
@<TRIPOS>BOND
     1    1    2 1
     2    1   36 1
     3    1   37 1
     4    1   38 1
     5    2    6 1
     6    2    3 1
     7    3    4 2
     8    3   39 1
     9    4    5 1
    10    4   11 1
    11    5   10 ar
    12    5    6 ar
    13    6    7 ar
    14    7    8 ar
    15    7   40 1
    16    8    9 ar
    17    8   41 1
    18    9   10 ar
    19    9   42 1
    20   10   43 1
    21   11   16 1
    22   11   12 2
    23   12   13 1
    24   12   18 1
    25   13   14 2
    26   13   15 am
    27   15   16 am
    28   15   44 1
    29   16   17 2
    30   18   26 2
    31   18   19 1
    32   19   24 ar
    33   19   20 ar
    34   20   21 ar
    35   20   45 1
    36   21   22 ar
    37   21   46 1
    38   22   23 ar
    39   22   47 1
    40   23   24 ar
    41   23   48 1
    42   24   25 1
    43   25   31 1
    44   25   26 1
    45   26   27 1
    46   27   28 1
    47   27   49 1
    48   27   50 1
    49   28   29 1
    50   28   30 1
    51   28   32 1
    52   30   31 1
    53   30   51 1
    54   30   52 1
    55   31   53 1
    56   31   54 1
    57   32   33 1
    58   32   55 1
    59   32   56 1
    60   33   34 1
    61   33   35 1
    62   33   63 1
    63   34   57 1
    64   34   58 1
    65   34   59 1
    66   35   60 1
    67   35   61 1
    68   35   62 1
@<TRIPOS>MOLECULE
ZINC03783756
   63    68     0     0     0
SMALL
USER_CHARGES

@<TRIPOS>ATOM
      1 C1          1.8486    2.2781    0.2550 C.3       1 <0>         0.0719
      2 N1          1.5677    0.8458    0.1299 N.pl3     1 <0>        -0.4740
      3 C2          1.5578    0.1547   -1.0426 C.2       1 <0>         0.1126
      4 C3          1.2609   -1.1544   -0.8017 C.2       1 <0>        -0.1524
      5 C4          1.0705   -1.2801    0.6541 C.ar      1 <0>        -0.0730
      6 C5          1.2812    0.0037    1.1844 C.ar      1 <0>         0.0956
      7 C6          1.1737    0.2008    2.5569 C.ar      1 <0>        -0.1174
      8 C7          0.8666   -0.8596    3.3821 C.ar      1 <0>        -0.1009
      9 C8          0.6629   -2.1275    2.8576 C.ar      1 <0>        -0.1384
     10 C9          0.7559   -2.3415    1.4995 C.ar      1 <0>        -0.0827
     11 C10         1.1516   -2.2310   -1.8004 C.2       1 <0>        -0.0067
     12 C11         2.1964   -2.8738   -2.4540 C.2       1 <0>        -0.0498
     13 C12         1.5694   -3.8681   -3.3493 C.2       1 <0>         0.5559
     14 O1          2.1615   -4.6284   -4.0891 O.2       1 <0>        -0.4512
     15 N2          0.2353   -3.7912   -3.2088 N.am      1 <0>        -0.6911
     16 C13        -0.0908   -2.8509   -2.3059 C.2       1 <0>         0.5492
     17 O2         -1.2191   -2.5569   -1.9648 O.2       1 <0>        -0.4354
     18 C14         3.6367   -2.6158   -2.2880 C.2       1 <0>        -0.1085
     19 C15         4.4522   -1.6518   -3.0478 C.ar      1 <0>        -0.0783
     20 C16         4.1757   -0.7499   -4.0733 C.ar      1 <0>        -0.0746
     21 C17         5.1875    0.0327   -4.5846 C.ar      1 <0>        -0.1330
     22 C18         6.4768   -0.0741   -4.0830 C.ar      1 <0>        -0.0904
     23 C19         6.7647   -0.9618   -3.0695 C.ar      1 <0>        -0.1268
     24 C20         5.7567   -1.7611   -2.5390 C.ar      1 <0>         0.1056
     25 N3          5.7385   -2.7174   -1.5453 N.pl3     1 <0>        -0.4763
     26 C21         4.4737   -3.2168   -1.3990 C.2       1 <0>         0.1095
     27 C22         4.0931   -4.2809   -0.3945 C.3       1 <0>        -0.0689
     28 C23         5.3789   -4.9473    0.1098 C.3       1 <0>        -0.1208
     29 H1          5.8068   -5.5603   -0.6834 H         1 <0>         0.1047
     30 C24         6.3806   -3.8621    0.5151 C.3       1 <0>        -0.1248
     31 C25         6.8924   -3.1491   -0.7427 C.3       1 <0>         0.1102
     32 C26         5.0583   -5.8271    1.3198 C.3       1 <0>        -0.0056
     33 N4          4.1912   -6.9369    0.9022 N.4       1 <0>        -0.3904
     34 C27         4.9311   -7.8205   -0.0087 C.3       1 <0>        -0.0540
     35 C28         3.7660   -7.6978    2.0847 C.3       1 <0>        -0.0484
     36 H2          2.9194    2.4276    0.3938 H         1 <0>         0.0754
     37 H3          1.5242    2.7924   -0.6496 H         1 <0>         0.0896
     38 H4          1.3114    2.6801    1.1140 H         1 <0>         0.0869
     39 H5          1.7549    0.5787   -2.0162 H         1 <0>         0.1745
     40 H6          1.3310    1.1838    2.9758 H         1 <0>         0.1227
     41 H7          0.7842   -0.7019    4.4473 H         1 <0>         0.1283
     42 H8          0.4233   -2.9493    3.5160 H         1 <0>         0.1228
     43 H9          0.5981   -3.3300    1.0939 H         1 <0>         0.1136
     44 H10        -0.4034   -4.3408   -3.6893 H         1 <0>         0.4308
     45 H11         3.1731   -0.6650   -4.4656 H         1 <0>         0.1216
     46 H12         4.9763    0.7325   -5.3797 H         1 <0>         0.1288
     47 H13         7.2624    0.5444   -4.4913 H         1 <0>         0.1306
     48 H14         7.7718   -1.0371   -2.6868 H         1 <0>         0.1214
     49 H15         3.5634   -3.8244    0.4416 H         1 <0>         0.1043
     50 H16         3.4559   -5.0255   -0.8715 H         1 <0>         0.0846
     51 H17         5.8913   -3.1436    1.1726 H         1 <0>         0.0900
     52 H18         7.2200   -4.3200    1.0383 H         1 <0>         0.1002
     53 H19         7.5135   -3.8251   -1.3304 H         1 <0>         0.0868
     54 H20         7.4771   -2.2783   -0.4461 H         1 <0>         0.0965
     55 H21         5.9841   -6.2257    1.7346 H         1 <0>         0.1370
     56 H22         4.5476   -5.2319    2.0767 H         1 <0>         0.1366
     57 H23         4.3279   -8.7008   -0.2307 H         1 <0>         0.1270
     58 H24         5.1503   -7.2874   -0.9338 H         1 <0>         0.1235
     59 H25         5.8643   -8.1290    0.4627 H         1 <0>         0.1250
     60 H26         3.2170   -7.0422    2.7605 H         1 <0>         0.1250
     61 H27         3.1226   -8.5213    1.7748 H         1 <0>         0.1261
     62 H28         4.6431   -8.0946    2.5961 H         1 <0>         0.1239
     63 H29         3.3793   -6.5696    0.4288 H         1 <0>         0.4249
@<TRIPOS>BOND
     1    1    2 1
     2    1   36 1
     3    1   37 1
     4    1   38 1
     5    2    6 1
     6    2    3 1
     7    3    4 2
     8    3   39 1
     9    4    5 1
    10    4   11 1
    11    5   10 ar
    12    5    6 ar
    13    6    7 ar
    14    7    8 ar
    15    7   40 1
    16    8    9 ar
    17    8   41 1
    18    9   10 ar
    19    9   42 1
    20   10   43 1
    21   11   16 1
    22   11   12 2
    23   12   13 1
    24   12   18 1
    25   13   14 2
    26   13   15 am
    27   15   16 am
    28   15   44 1
    29   16   17 2
    30   18   26 2
    31   18   19 1
    32   19   24 ar
    33   19   20 ar
    34   20   21 ar
    35   20   45 1
    36   21   22 ar
    37   21   46 1
    38   22   23 ar
    39   22   47 1
    40   23   24 ar
    41   23   48 1
    42   24   25 1
    43   25   31 1
    44   25   26 1
    45   26   27 1
    46   27   28 1
    47   27   49 1
    48   27   50 1
    49   28   29 1
    50   28   30 1
    51   28   32 1
    52   30   31 1
    53   30   51 1
    54   30   52 1
    55   31   53 1
    56   31   54 1
    57   32   33 1
    58   32   55 1
    59   32   56 1
    60   33   34 1
    61   33   35 1
    62   33   63 1
    63   34   57 1
    64   34   58 1
    65   34   59 1
    66   35   60 1
    67   35   61 1
    68   35   62 1
@<TRIPOS>MOLECULE
ZINC03814434
   62    69     0     0     0
SMALL
USER_CHARGES

@<TRIPOS>ATOM
      1 C1         -0.1295    1.5952   -0.2973 C.3       1 <0>        -0.1687
      2 C2         -0.0862    0.0696   -0.1900 C.3       1 <0>         0.3342
      3 C3          0.5692   -0.4501   -1.4637 C.3       1 <0>         0.0405
      4 H1          1.4796    0.1159   -1.6612 H         1 <0>         0.1372
      5 C4          0.9167   -1.9328   -1.2889 C.3       1 <0>        -0.0061
      6 H2          1.3963   -2.3075   -2.1932 H         1 <0>         0.1555
      7 C5          1.8785   -2.0596   -0.1021 C.3       1 <0>        -0.1827
      8 C6          1.2061   -1.5198    1.1541 C.3       1 <0>         0.2999
      9 H3          1.9797   -1.4243    1.9161 H         1 <0>         0.1550
     10 O1          0.6555   -0.2442    0.9666 O.3       1 <0>        -0.3234
     11 N1          0.2189   -2.4746    1.6600 N.pl3     1 <0>        -0.5366
     12 C7          0.4705   -3.5508    2.4739 C.ar      1 <0>         0.1469
     13 C8          1.6649   -4.0152    3.0240 C.ar      1 <0>        -0.1522
     14 C9          1.5948   -5.1456    3.8201 C.ar      1 <0>        -0.0582
     15 C10         0.4006   -5.7997    4.0696 C.ar      1 <0>        -0.1457
     16 C11        -0.7984   -5.3597    3.5358 C.ar      1 <0>        -0.0280
     17 C12        -0.7487   -4.2198    2.7307 C.ar      1 <0>        -0.1131
     18 C13        -1.7893   -3.4830    2.0197 C.ar      1 <0>         0.0276
     19 C14        -1.1442   -2.4197    1.3841 C.ar      1 <0>         0.0376
     20 C15        -1.8806   -1.5095    0.6175 C.ar      1 <0>         0.0894
     21 N2         -1.4718   -0.3951   -0.1095 N.pl3     1 <0>        -0.5183
     22 C16        -2.5611    0.1913   -0.7090 C.ar      1 <0>         0.1618
     23 C17        -2.6521    1.3277   -1.5118 C.ar      1 <0>        -0.1305
     24 C18        -3.9109    1.6745   -1.9733 C.ar      1 <0>        -0.0737
     25 C19        -5.0393    0.9368   -1.6616 C.ar      1 <0>        -0.1358
     26 C20        -4.9745   -0.1955   -0.8662 C.ar      1 <0>        -0.0503
     27 C21        -3.7147   -0.5596   -0.3919 C.ar      1 <0>        -0.1042
     28 C22        -3.2693   -1.6660    0.4845 C.ar      1 <0>        -0.0360
     29 C23        -3.9084   -2.7313    1.1102 C.ar      1 <0>        -0.0288
     30 C24        -3.1873   -3.6421    1.8754 C.ar      1 <0>        -0.1255
     31 C25        -4.1221   -4.6480    2.4030 C.2       1 <0>         0.5632
     32 O2         -3.8062   -5.5851    3.1110 O.2       1 <0>        -0.5106
     33 N3         -5.3744   -4.3851    1.9926 N.am      1 <0>        -0.7162
     34 C26        -5.3495   -3.1771    1.1601 C.3       1 <0>         0.1358
     35 N4         -0.3067   -2.7008   -1.0216 N.4       1 <0>        -0.5252
     36 C27         0.0145   -4.1336   -0.9773 C.3       1 <0>        -0.0497
     37 O3         -0.3340   -0.2979   -2.5607 O.3       1 <0>        -0.3614
     38 C28         0.3101   -0.0933   -3.8198 C.3       1 <0>         0.0162
     39 H4          0.8261    2.0094    0.0240 H         1 <0>         0.0984
     40 H5         -0.3202    1.8814   -1.3317 H         1 <0>         0.1036
     41 H6         -0.9255    1.9818    0.3392 H         1 <0>         0.0921
     42 H7          2.1370   -3.1081    0.0458 H         1 <0>         0.1233
     43 H8          2.7835   -1.4869   -0.3048 H         1 <0>         0.1455
     44 H9          2.6036   -3.5149    2.8368 H         1 <0>         0.1365
     45 H10         2.5026   -5.5304    4.2610 H         1 <0>         0.1359
     46 H11         0.4045   -6.6780    4.6980 H         1 <0>         0.1352
     47 H12        -1.7278   -5.8736    3.7323 H         1 <0>         0.1600
     48 H13        -1.7792    1.9122   -1.7624 H         1 <0>         0.1440
     49 H14        -4.0153    2.5500   -2.5970 H         1 <0>         0.1336
     50 H15        -5.9967    1.2527   -2.0488 H         1 <0>         0.1332
     51 H16        -5.8575   -0.7687   -0.6249 H         1 <0>         0.1415
     52 H17        -6.1628   -4.9065    2.2103 H         1 <0>         0.4348
     53 H18        -5.9671   -2.3994    1.6094 H         1 <0>         0.1115
     54 H19        -5.7060   -3.4063    0.1559 H         1 <0>         0.1103
     55 H20        -0.6958   -2.4158   -0.1353 H         1 <0>         0.4186
     56 H21         0.4349   -4.4415   -1.9347 H         1 <0>         0.1256
     57 H22         0.7403   -4.3189   -0.1854 H         1 <0>         0.1191
     58 H23        -0.8932   -4.7035   -0.7789 H         1 <0>         0.1256
     59 H24         0.9168    0.8112   -3.7748 H         1 <0>         0.0633
     60 H25         0.9482   -0.9479   -4.0446 H         1 <0>         0.0514
     61 H26        -0.4433    0.0130   -4.6003 H         1 <0>         0.1100
     62 H27        -0.9785   -2.5293   -1.7546 H         1 <0>         0.4274
@<TRIPOS>BOND
     1    1    2 1
     2    1   39 1
     3    1   40 1
     4    1   41 1
     5    2   10 1
     6    2   21 1
     7    2    3 1
     8    3    4 1
     9    3    5 1
    10    3   37 1
    11    5    6 1
    12    5    7 1
    13    5   35 1
    14    7    8 1
    15    7   42 1
    16    7   43 1
    17    8    9 1
    18    8   10 1
    19    8   11 1
    20   11   19 1
    21   11   12 1
    22   12   17 ar
    23   12   13 ar
    24   13   14 ar
    25   13   44 1
    26   14   15 ar
    27   14   45 1
    28   15   16 ar
    29   15   46 1
    30   16   17 ar
    31   16   47 1
    32   17   18 1
    33   18   30 ar
    34   18   19 ar
    35   19   20 ar
    36   20   28 ar
    37   20   21 1
    38   21   22 1
    39   22   27 ar
    40   22   23 ar
    41   23   24 ar
    42   23   48 1
    43   24   25 ar
    44   24   49 1
    45   25   26 ar
    46   25   50 1
    47   26   27 ar
    48   26   51 1
    49   27   28 1
    50   28   29 ar
    51   29   34 1
    52   29   30 ar
    53   30   31 1
    54   31   32 2
    55   31   33 am
    56   33   34 1
    57   33   52 1
    58   34   53 1
    59   34   54 1
    60   35   36 1
    61   35   55 1
    62   35   62 1
    63   36   56 1
    64   36   57 1
    65   36   58 1
    66   37   38 1
    67   38   59 1
    68   38   60 1
    69   38   61 1
@<TRIPOS>MOLECULE
ZINC02011710
   53    57     0     0     0
SMALL
USER_CHARGES
3-[1-(3-aminopropyl)indol-3-yl]-4-(1-methylindol-3-yl)-pyrrole-2,5-dione
@<TRIPOS>ATOM
      1 C1          2.9798    0.0203   -0.0236 C.3       1 <0>         0.0761
      2 N1          2.5076    1.4071   -0.0132 N.pl3     1 <0>        -0.4787
      3 C2          3.3143    2.5034   -0.0147 C.2       1 <0>         0.1022
      4 C3          2.5522    3.6343   -0.0023 C.2       1 <0>        -0.1392
      5 C4          1.1465    3.1926    0.0078 C.ar      1 <0>        -0.0760
      6 C5          1.1819    1.7882    0.0004 C.ar      1 <0>         0.0933
      7 C6         -0.0126    1.0758    0.0080 C.ar      1 <0>        -0.1271
      8 C7         -1.2150    1.7493    0.0173 C.ar      1 <0>        -0.0984
      9 C8         -1.2485    3.1361    0.0277 C.ar      1 <0>        -0.1377
     10 C9         -0.0761    3.8600    0.0215 C.ar      1 <0>        -0.0733
     11 C10         3.0388    5.0242    0.0008 C.2       1 <0>        -0.0188
     12 C11         3.5826    5.7216   -1.0715 C.2       1 <0>        -0.0422
     13 C12         3.9090    7.0690   -0.5604 C.2       1 <0>         0.5562
     14 O1          4.4020    7.9719   -1.2067 O.2       1 <0>        -0.4454
     15 N2          3.5747    7.1276    0.7397 N.am      1 <0>        -0.6896
     16 C13         3.0535    5.9576    1.1461 C.2       1 <0>         0.5526
     17 O2          2.6594    5.7089    2.2681 O.2       1 <0>        -0.4403
     18 C14         3.7889    5.2201   -2.4406 C.2       1 <0>        -0.1134
     19 C15         2.8311    5.0306   -3.3928 C.2       1 <0>         0.0897
     20 N3          3.4049    4.5552   -4.5318 N.pl3     1 <0>        -0.4822
     21 C16         4.7667    4.4174   -4.3604 C.ar      1 <0>         0.0946
     22 C17         5.0715    4.8307   -3.0527 C.ar      1 <0>        -0.0755
     23 C18         6.3872    4.7911   -2.5969 C.ar      1 <0>        -0.0673
     24 C19         7.3878    4.3564   -3.4386 C.ar      1 <0>        -0.1340
     25 C20         7.0891    3.9536   -4.7319 C.ar      1 <0>        -0.0917
     26 C21         5.7911    3.9820   -5.1942 C.ar      1 <0>        -0.1329
     27 C22         2.6797    4.2352   -5.7638 C.3       1 <0>         0.1173
     28 C23         2.3404    2.7434   -5.7830 C.3       1 <0>        -0.1765
     29 C24         1.5830    2.4091   -7.0697 C.3       1 <0>        -0.0009
     30 H1          3.0878   -0.3191   -1.0537 H         1 <0>         0.0686
     31 H2          3.9440   -0.0390    0.4814 H         1 <0>         0.0882
     32 H3          2.2591   -0.6128    0.4939 H         1 <0>         0.0854
     33 H4          4.3940    2.4811   -0.0246 H         1 <0>         0.1741
     34 H5          0.0021   -0.0041    0.0020 H         1 <0>         0.1196
     35 H6         -2.1401    1.1920    0.0190 H         1 <0>         0.1275
     36 H7         -2.1979    3.6507    0.0383 H         1 <0>         0.1261
     37 H8         -0.1049    4.9396    0.0275 H         1 <0>         0.1203
     38 H9          3.6926    7.9062    1.3060 H         1 <0>         0.4317
     39 H10         1.7773    5.2283   -3.2629 H         1 <0>         0.1750
     40 H11         6.6225    5.1042   -1.5905 H         1 <0>         0.1234
     41 H12         8.4096    4.3296   -3.0898 H         1 <0>         0.1291
     42 H13         7.8814    3.6147   -5.3830 H         1 <0>         0.1292
     43 H14         5.5696    3.6668   -6.2032 H         1 <0>         0.1160
     44 H15         1.7593    4.8176   -5.8054 H         1 <0>         0.1030
     45 H16         3.3022    4.4773   -6.6252 H         1 <0>         0.0987
     46 H17         3.2608    2.1609   -5.7414 H         1 <0>         0.0951
     47 H18         1.7179    2.5012   -4.9217 H         1 <0>         0.0964
     48 H19         0.6627    2.9916   -7.1113 H         1 <0>         0.1395
     49 H20         2.2055    2.6513   -7.9311 H         1 <0>         0.1361
     50 H21         0.7348    0.7142   -6.2659 H         1 <0>         0.4385
     51 H22         0.7564    0.7307   -7.9288 H         1 <0>         0.4432
     52 N4          1.2807    0.9670   -7.0880 N.4       1 <0>        -0.6464
     53 H23         2.1604    0.4376   -7.0818 H         1 <0>         0.4406
@<TRIPOS>BOND
     1    1    2 1
     2    1   30 1
     3    1   31 1
     4    1   32 1
     5    2    6 1
     6    2    3 1
     7    3    4 2
     8    3   33 1
     9    4    5 1
    10    4   11 1
    11    5   10 ar
    12    5    6 ar
    13    6    7 ar
    14    7    8 ar
    15    7   34 1
    16    8    9 ar
    17    8   35 1
    18    9   10 ar
    19    9   36 1
    20   10   37 1
    21   11   16 1
    22   11   12 2
    23   12   13 1
    24   12   18 1
    25   13   14 2
    26   13   15 am
    27   15   16 am
    28   15   38 1
    29   16   17 2
    30   18   22 1
    31   18   19 2
    32   19   20 1
    33   19   39 1
    34   20   21 1
    35   20   27 1
    36   21   26 ar
    37   21   22 ar
    38   22   23 ar
    39   23   24 ar
    40   23   40 1
    41   24   25 ar
    42   24   41 1
    43   25   26 ar
    44   25   42 1
    45   26   43 1
    46   27   28 1
    47   27   44 1
    48   27   45 1
    49   28   29 1
    50   28   46 1
    51   28   47 1
    52   29   48 1
    53   29   49 1
    54   29   52 1
    55   50   52 1
    56   51   52 1
    57   52   53 1
@<TRIPOS>MOLECULE
ZINC03801072
   57    62     0     0     0
SMALL
USER_CHARGES
3-(aminomethylBLAHyl)-4-(1-methylindol-3-yl)-pyrrole-2,5-dione
@<TRIPOS>ATOM
      1 C1         -3.3259    7.1513   -1.4756 C.3       1 <0>         0.0723
      2 N1         -2.7966    6.0928   -0.6121 N.pl3     1 <0>        -0.4749
      3 C2         -1.9223    5.1286   -1.0105 C.2       1 <0>         0.1101
      4 C3         -1.6367    4.3057    0.0389 C.2       1 <0>        -0.1496
      5 C4         -2.4117    4.8068    1.1877 C.ar      1 <0>        -0.0736
      6 C5         -3.1136    5.9306    0.7206 C.ar      1 <0>         0.0952
      7 C6         -3.9408    6.6294    1.5934 C.ar      1 <0>        -0.1201
      8 C7         -4.0730    6.2101    2.8997 C.ar      1 <0>        -0.1007
      9 C8         -3.3765    5.1025    3.3605 C.ar      1 <0>        -0.1389
     10 C9         -2.5480    4.3999    2.5129 C.ar      1 <0>        -0.0798
     11 C10        -0.7356    3.1412    0.0251 C.2       1 <0>        -0.0074
     12 C11         0.6542    3.1601    0.0122 C.2       1 <0>        -0.0489
     13 C12         1.0829    1.7461    0.0011 C.2       1 <0>         0.5569
     14 O1          2.2328    1.3543   -0.0120 O.2       1 <0>        -0.4501
     15 N2         -0.0111    0.9658    0.0074 N.am      1 <0>        -0.6904
     16 C13        -1.1258    1.7161    0.0162 C.2       1 <0>         0.5503
     17 O2         -2.2647    1.2931    0.0185 O.2       1 <0>        -0.4368
     18 C14         1.5234    4.3487    0.0094 C.2       1 <0>        -0.1029
     19 C15         2.0341    5.0570   -1.1625 C.ar      1 <0>        -0.0809
     20 C16         1.8723    4.8452   -2.5318 C.ar      1 <0>        -0.0685
     21 C17         2.5154    5.7314   -3.3791 C.ar      1 <0>        -0.1378
     22 C18         3.2819    6.7783   -2.8957 C.ar      1 <0>        -0.0920
     23 C19         3.4473    7.0091   -1.5406 C.ar      1 <0>        -0.1299
     24 C20         2.8142    6.1277   -0.6658 C.ar      1 <0>         0.1065
     25 N3          2.7859    6.0659    0.7003 N.pl3     1 <0>        -0.4762
     26 C21         2.0165    5.0037    1.1008 C.2       1 <0>         0.0993
     27 C22         1.7661    4.6329    2.5442 C.3       1 <0>        -0.0498
     28 C23         2.7987    5.3589    3.4147 C.3       1 <0>        -0.1226
     29 H1          3.7825    4.9161    3.2592 H         1 <0>         0.1052
     30 C24         2.8343    6.8379    3.0190 C.3       1 <0>        -0.1422
     31 C25         3.4640    6.9813    1.6311 C.3       1 <0>         0.1126
     32 C26         2.4057    5.2326    4.8879 C.3       1 <0>        -0.0001
     33 H2         -4.2445    6.8072   -1.9508 H         1 <0>         0.0775
     34 H3         -3.5365    8.0374   -0.8768 H         1 <0>         0.0850
     35 H4         -2.5905    7.3969   -2.2418 H         1 <0>         0.0880
     36 H5         -1.5164    5.0301   -2.0064 H         1 <0>         0.1742
     37 H6         -4.4891    7.4919    1.2444 H         1 <0>         0.1218
     38 H7         -4.7194    6.7536    3.5730 H         1 <0>         0.1276
     39 H8         -3.4845    4.7892    4.3884 H         1 <0>         0.1235
     40 H9         -2.0071    3.5376    2.8741 H         1 <0>         0.1166
     41 H10         0.0021   -0.0041    0.0020 H         1 <0>         0.4311
     42 H11         1.2751    4.0297   -2.9123 H         1 <0>         0.1298
     43 H12         2.4160    5.6028   -4.4468 H         1 <0>         0.1249
     44 H13         3.7619    7.4416   -3.5999 H         1 <0>         0.1259
     45 H14         4.0500    7.8285   -1.1775 H         1 <0>         0.1275
     46 H15         0.7610    4.9401    2.8333 H         1 <0>         0.1021
     47 H16         1.8712    3.5553    2.6702 H         1 <0>         0.1005
     48 H17         1.8187    7.2331    2.9995 H         1 <0>         0.0956
     49 H18         3.4264    7.3941    3.7456 H         1 <0>         0.0809
     50 H19         3.3484    8.0075    1.2824 H         1 <0>         0.0966
     51 H20         4.5233    6.7296    1.6834 H         1 <0>         0.0844
     52 H21         1.4654    5.7567    5.0594 H         1 <0>         0.1414
     53 H22         2.2864    4.1796    5.1432 H         1 <0>         0.1406
     54 H23         3.6306    6.7829    5.4663 H         1 <0>         0.4337
     55 H24         3.2198    5.7530    6.7058 H         1 <0>         0.4433
     56 N4          3.4755    5.8090    5.7213 N.4       1 <0>        -0.6481
     57 H25         4.3429    5.2808    5.5699 H         1 <0>         0.4410
@<TRIPOS>BOND
     1    1    2 1
     2    1   33 1
     3    1   34 1
     4    1   35 1
     5    2    6 1
     6    2    3 1
     7    3    4 2
     8    3   36 1
     9    4    5 1
    10    4   11 1
    11    5   10 ar
    12    5    6 ar
    13    6    7 ar
    14    7    8 ar
    15    7   37 1
    16    8    9 ar
    17    8   38 1
    18    9   10 ar
    19    9   39 1
    20   10   40 1
    21   11   16 1
    22   11   12 2
    23   12   13 1
    24   12   18 1
    25   13   14 2
    26   13   15 am
    27   15   16 am
    28   15   41 1
    29   16   17 2
    30   18   26 2
    31   18   19 1
    32   19   24 ar
    33   19   20 ar
    34   20   21 ar
    35   20   42 1
    36   21   22 ar
    37   21   43 1
    38   22   23 ar
    39   22   44 1
    40   23   24 ar
    41   23   45 1
    42   24   25 1
    43   25   31 1
    44   25   26 1
    45   26   27 1
    46   27   28 1
    47   27   46 1
    48   27   47 1
    49   28   29 1
    50   28   30 1
    51   28   32 1
    52   30   31 1
    53   30   48 1
    54   30   49 1
    55   31   50 1
    56   31   51 1
    57   32   52 1
    58   32   53 1
    59   32   56 1
    60   54   56 1
    61   55   56 1
    62   56   57 1
@<TRIPOS>MOLECULE
ZINC03871742
   57    62     0     0     0
SMALL
USER_CHARGES
3-(aminomethylBLAHyl)-4-(1-methylindol-3-yl)-pyrrole-2,5-dione
@<TRIPOS>ATOM
      1 C1         -1.1887   -0.8574    0.0084 C.3       1 <0>         0.0721
      2 N1          0.0021   -0.0041    0.0020 N.pl3     1 <0>        -0.4749
      3 C2         -0.0164    1.3569    0.0095 C.2       1 <0>         0.1103
      4 C3          1.2614    1.8336   -0.0001 C.2       1 <0>        -0.1482
      5 C4          2.1479    0.6566   -0.0149 C.ar      1 <0>        -0.0735
      6 C5          1.3021   -0.4652   -0.0129 C.ar      1 <0>         0.0954
      7 C6          1.8593   -1.7394   -0.0243 C.ar      1 <0>        -0.1198
      8 C7          3.2291   -1.8910   -0.0389 C.ar      1 <0>        -0.1018
      9 C8          4.0630   -0.7824   -0.0409 C.ar      1 <0>        -0.1402
     10 C9          3.5305    0.4884   -0.0290 C.ar      1 <0>        -0.0800
     11 C10         1.6741    3.2471    0.0035 C.2       1 <0>        -0.0109
     12 C11         1.6378    4.1254    1.0802 C.2       1 <0>        -0.0459
     13 C12         2.1552    5.4140    0.5751 C.2       1 <0>         0.5561
     14 O1          2.2787    6.4322    1.2261 O.2       1 <0>        -0.4479
     15 N2          2.4610    5.2735   -0.7259 N.am      1 <0>        -0.6903
     16 C13         2.2046    4.0205   -1.1382 C.2       1 <0>         0.5507
     17 O2          2.3795    3.5948   -2.2625 O.2       1 <0>        -0.4377
     18 C14         1.1793    3.8307    2.4481 C.2       1 <0>        -0.1038
     19 C15        -0.1788    3.9792    2.9672 C.ar      1 <0>        -0.0807
     20 C16        -1.3704    4.3967    2.3738 C.ar      1 <0>        -0.0687
     21 C17        -2.4967    4.4063    3.1788 C.ar      1 <0>        -0.1376
     22 C18        -2.4492    4.0151    4.5061 C.ar      1 <0>        -0.0921
     23 C19        -1.2776    3.5924    5.1106 C.ar      1 <0>        -0.1297
     24 C20        -0.1286    3.5737    4.3217 C.ar      1 <0>         0.1064
     25 N3          1.1618    3.2177    4.6031 N.pl3     1 <0>        -0.4761
     26 C21         1.9397    3.3702    3.4840 C.2       1 <0>         0.0999
     27 C22         3.4190    3.0664    3.4303 C.3       1 <0>        -0.0509
     28 C23         3.7816    2.2172    4.6545 C.3       1 <0>        -0.1214
     29 H1          3.3660    1.2160    4.5398 H         1 <0>         0.1054
     30 C24         3.1994    2.8749    5.9089 C.3       1 <0>        -0.1438
     31 C25         1.6745    2.7401    5.8965 C.3       1 <0>         0.1131
     32 C26         5.3036    2.1279    4.7828 C.3       1 <0>        -0.0001
     33 H2         -1.4937   -1.0632   -1.0177 H         1 <0>         0.0777
     34 H3         -0.9609   -1.7954    0.5147 H         1 <0>         0.0848
     35 H4         -1.9976   -0.3486    0.5328 H         1 <0>         0.0884
     36 H5         -0.9077    1.9668    0.0172 H         1 <0>         0.1746
     37 H6          1.2192   -2.6093   -0.0229 H         1 <0>         0.1218
     38 H7          3.6574   -2.8824   -0.0480 H         1 <0>         0.1272
     39 H8          5.1347   -0.9160   -0.0522 H         1 <0>         0.1230
     40 H9          4.1820    1.3498   -0.0303 H         1 <0>         0.1166
     41 H10         2.8172    5.9784   -1.2889 H         1 <0>         0.4313
     42 H11        -1.4112    4.7019    1.3387 H         1 <0>         0.1299
     43 H12        -3.4388    4.7276    2.7596 H         1 <0>         0.1249
     44 H13        -3.3573    4.0410    5.0902 H         1 <0>         0.1260
     45 H14        -1.2550    3.2902    6.1472 H         1 <0>         0.1276
     46 H15         3.6476    2.5137    2.5191 H         1 <0>         0.1042
     47 H16         3.9860    3.9972    3.4480 H         1 <0>         0.0990
     48 H17         3.6002    2.3840    6.7957 H         1 <0>         0.0806
     49 H18         3.4703    3.9306    5.9245 H         1 <0>         0.0964
     50 H19         1.3997    1.6944    6.0341 H         1 <0>         0.0833
     51 H20         1.2490    3.3381    6.7024 H         1 <0>         0.0974
     52 H21         5.7252    1.7492    3.8517 H         1 <0>         0.1439
     53 H22         5.7095    3.1182    4.9892 H         1 <0>         0.1380
     54 H23         5.2305    0.3102    5.7467 H         1 <0>         0.4383
     55 H24         6.6503    1.1419    5.9880 H         1 <0>         0.4433
     56 N4          5.6391    1.2303    5.9022 N.4       1 <0>        -0.6481
     57 H25         5.2619    1.6215    6.7733 H         1 <0>         0.4361
@<TRIPOS>BOND
     1    1    2 1
     2    1   33 1
     3    1   34 1
     4    1   35 1
     5    2    6 1
     6    2    3 1
     7    3    4 2
     8    3   36 1
     9    4    5 1
    10    4   11 1
    11    5   10 ar
    12    5    6 ar
    13    6    7 ar
    14    7    8 ar
    15    7   37 1
    16    8    9 ar
    17    8   38 1
    18    9   10 ar
    19    9   39 1
    20   10   40 1
    21   11   16 1
    22   11   12 2
    23   12   13 1
    24   12   18 1
    25   13   14 2
    26   13   15 am
    27   15   16 am
    28   15   41 1
    29   16   17 2
    30   18   26 2
    31   18   19 1
    32   19   24 ar
    33   19   20 ar
    34   20   21 ar
    35   20   42 1
    36   21   22 ar
    37   21   43 1
    38   22   23 ar
    39   22   44 1
    40   23   24 ar
    41   23   45 1
    42   24   25 1
    43   25   31 1
    44   25   26 1
    45   26   27 1
    46   27   28 1
    47   27   46 1
    48   27   47 1
    49   28   29 1
    50   28   30 1
    51   28   32 1
    52   30   31 1
    53   30   48 1
    54   30   49 1
    55   31   50 1
    56   31   51 1
    57   32   52 1
    58   32   53 1
    59   32   56 1
    60   54   56 1
    61   55   56 1
    62   56   57 1
@<TRIPOS>MOLECULE
ZINC03797930
   57    61     0     0     0
SMALL
USER_CHARGES

@<TRIPOS>ATOM
      1 C1         -0.0178    1.4608    0.0101 C.3       1 <0>         0.0756
      2 N1          0.0021   -0.0041    0.0020 N.pl3     1 <0>        -0.4779
      3 C2          0.0079   -0.7756   -1.1193 C.2       1 <0>         0.1034
      4 C3          0.0281   -2.0937   -0.7697 C.2       1 <0>        -0.1402
      5 C4          0.0354   -2.1368    0.7032 C.ar      1 <0>        -0.0754
      6 C5          0.0236   -0.7983    1.1297 C.ar      1 <0>         0.0946
      7 C6          0.0313   -0.5163    2.4916 C.ar      1 <0>        -0.1255
      8 C7          0.0535   -1.5463    3.4071 C.ar      1 <0>        -0.0992
      9 C8          0.0683   -2.8675    2.9845 C.ar      1 <0>        -0.1386
     10 C9          0.0542   -3.1677    1.6397 C.ar      1 <0>        -0.0735
     11 C10         0.0398   -3.2475   -1.6846 C.2       1 <0>        -0.0198
     12 C11         1.1172   -3.7122   -2.4298 C.2       1 <0>        -0.0395
     13 C12         0.6208   -4.8840   -3.1806 C.2       1 <0>         0.5564
     14 O1          1.2746   -5.5640   -3.9461 O.2       1 <0>        -0.4464
     15 N2         -0.6740   -5.0726   -2.8749 N.am      1 <0>        -0.6902
     16 C13        -1.0897   -4.1493   -1.9915 C.2       1 <0>         0.5532
     17 O2         -2.2087   -4.0674   -1.5257 O.2       1 <0>        -0.4418
     18 C14         2.4779   -3.1502   -2.4643 C.2       1 <0>        -0.1185
     19 C15         3.4364   -3.2746   -1.5022 C.2       1 <0>         0.0933
     20 N3          4.5640   -2.6188   -1.8910 N.pl3     1 <0>        -0.4798
     21 C16         4.3781   -2.0398   -3.1293 C.ar      1 <0>         0.0962
     22 C17         3.0730   -2.3483   -3.5479 C.ar      1 <0>        -0.0752
     23 C18         2.6089   -1.8925   -4.7796 C.ar      1 <0>        -0.0686
     24 C19         3.4370   -1.1416   -5.5852 C.ar      1 <0>        -0.1351
     25 C20         4.7273   -0.8397   -5.1749 C.ar      1 <0>        -0.0935
     26 C21         5.1968   -1.2769   -3.9550 C.ar      1 <0>        -0.1304
     27 C22         5.7987   -2.5392   -1.1066 C.3       1 <0>         0.1213
     28 C23         5.8024   -1.2444   -0.2914 C.3       1 <0>        -0.1304
     29 C24         7.0919   -1.1612    0.5278 C.3       1 <0>        -0.1323
     30 S1          7.0963    0.3739    1.4943 S.3       1 <0>         0.0637
     31 C25         8.6242    0.3216    2.3704 C.cat     1 <0>         0.4855
     32 N4          9.2482    1.4553    2.6902 N.pl3     1 <0>        -0.7357
     33 N5          9.1561   -0.8516    2.7133 N.pl3     1 <0>        -0.7643
     34 H1          1.0048    1.8381    0.0023 H         1 <0>         0.0705
     35 H2         -0.5450    1.8219   -0.8730 H         1 <0>         0.0878
     36 H3         -0.5280    1.8123    0.9069 H         1 <0>         0.0849
     37 H4         -0.0026   -0.4009   -2.1322 H         1 <0>         0.1741
     38 H5          0.0202    0.5088    2.8315 H         1 <0>         0.1196
     39 H6          0.0598   -1.3227    4.4637 H         1 <0>         0.1265
     40 H7          0.0861   -3.6646    3.7130 H         1 <0>         0.1250
     41 H8          0.0669   -4.1972    1.3134 H         1 <0>         0.1196
     42 H9         -1.2301   -5.7795   -3.2382 H         1 <0>         0.4308
     43 H10         3.3186   -3.8118   -0.5727 H         1 <0>         0.1746
     44 H11         1.6050   -2.1267   -5.1017 H         1 <0>         0.1223
     45 H12         3.0800   -0.7868   -6.5407 H         1 <0>         0.1277
     46 H13         5.3679   -0.2507   -5.8146 H         1 <0>         0.1281
     47 H14         6.2036   -1.0375   -3.6461 H         1 <0>         0.1168
     48 H15         5.8563   -3.3934   -0.4320 H         1 <0>         0.1002
     49 H16         6.6571   -2.5481   -1.7783 H         1 <0>         0.0963
     50 H17         5.7448   -0.3902   -0.9660 H         1 <0>         0.0946
     51 H18         4.9440   -1.2354    0.3802 H         1 <0>         0.0946
     52 H19         7.1495   -2.0155    1.2024 H         1 <0>         0.1123
     53 H20         7.9503   -1.1702   -0.1438 H         1 <0>         0.1212
     54 H21         8.8612    2.3090    2.4406 H         1 <0>         0.4515
     55 H22         8.7020   -1.6765    2.4806 H         1 <0>         0.4429
     56 H23         9.9972   -0.8803    3.1956 H         1 <0>         0.4324
     57 H24        10.0893    1.4265    3.1725 H         1 <0>         0.4339
@<TRIPOS>BOND
     1    1    2 1
     2    1   34 1
     3    1   35 1
     4    1   36 1
     5    2    6 1
     6    2    3 1
     7    3    4 2
     8    3   37 1
     9    4    5 1
    10    4   11 1
    11    5   10 ar
    12    5    6 ar
    13    6    7 ar
    14    7    8 ar
    15    7   38 1
    16    8    9 ar
    17    8   39 1
    18    9   10 ar
    19    9   40 1
    20   10   41 1
    21   11   16 1
    22   11   12 2
    23   12   13 1
    24   12   18 1
    25   13   14 2
    26   13   15 am
    27   15   16 am
    28   15   42 1
    29   16   17 2
    30   18   22 1
    31   18   19 2
    32   19   20 1
    33   19   43 1
    34   20   21 1
    35   20   27 1
    36   21   26 ar
    37   21   22 ar
    38   22   23 ar
    39   23   24 ar
    40   23   44 1
    41   24   25 ar
    42   24   45 1
    43   25   26 ar
    44   25   46 1
    45   26   47 1
    46   27   28 1
    47   27   48 1
    48   27   49 1
    49   28   29 1
    50   28   50 1
    51   28   51 1
    52   29   30 1
    53   29   52 1
    54   29   53 1
    55   30   31 1
    56   31   32 2
    57   31   33 1
    58   32   54 1
    59   32   57 1
    60   33   55 1
    61   33   56 1
