@<TRIPOS>MOLECULE
ZINC09225331
   33    35     0     0     0
SMALL
USER_CHARGES

@<TRIPOS>ATOM
      1 C1         -0.0167    1.3798    0.0096 C.ar      1 <0>        -0.0581
      2 C2          1.1667    2.0926    0.0022 C.ar      1 <0>        -0.1030
      3 C3          2.3779    1.4187   -0.0130 C.ar      1 <0>         0.1219
      4 C4          2.3969    0.0221   -0.0206 C.ar      1 <0>         0.0968
      5 C5          1.2044   -0.6845   -0.0134 C.ar      1 <0>        -0.0506
      6 C6          0.0021   -0.0041    0.0020 C.ar      1 <0>        -0.1719
      7 C7         -1.2945   -0.7720    0.0107 C.3       1 <0>         0.5140
      8 F1         -2.3678    0.1252    0.0262 F         1 <0>        -0.1734
      9 F2         -1.3710   -1.5710   -1.1352 F         1 <0>        -0.1740
     10 F3         -1.3484   -1.5832    1.1493 F         1 <0>        -0.1739
     11 N1          3.7357   -0.3622   -0.0354 N.am      1 <0>        -0.6363
     12 C8          4.4962    0.7488   -0.0367 C.2       1 <0>         0.6931
     13 N2          3.7066    1.8392   -0.0234 N.am      1 <0>        -0.4900
     14 C9          4.1463    3.1713   -0.0205 C.ar      1 <0>         0.1020
     15 C10         4.3811    3.8235    1.1810 C.ar      1 <0>        -0.0334
     16 C11         4.8142    5.1358    1.1815 C.ar      1 <0>        -0.1854
     17 C12         5.0144    5.8018   -0.0137 C.ar      1 <0>        -0.0338
     18 C13         4.7825    5.1583   -1.2151 C.ar      1 <0>        -0.1373
     19 C14         4.3537    3.8408   -1.2241 C.ar      1 <0>         0.1660
     20 O1          4.1309    3.2046   -2.4050 O.3       1 <0>        -0.4829
     21 C15         5.0684    5.8430    2.4877 C.3       1 <0>         0.5128
     22 F4          6.3994    5.6486    2.8720 F         1 <0>        -0.1709
     23 F5          4.8229    7.2115    2.3326 F         1 <0>        -0.1722
     24 F6          4.2187    5.3254    3.4713 F         1 <0>        -0.1741
     25 O2          5.7130    0.7649   -0.0479 O.2       1 <0>        -0.5271
     26 H1         -0.9604    1.9047    0.0260 H         1 <0>         0.1530
     27 H2          1.1481    3.1724    0.0077 H         1 <0>         0.1436
     28 H3          1.2150   -1.7644   -0.0196 H         1 <0>         0.1472
     29 H4          4.2252    3.3058    2.1160 H         1 <0>         0.1476
     30 H5          5.3526    6.8275   -0.0086 H         1 <0>         0.1521
     31 H6          4.9398    5.6813   -2.1468 H         1 <0>         0.1555
     32 H7          3.2275    3.2971   -2.7373 H         1 <0>         0.4007
     33 H8          4.0642   -1.2748   -0.0431 H         1 <0>         0.4422
@<TRIPOS>BOND
     1    1    6 ar
     2    1    2 ar
     3    1   26 1
     4    2    3 ar
     5    2   27 1
     6    3   13 1
     7    3    4 ar
     8    4    5 ar
     9    4   11 1
    10    5    6 ar
    11    5   28 1
    12    6    7 1
    13    7    8 1
    14    7    9 1
    15    7   10 1
    16   11   12 am
    17   11   33 1
    18   12   13 am
    19   12   25 2
    20   13   14 1
    21   14   19 ar
    22   14   15 ar
    23   15   16 ar
    24   15   29 1
    25   16   17 ar
    26   16   21 1
    27   17   18 ar
    28   17   30 1
    29   18   19 ar
    30   18   31 1
    31   19   20 1
    32   20   32 1
    33   21   22 1
    34   21   23 1
    35   21   24 1
@<TRIPOS>MOLECULE
ZINC09225331
   32    34     0     0     0
SMALL
USER_CHARGES

@<TRIPOS>ATOM
      1 C1         -0.0167    1.3798    0.0096 C.ar      1 <0>        -0.0640
      2 C2          1.1667    2.0926    0.0022 C.ar      1 <0>        -0.1003
      3 C3          2.3779    1.4187   -0.0130 C.ar      1 <0>         0.1537
      4 C4          2.3969    0.0221   -0.0206 C.ar      1 <0>         0.0792
      5 C5          1.2044   -0.6845   -0.0134 C.ar      1 <0>        -0.0563
      6 C6          0.0021   -0.0041    0.0020 C.ar      1 <0>        -0.1958
      7 C7         -1.2945   -0.7720    0.0107 C.3       1 <0>         0.5174
      8 F1         -2.3678    0.1252    0.0262 F         1 <0>        -0.1776
      9 F2         -1.3710   -1.5710   -1.1352 F         1 <0>        -0.1789
     10 F3         -1.3484   -1.5832    1.1493 F         1 <0>        -0.1799
     11 N1          3.7357   -0.3622   -0.0354 N.am      1 <0>        -0.6441
     12 C8          4.4962    0.7488   -0.0367 C.2       1 <0>         0.6852
     13 N2          3.7066    1.8392   -0.0234 N.am      1 <0>        -0.4421
     14 C9          4.1463    3.1713   -0.0205 C.ar      1 <0>        -0.0447
     15 C10         4.3811    3.8235    1.1810 C.ar      1 <0>         0.0074
     16 C11         4.8142    5.1358    1.1815 C.ar      1 <0>        -0.3216
     17 C12         5.0144    5.8018   -0.0137 C.ar      1 <0>        -0.0146
     18 C13         4.7825    5.1583   -1.2151 C.ar      1 <0>        -0.2473
     19 C14         4.3537    3.8408   -1.2241 C.ar      1 <0>         0.3058
     20 O1          4.1309    3.2046   -2.4050 O.3       1 <0>        -0.6842
     21 C15         5.0684    5.8430    2.4877 C.3       1 <0>         0.5208
     22 F4          6.3994    5.6486    2.8720 F         1 <0>        -0.1901
     23 F5          4.8229    7.2115    2.3326 F         1 <0>        -0.1886
     24 F6          4.2187    5.3254    3.4713 F         1 <0>        -0.1904
     25 O2          5.7130    0.7649   -0.0479 O.2       1 <0>        -0.5433
     26 H1         -0.9604    1.9047    0.0260 H         1 <0>         0.1440
     27 H2          1.1481    3.1724    0.0077 H         1 <0>         0.1422
     28 H3          1.2150   -1.7644   -0.0196 H         1 <0>         0.1369
     29 H4          4.2252    3.3058    2.1160 H         1 <0>         0.1105
     30 H5          5.3526    6.8275   -0.0086 H         1 <0>         0.1130
     31 H6          4.9398    5.6813   -2.1468 H         1 <0>         0.1162
     32 H7          4.0642   -1.2748   -0.0431 H         1 <0>         0.4317
@<TRIPOS>BOND
     1    1    6 ar
     2    1    2 ar
     3    1   26 1
     4    2    3 ar
     5    2   27 1
     6    3   13 1
     7    3    4 ar
     8    4    5 ar
     9    4   11 1
    10    5    6 ar
    11    5   28 1
    12    6    7 1
    13    7    8 1
    14    7    9 1
    15    7   10 1
    16   11   12 am
    17   11   32 1
    18   12   13 am
    19   12   25 2
    20   13   14 1
    21   14   19 ar
    22   14   15 ar
    23   15   16 ar
    24   15   29 1
    25   16   17 ar
    26   16   21 1
    27   17   18 ar
    28   17   30 1
    29   18   19 ar
    30   18   31 1
    31   19   20 1
    32   21   22 1
    33   21   23 1
    34   21   24 1
@<TRIPOS>MOLECULE
ZINC07078876
   30    31     0     0     0
SMALL
USER_CHARGES
N-(2-hydroxy-5-methyl-phenyl)benzamide
@<TRIPOS>ATOM
      1 C1          7.4994   -4.1327    0.0749 C.3       1 <0>        -0.1119
      2 C2          7.4131   -2.6283    0.0903 C.ar      1 <0>        -0.1090
      3 C3          8.5675   -1.8721    0.1776 C.ar      1 <0>        -0.0908
      4 C4          8.4946   -0.4916    0.1926 C.ar      1 <0>        -0.1420
      5 C5          7.2632    0.1384    0.1137 C.ar      1 <0>         0.1272
      6 C6          6.0994   -0.6229    0.0305 C.ar      1 <0>         0.0600
      7 C7          6.1805   -2.0079    0.0165 C.ar      1 <0>        -0.0832
      8 N1          4.8514    0.0082   -0.0446 N.am      1 <0>        -0.6810
      9 C8          3.7754   -0.5546    0.5401 C.2       1 <0>         0.5636
     10 O1          3.8699   -1.6483    1.0624 O.2       1 <0>        -0.5150
     11 C9          2.4803    0.1581    0.5464 C.ar      1 <0>        -0.1368
     12 C10         1.3639   -0.4220    1.1511 C.ar      1 <0>        -0.0575
     13 C11         0.1584    0.2486    1.1538 C.ar      1 <0>        -0.1247
     14 C12         0.0543    1.4933    0.5585 C.ar      1 <0>        -0.0902
     15 C13         1.1570    2.0739   -0.0427 C.ar      1 <0>        -0.1254
     16 C14         2.3686    1.4142   -0.0520 C.ar      1 <0>        -0.0877
     17 O2          7.1904    1.4961    0.1222 O.3       1 <0>        -0.5010
     18 H1          8.5535   -4.4402    0.1412 H         1 <0>         0.0662
     19 H2          7.0639   -4.5154   -0.8599 H         1 <0>         0.0680
     20 H3          6.9439   -4.5406    0.9322 H         1 <0>         0.0696
     21 H4          9.5287   -2.3612    0.2347 H         1 <0>         0.1305
     22 H5          9.3982    0.0960    0.2610 H         1 <0>         0.1333
     23 H6          5.2805   -2.6009   -0.0524 H         1 <0>         0.1410
     24 H7          4.7494    0.9632   -0.5808 H         1 <0>         0.4227
     25 H8          1.4437   -1.3938    1.6154 H         1 <0>         0.1375
     26 H9         -0.7062   -0.1990    1.6213 H         1 <0>         0.1328
     27 H10        -0.8930    2.0120    0.5591 H         1 <0>         0.1302
     28 H11         1.0690    3.0457   -0.5056 H         1 <0>         0.1319
     29 H12         3.2284    1.8683   -0.5219 H         1 <0>         0.1242
     30 H13         6.2120    1.9948    0.0595 H         1 <0>         0.4177
@<TRIPOS>BOND
     1    1    2 1
     2    1   18 1
     3    1   19 1
     4    1   20 1
     5    2    7 ar
     6    2    3 ar
     7    3    4 ar
     8    3   21 1
     9    4    5 ar
    10    4   22 1
    11    5    6 ar
    12    5   17 1
    13    6    7 ar
    14    6    8 1
    15    7   23 1
    16    8    9 am
    17    8   24 1
    18    9   10 2
    19    9   11 1
    20   11   16 ar
    21   11   12 ar
    22   12   13 ar
    23   12   25 1
    24   13   14 ar
    25   13   26 1
    26   14   15 ar
    27   14   27 1
    28   15   16 ar
    29   15   28 1
    30   16   29 1
    31   17   30 1
@<TRIPOS>MOLECULE
ZINC34162068
   31    32     0     0     0
SMALL
USER_CHARGES

@<TRIPOS>ATOM
      1 C1         -0.0145    1.4245    0.0407 C.3       1 <0>         0.0174
      2 O1          0.0042   -0.0043    0.0247 O.3       1 <0>        -0.2770
      3 C2         -1.1964   -0.6361    0.0364 C.ar      1 <0>         0.1970
      4 C3         -2.3711    0.1010    0.0568 C.ar      1 <0>        -0.2062
      5 C4         -3.5923   -0.5427    0.0685 C.ar      1 <0>        -0.0352
      6 C5         -3.6550   -1.9277    0.0597 C.ar      1 <0>        -0.0832
      7 C6         -2.4969   -2.6759    0.0394 C.ar      1 <0>        -0.0364
      8 C7         -1.2548   -2.0362    0.0220 C.ar      1 <0>        -0.1670
      9 C8         -0.0119   -2.8302   -0.0054 C.2       1 <0>         0.5638
     10 O2          1.0674   -2.2699   -0.0156 O.2       1 <0>        -0.4902
     11 N1         -0.0725   -4.1765   -0.0192 N.am      1 <0>        -0.6668
     12 C9          1.1025   -4.9291   -0.1398 C.ar      1 <0>         0.1376
     13 C10         2.2789   -4.4799    0.4425 C.ar      1 <0>        -0.1007
     14 C11         3.4376   -5.2252    0.3224 C.ar      1 <0>        -0.0244
     15 C12         3.4266   -6.4189   -0.3777 C.ar      1 <0>        -0.1085
     16 C13         2.2576   -6.8717   -0.9605 C.ar      1 <0>        -0.1124
     17 C14         1.0915   -6.1335   -0.8397 C.ar      1 <0>         0.0841
     18 O3         -0.0603   -6.5812   -1.4075 O.3       1 <0>        -0.4917
     19 Cl1         4.9092   -4.6618    1.0508 Cl        1 <0>        -0.0588
     20 Cl2        -5.1979   -2.7233    0.0747 Cl        1 <0>        -0.0573
     21 H1          1.0082    1.8014    0.0290 H         1 <0>         0.1080
     22 H2         -0.5467    1.7907   -0.8373 H         1 <0>         0.0604
     23 H3         -0.5192    1.7713    0.9424 H         1 <0>         0.0607
     24 H4         -2.3303    1.1802    0.0638 H         1 <0>         0.1485
     25 H5         -4.5041    0.0359    0.0851 H         1 <0>         0.1448
     26 H6         -2.5499   -3.7546    0.0333 H         1 <0>         0.1436
     27 H7         -0.9298   -4.6242    0.0543 H         1 <0>         0.4154
     28 H8          2.2899   -3.5484    0.9889 H         1 <0>         0.1564
     29 H9          4.3336   -6.9980   -0.4692 H         1 <0>         0.1408
     30 H10         2.2524   -7.8035   -1.5065 H         1 <0>         0.1445
     31 H11        -0.1937   -6.2797   -2.3166 H         1 <0>         0.3927
@<TRIPOS>BOND
     1    1    2 1
     2    1   21 1
     3    1   22 1
     4    1   23 1
     5    2    3 1
     6    3    8 ar
     7    3    4 ar
     8    4    5 ar
     9    4   24 1
    10    5    6 ar
    11    5   25 1
    12    6    7 ar
    13    6   20 1
    14    7    8 ar
    15    7   26 1
    16    8    9 1
    17    9   10 2
    18    9   11 am
    19   11   12 1
    20   11   27 1
    21   12   17 ar
    22   12   13 ar
    23   13   14 ar
    24   13   28 1
    25   14   15 ar
    26   14   19 1
    27   15   16 ar
    28   15   29 1
    29   16   17 ar
    30   16   30 1
    31   17   18 1
    32   18   31 1
@<TRIPOS>MOLECULE
ZINC20983598
   34    35     0     0     0
SMALL
USER_CHARGES
5-chloro-N-(2-hydroxy-5-methyl-phenyl)-2-methoxy-benzamide
@<TRIPOS>ATOM
      1 C1          3.5110    1.8885    1.2785 C.3       1 <0>        -0.1116
      2 C2          2.3017    1.2748    0.6212 C.ar      1 <0>        -0.1052
      3 C3          2.4005    0.0360    0.0149 C.ar      1 <0>        -0.0962
      4 C4          1.2946   -0.5321   -0.5897 C.ar      1 <0>        -0.1385
      5 C5          0.0830    0.1399   -0.5897 C.ar      1 <0>         0.1205
      6 C6         -0.0173    1.3880    0.0210 C.ar      1 <0>         0.0688
      7 C7          1.0968    1.9515    0.6261 C.ar      1 <0>        -0.0936
      8 N1         -1.2380    2.0746    0.0192 N.am      1 <0>        -0.6805
      9 C8         -1.2559    3.4178    0.1283 C.2       1 <0>         0.5672
     10 O1         -0.2122    4.0419    0.1269 O.2       1 <0>        -0.4906
     11 C9         -2.5415    4.1309    0.2494 C.ar      1 <0>        -0.1640
     12 C10        -3.7432    3.4183    0.2456 C.ar      1 <0>        -0.0387
     13 C11        -4.9413    4.0906    0.3639 C.ar      1 <0>        -0.0826
     14 C12        -4.9592    5.4724    0.4762 C.ar      1 <0>        -0.0370
     15 C13        -3.7787    6.1883    0.4759 C.ar      1 <0>        -0.2050
     16 C14        -2.5646    5.5275    0.3631 C.ar      1 <0>         0.1954
     17 O2         -1.4040    6.2303    0.3623 O.3       1 <0>        -0.2767
     18 C15        -1.5056    7.6507    0.4817 C.3       1 <0>         0.0140
     19 Cl1        -6.4337    3.2038    0.3663 Cl        1 <0>        -0.0577
     20 O3         -1.0054   -0.4172   -1.1847 O.3       1 <0>        -0.5005
     21 H1          4.3696    1.2089    1.1739 H         1 <0>         0.0657
     22 H2          3.3032    2.0553    2.3457 H         1 <0>         0.0677
     23 H3          3.7428    2.8493    0.7956 H         1 <0>         0.0695
     24 H4          3.3443   -0.4890    0.0132 H         1 <0>         0.1296
     25 H5          1.3752   -1.4998   -1.0624 H         1 <0>         0.1327
     26 H6          1.0226    2.9191    1.1001 H         1 <0>         0.1472
     27 H7         -2.1822    1.5176   -0.0713 H         1 <0>         0.4188
     28 H8         -3.7337    2.3422    0.1538 H         1 <0>         0.1410
     29 H9         -5.9020    5.9918    0.5639 H         1 <0>         0.1445
     30 H10        -3.8008    7.2645    0.5634 H         1 <0>         0.1482
     31 H11        -0.4985    8.0928    0.4675 H         1 <0>         0.1095
     32 H12        -2.0041    7.9043    1.4289 H         1 <0>         0.0613
     33 H13        -2.0925    8.0483   -0.3594 H         1 <0>         0.0613
     34 H14        -1.9667    0.1175   -1.1839 H         1 <0>         0.4157
@<TRIPOS>BOND
     1    1    2 1
     2    1   21 1
     3    1   22 1
     4    1   23 1
     5    2    7 ar
     6    2    3 ar
     7    3    4 ar
     8    3   24 1
     9    4    5 ar
    10    4   25 1
    11    5    6 ar
    12    5   20 1
    13    6    7 ar
    14    6    8 1
    15    7   26 1
    16    8    9 am
    17    8   27 1
    18    9   10 2
    19    9   11 1
    20   11   16 ar
    21   11   12 ar
    22   12   13 ar
    23   12   28 1
    24   13   14 ar
    25   13   19 1
    26   14   15 ar
    27   14   29 1
    28   15   16 ar
    29   15   30 1
    30   16   17 1
    31   17   18 1
    32   18   31 1
    33   18   32 1
    34   18   33 1
    35   20   34 1
@<TRIPOS>MOLECULE
ZINC20258786
   33    34     0     0     0
SMALL
USER_CHARGES
2-hydroxy-N-(2-methoxy-5-nitro-phenyl)benzamide
@<TRIPOS>ATOM
      1 C1         -1.2693   -0.6575   -0.0003 C.3       1 <0>         0.0185
      2 O1         -0.0027    0.0042   -0.0049 O.3       1 <0>        -0.3081
      3 C2         -0.0166    1.3639   -0.0042 C.ar      1 <0>         0.1478
      4 C3         -1.2224    2.0461   -0.0050 C.ar      1 <0>        -0.1872
      5 C4         -1.2348    3.4286    0.0016 C.ar      1 <0>        -0.0343
      6 C5         -0.0458    4.1345   -0.0026 C.ar      1 <0>        -0.0582
      7 C6          1.1613    3.4616   -0.0076 C.ar      1 <0>        -0.0427
      8 C7          1.1818    2.0744   -0.0084 C.ar      1 <0>         0.1379
      9 N1          2.4038    1.3902   -0.0130 N.am      1 <0>        -0.6751
     10 C8          3.5111    1.9851    0.4733 C.2       1 <0>         0.5632
     11 O2          3.4311    3.0747    1.0074 O.2       1 <0>        -0.4962
     12 C9          4.8199    1.3146    0.3578 C.ar      1 <0>        -0.1891
     13 C10         4.9154    0.0601   -0.2499 C.ar      1 <0>        -0.0434
     14 C11         6.1418   -0.5583   -0.3599 C.ar      1 <0>        -0.1724
     15 C12         7.2803    0.0530    0.1400 C.ar      1 <0>        -0.0453
     16 C13         7.1992    1.2899    0.7480 C.ar      1 <0>        -0.2252
     17 C14         5.9738    1.9295    0.8621 C.ar      1 <0>         0.2227
     18 O3          5.8926    3.1447    1.4597 O.3       1 <0>        -0.4738
     19 N2         -0.0660    5.6146   -0.0023 N.pl3     1 <0>         0.0332
     20 O4          0.9804    6.2379   -0.0064 O.2       1 <0>        -0.1547
     21 O5         -1.1290    6.2091    0.0021 O.3       1 <0>        -0.1635
     22 H1         -1.1141   -1.7465   -0.0014 H         1 <0>         0.1117
     23 H2         -1.8379   -0.3672   -0.8961 H         1 <0>         0.0651
     24 H3         -1.8309   -0.3681    0.9002 H         1 <0>         0.0649
     25 H4         -2.1529    1.4978   -0.0066 H         1 <0>         0.1568
     26 H5         -2.1758    3.9586    0.0055 H         1 <0>         0.1581
     27 H6          2.0884    4.0155   -0.0113 H         1 <0>         0.1819
     28 H7          2.4599    0.3672   -0.4135 H         1 <0>         0.4414
     29 H8          4.0299   -0.4223   -0.6367 H         1 <0>         0.1306
     30 H9          6.2153   -1.5260   -0.8338 H         1 <0>         0.1323
     31 H10         8.2367   -0.4412    0.0538 H         1 <0>         0.1316
     32 H11         8.0911    1.7598    1.1354 H         1 <0>         0.1364
     33 H12         6.7999    3.6251    1.8547 H         1 <0>         0.4352
@<TRIPOS>BOND
     1    1    2 1
     2    1   22 1
     3    1   23 1
     4    1   24 1
     5    2    3 1
     6    3    8 ar
     7    3    4 ar
     8    4    5 ar
     9    4   25 1
    10    5    6 ar
    11    5   26 1
    12    6    7 ar
    13    6   19 1
    14    7    8 ar
    15    7   27 1
    16    8    9 1
    17    9   10 am
    18    9   28 1
    19   10   11 2
    20   10   12 1
    21   12   17 ar
    22   12   13 ar
    23   13   14 ar
    24   13   29 1
    25   14   15 ar
    26   14   30 1
    27   15   16 ar
    28   15   31 1
    29   16   17 ar
    30   16   32 1
    31   17   18 1
    32   18   33 1
    33   19   20 2
    34   19   21 1
@<TRIPOS>MOLECULE
ZINC40848866
   28    29     0     0     0
SMALL
USER_CHARGES

@<TRIPOS>ATOM
      1 C1         -0.0147    1.3831    0.0506 C.ar      1 <0>        -0.0610
      2 C2          1.1673    2.0972    0.0396 C.ar      1 <0>        -0.1411
      3 C3          2.3825    1.4300    0.0134 C.ar      1 <0>         0.1815
      4 C4          2.4058    0.0286   -0.0019 C.ar      1 <0>        -0.1599
      5 C5          1.2035   -0.6822    0.0095 C.ar      1 <0>        -0.0608
      6 C6          0.0034   -0.0027    0.0356 C.ar      1 <0>        -0.0546
      7 Cl1        -1.4905   -0.8869    0.0498 Cl        1 <0>        -0.0532
      8 C7          3.6929   -0.6915   -0.0303 C.2       1 <0>         0.5619
      9 O1          4.7377   -0.0693   -0.0405 O.2       1 <0>        -0.4928
     10 N1          3.7110   -2.0391   -0.0449 N.am      1 <0>        -0.6648
     11 C8          4.9278   -2.7219   -0.1664 C.ar      1 <0>         0.1348
     12 C9          6.0763   -2.2051    0.4156 C.ar      1 <0>        -0.1001
     13 C10         7.2765   -2.8812    0.2941 C.ar      1 <0>        -0.0247
     14 C11         7.3349   -4.0729   -0.4070 C.ar      1 <0>        -0.1071
     15 C12         6.1940   -4.5930   -0.9893 C.ar      1 <0>        -0.1120
     16 C13         4.9868   -3.9244   -0.8671 C.ar      1 <0>         0.0854
     17 O2          3.8627   -4.4384   -1.4344 O.3       1 <0>        -0.4918
     18 Cl2         8.7131   -2.2334    1.0223 Cl        1 <0>        -0.0576
     19 O3          3.5443    2.1308    0.0021 O.3       1 <0>        -0.4737
     20 H1         -0.9585    1.9075    0.0756 H         1 <0>         0.1468
     21 H2          1.1452    3.1769    0.0511 H         1 <0>         0.1504
     22 H3          1.2134   -1.7621   -0.0025 H         1 <0>         0.1411
     23 H4          2.8812   -2.5361    0.0287 H         1 <0>         0.4162
     24 H5          6.0331   -1.2751    0.9630 H         1 <0>         0.1558
     25 H6          8.2742   -4.5977   -0.4999 H         1 <0>         0.1416
     26 H7          6.2430   -5.5230   -1.5361 H         1 <0>         0.1452
     27 H8          3.7112   -4.1446   -2.3432 H         1 <0>         0.3933
     28 H9          3.8951    2.3249    0.8821 H         1 <0>         0.4017
@<TRIPOS>BOND
     1    1    6 ar
     2    1    2 ar
     3    1   20 1
     4    2    3 ar
     5    2   21 1
     6    3    4 ar
     7    3   19 1
     8    4    5 ar
     9    4    8 1
    10    5    6 ar
    11    5   22 1
    12    6    7 1
    13    8    9 2
    14    8   10 am
    15   10   11 1
    16   10   23 1
    17   11   16 ar
    18   11   12 ar
    19   12   13 ar
    20   12   24 1
    21   13   14 ar
    22   13   18 1
    23   14   15 ar
    24   14   25 1
    25   15   16 ar
    26   15   26 1
    27   16   17 1
    28   17   27 1
    29   19   28 1
@<TRIPOS>MOLECULE
ZINC05548804
   32    33     0     0     0
SMALL
USER_CHARGES
2-hydroxy-N-(2-methyl-6-nitro-phenyl)-benzamide
@<TRIPOS>ATOM
      1 C1          3.4722    3.3897    0.6593 C.3       1 <0>        -0.1113
      2 C2          3.5464    1.9549    0.2047 C.ar      1 <0>        -0.0783
      3 C3          4.7288    1.2512    0.3267 C.ar      1 <0>        -0.0536
      4 C4          4.7994   -0.0635   -0.0954 C.ar      1 <0>        -0.1188
      5 C5          3.6856   -0.6801   -0.6360 C.ar      1 <0>        -0.0485
      6 C6          2.4992    0.0160   -0.7560 C.ar      1 <0>        -0.0586
      7 C7          2.4249    1.3371   -0.3329 C.ar      1 <0>         0.2122
      8 N1          1.2249    2.0451   -0.4534 N.am      1 <0>        -0.6734
      9 C8          0.6878    2.6494    0.6250 C.2       1 <0>         0.5669
     10 O1          1.2094    2.5220    1.7160 O.2       1 <0>        -0.4973
     11 C9         -0.5360    3.4604    0.4827 C.ar      1 <0>        -0.1722
     12 C10        -1.1354    3.6142   -0.7700 C.ar      1 <0>        -0.0640
     13 C11        -2.2813    4.3690   -0.8953 C.ar      1 <0>        -0.1356
     14 C12        -2.8371    4.9854    0.2141 C.ar      1 <0>        -0.0691
     15 C13        -2.2522    4.8460    1.4569 C.ar      1 <0>        -0.1567
     16 C14        -1.1012    4.0859    1.6024 C.ar      1 <0>         0.1740
     17 O2         -0.5249    3.9488    2.8227 O.3       1 <0>        -0.4776
     18 N2          1.3076   -0.6448   -1.3343 N.pl3     1 <0>         0.0355
     19 O3          1.3437   -1.8299   -1.6133 O.2       1 <0>        -0.1529
     20 O4          0.2909   -0.0036   -1.5311 O.3       1 <0>        -0.1692
     21 H1          3.2973    3.4216    1.7347 H         1 <0>         0.0927
     22 H2          4.4112    3.8930    0.4288 H         1 <0>         0.0748
     23 H3          2.6543    3.8925    0.1431 H         1 <0>         0.0631
     24 H4          5.6003    1.7299    0.7484 H         1 <0>         0.1485
     25 H5          5.7261   -0.6103   -0.0023 H         1 <0>         0.1521
     26 H6          3.7439   -1.7073   -0.9644 H         1 <0>         0.1584
     27 H7          0.7791    2.1013   -1.3130 H         1 <0>         0.4208
     28 H8         -0.7033    3.1389   -1.6382 H         1 <0>         0.1318
     29 H9         -2.7459    4.4842   -1.8634 H         1 <0>         0.1357
     30 H10        -3.7331    5.5786    0.1060 H         1 <0>         0.1352
     31 H11        -2.6912    5.3299    2.3169 H         1 <0>         0.1388
     32 H12         0.1348    4.6264    3.0245 H         1 <0>         0.3963
@<TRIPOS>BOND
     1    1    2 1
     2    1   21 1
     3    1   22 1
     4    1   23 1
     5    2    7 ar
     6    2    3 ar
     7    3    4 ar
     8    3   24 1
     9    4    5 ar
    10    4   25 1
    11    5    6 ar
    12    5   26 1
    13    6    7 ar
    14    6   18 1
    15    7    8 1
    16    8    9 am
    17    8   27 1
    18    9   10 2
    19    9   11 1
    20   11   16 ar
    21   11   12 ar
    22   12   13 ar
    23   12   28 1
    24   13   14 ar
    25   13   29 1
    26   14   15 ar
    27   14   30 1
    28   15   16 ar
    29   15   31 1
    30   16   17 1
    31   17   32 1
    32   18   19 2
    33   18   20 1
@<TRIPOS>MOLECULE
ZINC04014141
   33    34     0     0     0
SMALL
USER_CHARGES
5-chloro-2-hydroxy-N-(2-methoxy-4-nitro-phenyl)-benzamide
@<TRIPOS>ATOM
      1 C1          2.2055    5.3050    0.0197 C.3       1 <0>         0.0215
      2 O1          2.3112    3.8799    0.0076 O.3       1 <0>        -0.3099
      3 C2          1.1488    3.1745    0.0213 C.ar      1 <0>         0.1018
      4 C3         -0.0666    3.8391    0.0462 C.ar      1 <0>        -0.1275
      5 C4         -1.2475    3.1205    0.0601 C.ar      1 <0>        -0.0272
      6 C5         -1.2204    1.7381    0.0448 C.ar      1 <0>        -0.0596
      7 C6         -0.0122    1.0675    0.0252 C.ar      1 <0>        -0.0999
      8 C7          1.1771    1.7817    0.0107 C.ar      1 <0>         0.1809
      9 N1          2.4027    1.1044   -0.0140 N.am      1 <0>        -0.6589
     10 C8          2.4720   -0.1453   -0.5138 C.2       1 <0>         0.5661
     11 O2          1.4944   -0.6470   -1.0347 O.2       1 <0>        -0.4884
     12 C9          3.7339   -0.9047   -0.4290 C.ar      1 <0>        -0.1626
     13 C10         4.8612   -0.3299    0.1635 C.ar      1 <0>        -0.0598
     14 C11         6.0360   -1.0473    0.2447 C.ar      1 <0>        -0.0545
     15 C12         6.1070   -2.3327   -0.2700 C.ar      1 <0>        -0.0585
     16 C13         5.0015   -2.9096   -0.8625 C.ar      1 <0>        -0.1406
     17 C14         3.8103   -2.2043   -0.9474 C.ar      1 <0>         0.1842
     18 O3          2.7237   -2.7702   -1.5304 O.3       1 <0>        -0.4740
     19 Cl1         7.4340   -0.3354    0.9879 Cl        1 <0>        -0.0519
     20 N2         -2.5448    3.8330    0.0862 N.pl3     1 <0>         0.0297
     21 O4         -2.5707    5.0507    0.0954 O.2       1 <0>        -0.1623
     22 O5         -3.5862    3.2016    0.0984 O.3       1 <0>        -0.1527
     23 H1          1.6806    5.6228    0.9206 H         1 <0>         0.0636
     24 H2          3.2033    5.7435    0.0067 H         1 <0>         0.1113
     25 H3          1.6519    5.6357   -0.8591 H         1 <0>         0.0634
     26 H4         -0.0914    4.9188    0.0544 H         1 <0>         0.1634
     27 H5         -2.1456    1.1810    0.0519 H         1 <0>         0.1617
     28 H6          0.0061   -0.0124    0.0167 H         1 <0>         0.1772
     29 H7          3.2017    1.5347    0.3286 H         1 <0>         0.4203
     30 H8          4.8113    0.6731    0.5609 H         1 <0>         0.1410
     31 H9          7.0323   -2.8860   -0.2067 H         1 <0>         0.1477
     32 H10         5.0645   -3.9115   -1.2609 H         1 <0>         0.1515
     33 H11         2.6581   -2.6077   -2.4814 H         1 <0>         0.4027
@<TRIPOS>BOND
     1    1    2 1
     2    1   23 1
     3    1   24 1
     4    1   25 1
     5    2    3 1
     6    3    8 ar
     7    3    4 ar
     8    4    5 ar
     9    4   26 1
    10    5    6 ar
    11    5   20 1
    12    6    7 ar
    13    6   27 1
    14    7    8 ar
    15    7   28 1
    16    8    9 1
    17    9   10 am
    18    9   29 1
    19   10   11 2
    20   10   12 1
    21   12   17 ar
    22   12   13 ar
    23   13   14 ar
    24   13   30 1
    25   14   15 ar
    26   14   19 1
    27   15   16 ar
    28   15   31 1
    29   16   17 ar
    30   16   32 1
    31   17   18 1
    32   18   33 1
    33   20   21 2
    34   20   22 1
@<TRIPOS>MOLECULE
ZINC05771119
   27    29     0     0     0
SMALL
USER_CHARGES
benzotriazol-1-yl-(2-hydroxyphenyl)-methanone
@<TRIPOS>ATOM
      1 C1          0.0030   -0.0044    0.0098 C.ar      1 <0>        -0.1416
      2 C2          1.2085   -0.6871   -0.0232 C.ar      1 <0>        -0.0596
      3 C3          2.4030    0.0048   -0.0454 C.ar      1 <0>        -0.1624
      4 C4          2.4036    1.3917   -0.0349 C.ar      1 <0>         0.1804
      5 C5          1.1860    2.0866   -0.0015 C.ar      1 <0>        -0.1875
      6 C6         -0.0159    1.3730    0.0207 C.ar      1 <0>        -0.0609
      7 C7          1.1735    3.5600    0.0095 C.2       1 <0>         0.5974
      8 O1          2.2174    4.1758    0.0974 O.2       1 <0>        -0.4534
      9 N1          0.0043    4.2247   -0.0780 N.am      1 <0>        -0.3949
     10 C8         -0.1631    5.5908   -0.1798 C.ar      1 <0>         0.0982
     11 C9          0.7112    6.6694   -0.2246 C.ar      1 <0>        -0.1102
     12 C10         0.2117    7.9489   -0.3318 C.ar      1 <0>        -0.0562
     13 C11        -1.1583    8.1657   -0.3952 C.ar      1 <0>        -0.1252
     14 C12        -2.0326    7.1188   -0.3530 C.ar      1 <0>        -0.0280
     15 C13        -1.5495    5.8090   -0.2443 C.ar      1 <0>        -0.0227
     16 N2         -2.1579    4.6000   -0.1810 N.2       1 <0>        -0.1680
     17 N3         -1.2811    3.6633   -0.0894 N.2       1 <0>         0.0068
     18 O2          3.5764    2.0728   -0.0572 O.3       1 <0>        -0.4799
     19 H1         -0.9261   -0.5548    0.0266 H         1 <0>         0.1379
     20 H2          1.2136   -1.7670   -0.0319 H         1 <0>         0.1368
     21 H3          3.3382   -0.5347   -0.0714 H         1 <0>         0.1411
     22 H4         -0.9580    1.9007    0.0419 H         1 <0>         0.1687
     23 H5          1.7776    6.5057   -0.1755 H         1 <0>         0.1470
     24 H6          0.8900    8.7886   -0.3664 H         1 <0>         0.1460
     25 H7         -1.5361    9.1740   -0.4791 H         1 <0>         0.1453
     26 H8         -3.0961    7.3002   -0.4038 H         1 <0>         0.1469
     27 H9          3.8958    2.2770   -0.9468 H         1 <0>         0.3979
@<TRIPOS>BOND
     1    1    6 ar
     2    1    2 ar
     3    1   19 1
     4    2    3 ar
     5    2   20 1
     6    3    4 ar
     7    3   21 1
     8    4    5 ar
     9    4   18 1
    10    5    6 ar
    11    5    7 1
    12    6   22 1
    13    7    8 2
    14    7    9 am
    15    9   17 1
    16    9   10 1
    17   10   15 ar
    18   10   11 ar
    19   11   12 ar
    20   11   23 1
    21   12   13 ar
    22   12   24 1
    23   13   14 ar
    24   13   25 1
    25   14   15 ar
    26   14   26 1
    27   15   16 1
    28   16   17 2
    29   18   27 1
@<TRIPOS>MOLECULE
ZINC03896289
   29    30     0     0     0
SMALL
USER_CHARGES
2-hydroxy-N-(2-nitrophenyl)-benzamide
@<TRIPOS>ATOM
      1 C1         -5.9685    2.2445    0.2309 C.ar      1 <0>        -0.1358
      2 C2         -7.1665    1.5828    0.4465 C.ar      1 <0>        -0.0678
      3 C3         -7.1829    0.2183    0.6560 C.ar      1 <0>        -0.1573
      4 C4         -5.9965   -0.5002    0.6513 C.ar      1 <0>         0.1750
      5 C5         -4.7825    0.1654    0.4332 C.ar      1 <0>        -0.1748
      6 C6         -4.7800    1.5474    0.2283 C.ar      1 <0>        -0.0623
      7 C7         -3.5144   -0.5880    0.4259 C.2       1 <0>         0.5681
      8 O1         -3.5202   -1.7900    0.6096 O.2       1 <0>        -0.4988
      9 N1         -2.3492    0.0560    0.2158 N.am      1 <0>        -0.6711
     10 C8         -1.1605   -0.6709    0.0945 C.ar      1 <0>         0.2201
     11 C9         -0.9007   -1.7290    0.9562 C.ar      1 <0>        -0.1195
     12 C10         0.2765   -2.4410    0.8375 C.ar      1 <0>        -0.0464
     13 C11         1.1942   -2.1046   -0.1410 C.ar      1 <0>        -0.1294
     14 C12         0.9365   -1.0550   -1.0033 C.ar      1 <0>        -0.0392
     15 C13        -0.2392   -0.3388   -0.8899 C.ar      1 <0>        -0.0731
     16 N2         -0.5138    0.7854   -1.8129 N.pl3     1 <0>         0.0373
     17 O2          0.3100    1.0982   -2.6537 O.2       1 <0>        -0.1489
     18 O3         -1.5657    1.3944   -1.7348 O.3       1 <0>        -0.1779
     19 O4         -6.0110   -1.8409    0.8575 O.3       1 <0>        -0.4782
     20 H1         -5.9658    3.3123    0.0687 H         1 <0>         0.1365
     21 H2         -8.0930    2.1378    0.4511 H         1 <0>         0.1356
     22 H3         -8.1207   -0.2903    0.8240 H         1 <0>         0.1392
     23 H4         -3.8481    2.0681    0.0643 H         1 <0>         0.1340
     24 H5         -2.3351    1.0235    0.1486 H         1 <0>         0.4225
     25 H6         -1.6168   -1.9919    1.7208 H         1 <0>         0.1559
     26 H7          0.4809   -3.2612    1.5097 H         1 <0>         0.1491
     27 H8          2.1143   -2.6628   -0.2316 H         1 <0>         0.1512
     28 H9          1.6553   -0.7946   -1.7661 H         1 <0>         0.1589
     29 H10        -5.9318   -2.0969    1.7866 H         1 <0>         0.3971
@<TRIPOS>BOND
     1    1    6 ar
     2    1    2 ar
     3    1   20 1
     4    2    3 ar
     5    2   21 1
     6    3    4 ar
     7    3   22 1
     8    4    5 ar
     9    4   19 1
    10    5    6 ar
    11    5    7 1
    12    6   23 1
    13    7    8 2
    14    7    9 am
    15    9   10 1
    16    9   24 1
    17   10   15 ar
    18   10   11 ar
    19   11   12 ar
    20   11   25 1
    21   12   13 ar
    22   12   26 1
    23   13   14 ar
    24   13   27 1
    25   14   15 ar
    26   14   28 1
    27   15   16 1
    28   16   17 2
    29   16   18 1
    30   19   29 1
@<TRIPOS>MOLECULE
ZINC04196753
   34    35     0     0     0
SMALL
USER_CHARGES

@<TRIPOS>ATOM
      1 C1         -0.0206    1.5282   -0.0149 C.3       1 <0>        -0.1512
      2 C2          0.0008   -0.0016   -0.0288 C.3       1 <0>         0.0480
      3 O1         -1.3395   -0.4968   -0.0106 O.3       1 <0>        -0.2804
      4 C3         -1.4985   -1.8440   -0.0198 C.ar      1 <0>         0.1940
      5 C4         -0.3891   -2.6763   -0.0401 C.ar      1 <0>        -0.2208
      6 C5         -0.5524   -4.0472   -0.0490 C.ar      1 <0>        -0.0451
      7 C6         -1.8219   -4.6019   -0.0383 C.ar      1 <0>        -0.1665
      8 C7         -2.9351   -3.7902   -0.0182 C.ar      1 <0>        -0.0456
      9 C8         -2.7843   -2.4013   -0.0031 C.ar      1 <0>        -0.1805
     10 C9         -3.9717   -1.5264    0.0241 C.2       1 <0>         0.5613
     11 O2         -3.8364   -0.3179    0.0321 O.2       1 <0>        -0.4940
     12 N1         -5.2064   -2.0664    0.0401 N.am      1 <0>        -0.6682
     13 C10        -6.3307   -1.2400    0.1605 C.ar      1 <0>         0.1396
     14 C11        -6.3346    0.0183   -0.4238 C.ar      1 <0>        -0.1014
     15 C12        -7.4462    0.8322   -0.3039 C.ar      1 <0>        -0.0240
     16 C13        -8.5554    0.3944    0.3981 C.ar      1 <0>        -0.1101
     17 C14        -8.5576   -0.8582    0.9830 C.ar      1 <0>        -0.1124
     18 C15        -7.4500   -1.6816    0.8624 C.ar      1 <0>         0.0820
     19 O3         -7.4535   -2.9164    1.4324 O.3       1 <0>        -0.4920
     20 Cl1        -7.4497    2.4068   -1.0350 Cl        1 <0>        -0.0596
     21 H1          1.0018    1.9060   -0.0287 H         1 <0>         0.0790
     22 H2         -0.5543    1.8921   -0.8928 H         1 <0>         0.0683
     23 H3         -0.5244    1.8764    0.8869 H         1 <0>         0.0680
     24 H4          0.5046   -0.3497   -0.9305 H         1 <0>         0.0641
     25 H5          0.5345   -0.3655    0.8491 H         1 <0>         0.0638
     26 H6          0.6038   -2.2514   -0.0493 H         1 <0>         0.1371
     27 H7          0.3146   -4.6909   -0.0648 H         1 <0>         0.1329
     28 H8         -1.9395   -5.6755   -0.0462 H         1 <0>         0.1335
     29 H9         -3.9228   -4.2271   -0.0099 H         1 <0>         0.1328
     30 H10        -5.3164   -3.0275   -0.0317 H         1 <0>         0.4149
     31 H11        -5.4698    0.3622   -0.9718 H         1 <0>         0.1562
     32 H12        -9.4216    1.0331    0.4895 H         1 <0>         0.1404
     33 H13        -9.4248   -1.1968    1.5305 H         1 <0>         0.1439
     34 H14        -7.1232   -2.9310    2.3411 H         1 <0>         0.3921
@<TRIPOS>BOND
     1    1    2 1
     2    1   21 1
     3    1   22 1
     4    1   23 1
     5    2    3 1
     6    2   24 1
     7    2   25 1
     8    3    4 1
     9    4    9 ar
    10    4    5 ar
    11    5    6 ar
    12    5   26 1
    13    6    7 ar
    14    6   27 1
    15    7    8 ar
    16    7   28 1
    17    8    9 ar
    18    8   29 1
    19    9   10 1
    20   10   11 2
    21   10   12 am
    22   12   13 1
    23   12   30 1
    24   13   18 ar
    25   13   14 ar
    26   14   15 ar
    27   14   31 1
    28   15   16 ar
    29   15   20 1
    30   16   17 ar
    31   16   32 1
    32   17   18 ar
    33   17   33 1
    34   18   19 1
    35   19   34 1
@<TRIPOS>MOLECULE
ZINC05212444
   32    33     0     0     0
SMALL
USER_CHARGES
2-hydroxy-N-(4-methyl-2-nitro-phenyl)-benzamide
@<TRIPOS>ATOM
      1 C1         -2.5793    3.9463   -0.0178 C.3       1 <0>        -0.1152
      2 C2         -1.2670    3.2055   -0.0146 C.ar      1 <0>        -0.0984
      3 C3         -1.1660    1.9780   -0.6439 C.ar      1 <0>        -0.0457
      4 C4          0.0336    1.2940   -0.6379 C.ar      1 <0>        -0.1222
      5 C5          1.1426    1.8453   -0.0087 C.ar      1 <0>         0.2173
      6 C6          1.0393    3.0806    0.6173 C.ar      1 <0>        -0.0730
      7 C7         -0.1650    3.7570    0.6125 C.ar      1 <0>        -0.0397
      8 N1          2.2183    3.6715    1.2893 N.pl3     1 <0>         0.0404
      9 O1          2.1058    4.7111    1.9139 O.2       1 <0>        -0.1441
     10 O2          3.3010    3.1182    1.2177 O.3       1 <0>        -0.1866
     11 N2          2.3603    1.1576   -0.0054 N.am      1 <0>        -0.6685
     12 C8          2.3744   -0.1876    0.0773 C.2       1 <0>         0.5657
     13 O3          1.3288   -0.8082    0.0675 O.2       1 <0>        -0.4975
     14 C9          3.6581   -0.9068    0.1795 C.ar      1 <0>        -0.1761
     15 C10         4.8622   -0.1980    0.1852 C.ar      1 <0>        -0.0639
     16 C11         6.0577   -0.8756    0.2853 C.ar      1 <0>        -0.1354
     17 C12         6.0725   -2.2584    0.3703 C.ar      1 <0>        -0.0675
     18 C13         4.8904   -2.9715    0.3609 C.ar      1 <0>        -0.1571
     19 C14         3.6774   -2.3056    0.2657 C.ar      1 <0>         0.1754
     20 O4          2.5151   -3.0050    0.2554 O.3       1 <0>        -0.4781
     21 H1         -2.6303    4.5912   -0.8950 H         1 <0>         0.0796
     22 H2         -3.4007    3.2302   -0.0450 H         1 <0>         0.0765
     23 H3         -2.6561    4.5532    0.8844 H         1 <0>         0.0749
     24 H4         -2.0274    1.5520   -1.1367 H         1 <0>         0.1483
     25 H5          0.1106    0.3335   -1.1256 H         1 <0>         0.1629
     26 H6         -0.2459    4.7179    1.0989 H         1 <0>         0.1582
     27 H7          3.1948    1.6487   -0.0625 H         1 <0>         0.4251
     28 H8          4.8556    0.8797    0.1150 H         1 <0>         0.1350
     29 H9          6.9877   -0.3266    0.2931 H         1 <0>         0.1369
     30 H10         7.0145   -2.7816    0.4440 H         1 <0>         0.1359
     31 H11         4.9101   -4.0493    0.4275 H         1 <0>         0.1395
     32 H12         2.2182   -3.2614   -0.6284 H         1 <0>         0.3973
@<TRIPOS>BOND
     1    1    2 1
     2    1   21 1
     3    1   22 1
     4    1   23 1
     5    2    7 ar
     6    2    3 ar
     7    3    4 ar
     8    3   24 1
     9    4    5 ar
    10    4   25 1
    11    5    6 ar
    12    5   11 1
    13    6    7 ar
    14    6    8 1
    15    7   26 1
    16    8    9 2
    17    8   10 1
    18   11   12 am
    19   11   27 1
    20   12   13 2
    21   12   14 1
    22   14   19 ar
    23   14   15 ar
    24   15   16 ar
    25   15   28 1
    26   16   17 ar
    27   16   29 1
    28   17   18 ar
    29   17   30 1
    30   18   19 ar
    31   18   31 1
    32   19   20 1
    33   20   32 1
@<TRIPOS>MOLECULE
ZINC38536757
   33    34     0     0     0
SMALL
USER_CHARGES

@<TRIPOS>ATOM
      1 C1         -0.0198    1.4252   -0.0079 C.3       1 <0>         0.0217
      2 O1          0.0006   -0.0037   -0.0096 O.3       1 <0>        -0.3103
      3 C2          0.5978   -0.6112   -1.0694 C.ar      1 <0>         0.0999
      4 C3          1.1567    0.1509   -2.0824 C.ar      1 <0>        -0.1273
      5 C4          1.7635   -0.4682   -3.1593 C.ar      1 <0>        -0.0337
      6 C5          1.8144   -1.8483   -3.2297 C.ar      1 <0>        -0.0594
      7 C6          1.2588   -2.6159   -2.2237 C.ar      1 <0>        -0.1010
      8 C7          0.6541   -2.0016   -1.1365 C.ar      1 <0>         0.1823
      9 N1          0.0959   -2.7773   -0.1126 N.am      1 <0>        -0.6598
     10 C8          0.5453   -4.0289    0.1060 C.2       1 <0>         0.5636
     11 O2          1.5014   -4.4491   -0.5170 O.2       1 <0>        -0.4931
     12 C9         -0.1225   -4.8892    1.1009 C.ar      1 <0>        -0.1757
     13 C10        -1.2249   -4.4125    1.8148 C.ar      1 <0>        -0.0681
     14 C11        -1.8442   -5.2210    2.7428 C.ar      1 <0>        -0.1360
     15 C12        -1.3787   -6.5056    2.9723 C.ar      1 <0>        -0.0675
     16 C13        -0.2904   -6.9892    2.2738 C.ar      1 <0>        -0.1553
     17 C14         0.3414   -6.1914    1.3315 C.ar      1 <0>         0.1773
     18 O3          1.4072   -6.6674    0.6401 O.3       1 <0>        -0.4780
     19 N2          2.3599    0.3484   -4.2402 N.pl3     1 <0>         0.0359
     20 O4          2.3161    1.5551   -4.1806 O.2       1 <0>        -0.1619
     21 O5          2.8910   -0.1913   -5.1828 O.3       1 <0>        -0.1528
     22 H1          1.0024    1.8032   -0.0244 H         1 <0>         0.0631
     23 H2         -0.5535    1.7820   -0.8888 H         1 <0>         0.0633
     24 H3         -0.5241    1.7803    0.8909 H         1 <0>         0.1108
     25 H4          1.1181    1.2290   -2.0309 H         1 <0>         0.1627
     26 H5          2.2891   -2.3275   -4.0731 H         1 <0>         0.1610
     27 H6          1.2997   -3.6935   -2.2814 H         1 <0>         0.1768
     28 H7         -0.6141   -2.4136    0.4392 H         1 <0>         0.4199
     29 H8         -1.5908   -3.4115    1.6398 H         1 <0>         0.1304
     30 H9         -2.6963   -4.8516    3.2942 H         1 <0>         0.1359
     31 H10        -1.8698   -7.1322    3.7020 H         1 <0>         0.1362
     32 H11         0.0666   -7.9917    2.4583 H         1 <0>         0.1403
     33 H12         2.2589   -6.5010    1.0667 H         1 <0>         0.3991
@<TRIPOS>BOND
     1    1    2 1
     2    1   22 1
     3    1   23 1
     4    1   24 1
     5    2    3 1
     6    3    8 ar
     7    3    4 ar
     8    4    5 ar
     9    4   25 1
    10    5    6 ar
    11    5   19 1
    12    6    7 ar
    13    6   26 1
    14    7    8 ar
    15    7   27 1
    16    8    9 1
    17    9   10 am
    18    9   28 1
    19   10   11 2
    20   10   12 1
    21   12   17 ar
    22   12   13 ar
    23   13   14 ar
    24   13   29 1
    25   14   15 ar
    26   14   30 1
    27   15   16 ar
    28   15   31 1
    29   16   17 ar
    30   16   32 1
    31   17   18 1
    32   18   33 1
    33   19   20 2
    34   19   21 1
@<TRIPOS>MOLECULE
ZINC04300057
   32    33     0     0     0
SMALL
USER_CHARGES
2-hydroxy-N-[2-nitro-4-(trifluoromethyl)phenyl]-benzamide
@<TRIPOS>ATOM
      1 C1          6.0577   -0.8756    0.2853 C.ar      1 <0>        -0.1349
      2 C2          6.0725   -2.2584    0.3703 C.ar      1 <0>        -0.0650
      3 C3          4.8904   -2.9715    0.3609 C.ar      1 <0>        -0.1567
      4 C4          3.6774   -2.3056    0.2657 C.ar      1 <0>         0.1778
      5 C5          3.6581   -0.9068    0.1795 C.ar      1 <0>        -0.1786
      6 C6          4.8622   -0.1980    0.1852 C.ar      1 <0>        -0.0631
      7 C7          2.3744   -0.1876    0.0773 C.2       1 <0>         0.5677
      8 O1          1.3288   -0.8082    0.0675 O.2       1 <0>        -0.4915
      9 N1          2.3603    1.1576   -0.0054 N.am      1 <0>        -0.6683
     10 C8          1.1426    1.8453   -0.0087 C.ar      1 <0>         0.2565
     11 C9          0.0336    1.2940   -0.6379 C.ar      1 <0>        -0.1272
     12 C10        -1.1660    1.9780   -0.6439 C.ar      1 <0>         0.0038
     13 C11        -1.2670    3.2055   -0.0146 C.ar      1 <0>        -0.2035
     14 C12        -0.1650    3.7570    0.6125 C.ar      1 <0>         0.0162
     15 C13         1.0393    3.0806    0.6173 C.ar      1 <0>        -0.0820
     16 N2          2.2183    3.6715    1.2893 N.pl3     1 <0>         0.0398
     17 O2          2.1058    4.7111    1.9139 O.2       1 <0>        -0.1320
     18 O3          3.3010    3.1182    1.2177 O.3       1 <0>        -0.1774
     19 C14        -2.5793    3.9463   -0.0178 C.3       1 <0>         0.5176
     20 F1         -2.6448    4.7741   -1.1437 F         1 <0>        -0.1693
     21 F2         -3.6335    3.0272   -0.0527 F         1 <0>        -0.1690
     22 F3         -2.6779    4.7252    1.1401 F         1 <0>        -0.1699
     23 O4          2.5151   -3.0050    0.2554 O.3       1 <0>        -0.4781
     24 H1          6.9877   -0.3266    0.2931 H         1 <0>         0.1379
     25 H2          7.0145   -2.7816    0.4440 H         1 <0>         0.1368
     26 H3          4.9101   -4.0493    0.4275 H         1 <0>         0.1405
     27 H4          4.8556    0.8797    0.1150 H         1 <0>         0.1352
     28 H5          3.1948    1.6487   -0.0625 H         1 <0>         0.4287
     29 H6          0.1106    0.3335   -1.1256 H         1 <0>         0.1752
     30 H7         -2.0274    1.5520   -1.1367 H         1 <0>         0.1626
     31 H8         -0.2459    4.7179    1.0989 H         1 <0>         0.1721
     32 H9          2.2182   -3.2614   -0.6284 H         1 <0>         0.3982
@<TRIPOS>BOND
     1    1    6 ar
     2    1    2 ar
     3    1   24 1
     4    2    3 ar
     5    2   25 1
     6    3    4 ar
     7    3   26 1
     8    4    5 ar
     9    4   23 1
    10    5    6 ar
    11    5    7 1
    12    6   27 1
    13    7    8 2
    14    7    9 am
    15    9   10 1
    16    9   28 1
    17   10   15 ar
    18   10   11 ar
    19   11   12 ar
    20   11   29 1
    21   12   13 ar
    22   12   30 1
    23   13   14 ar
    24   13   19 1
    25   14   15 ar
    26   14   31 1
    27   15   16 1
    28   16   17 2
    29   16   18 1
    30   19   20 1
    31   19   21 1
    32   19   22 1
    33   23   32 1
@<TRIPOS>MOLECULE
ZINC11639175
   28    29     0     0     0
SMALL
USER_CHARGES
N-(5-chloro-2-hydroxy-phenyl)-2-hydroxy-benzamide
@<TRIPOS>ATOM
      1 C1         -3.7231   -1.0368    0.3239 C.ar      1 <0>        -0.1364
      2 C2         -4.8975   -0.3018    0.3354 C.ar      1 <0>        -0.0698
      3 C3         -4.8605    1.0753    0.2442 C.ar      1 <0>        -0.1556
      4 C4         -3.6437    1.7329    0.1403 C.ar      1 <0>         0.1752
      5 C5         -2.4534    0.9930    0.1287 C.ar      1 <0>        -0.1741
      6 C6         -2.5057   -0.4004    0.2168 C.ar      1 <0>        -0.0694
      7 C7         -1.1533    1.6811    0.0181 C.2       1 <0>         0.5593
      8 O1         -1.1122    2.8937   -0.0635 O.2       1 <0>        -0.4953
      9 N1         -0.0111    0.9658    0.0074 N.am      1 <0>        -0.6634
     10 C8          1.2262    1.6220    0.0170 C.ar      1 <0>         0.1413
     11 C9          1.3299    2.9031    0.5392 C.ar      1 <0>        -0.1123
     12 C10         2.5538    3.5469    0.5523 C.ar      1 <0>        -0.0206
     13 C11         3.6739    2.9203    0.0349 C.ar      1 <0>        -0.1134
     14 C12         3.5761    1.6458   -0.4917 C.ar      1 <0>        -0.1087
     15 C13         2.3547    0.9922   -0.5031 C.ar      1 <0>         0.0765
     16 O2          2.2574   -0.2614   -1.0213 O.3       1 <0>        -0.4922
     17 Cl1         2.6839    5.1469    1.2130 Cl        1 <0>        -0.0579
     18 O3         -3.6059    3.0859    0.0497 O.3       1 <0>        -0.4777
     19 H1         -3.7622   -2.1137    0.3954 H         1 <0>         0.1352
     20 H2         -5.8475   -0.8091    0.4158 H         1 <0>         0.1354
     21 H3         -5.7803    1.6413    0.2535 H         1 <0>         0.1394
     22 H4         -1.5930   -0.9776    0.2045 H         1 <0>         0.1302
     23 H5         -0.0459   -0.0034   -0.0111 H         1 <0>         0.4164
     24 H6          0.4561    3.3958    0.9394 H         1 <0>         0.1624
     25 H7          4.6271    3.4281    0.0429 H         1 <0>         0.1407
     26 H8          4.4523    1.1595   -0.8946 H         1 <0>         0.1444
     27 H9          2.0539   -0.2816   -1.9664 H         1 <0>         0.3917
     28 H10        -3.6393    3.4205   -0.8570 H         1 <0>         0.3983
@<TRIPOS>BOND
     1    1    6 ar
     2    1    2 ar
     3    1   19 1
     4    2    3 ar
     5    2   20 1
     6    3    4 ar
     7    3   21 1
     8    4    5 ar
     9    4   18 1
    10    5    6 ar
    11    5    7 1
    12    6   22 1
    13    7    8 2
    14    7    9 am
    15    9   10 1
    16    9   23 1
    17   10   15 ar
    18   10   11 ar
    19   11   12 ar
    20   11   24 1
    21   12   13 ar
    22   12   17 1
    23   13   14 ar
    24   13   25 1
    25   14   15 ar
    26   14   26 1
    27   15   16 1
    28   16   27 1
    29   18   28 1
