@<TRIPOS>MOLECULE
ZINC00640266
   57    59     0     0     0
SMALL
USER_CHARGES
1-[(3,4-dimethoxyphenyl)methyl]-6,7-dimethoxy-2,2-dimethyl-3,4-dihydro-1H-isoquinoline
@<TRIPOS>ATOM
      1 C1          0.0950    7.9420   -1.5175 C.3       1 <0>        -0.0626
      2 N1         -0.3506    6.9768   -0.5037 N.4       1 <0>        -0.2571
      3 C2         -1.7224    7.3019   -0.0838 C.3       1 <0>        -0.0025
      4 C3         -2.0517    6.4940    1.1721 C.3       1 <0>        -0.1023
      5 C4         -1.7332    5.0386    0.9408 C.ar      1 <0>        -0.0838
      6 C5         -2.2663    4.0973    1.8083 C.ar      1 <0>        -0.1658
      7 C6         -1.9957    2.7520    1.6320 C.ar      1 <0>         0.1313
      8 C7         -1.1828    2.3450    0.5779 C.ar      1 <0>         0.1192
      9 C8         -0.6488    3.2888   -0.2809 C.ar      1 <0>        -0.1563
     10 C9         -0.9289    4.6364   -0.1046 C.ar      1 <0>        -0.1214
     11 C10        -0.3336    5.6258   -1.0717 C.3       1 <0>         0.0921
     12 H1         -0.9115    5.6172   -1.9958 H         1 <0>         0.1415
     13 C11         1.1111    5.2255   -1.3775 C.3       1 <0>        -0.0964
     14 C12         1.6419    6.0789   -2.5005 C.ar      1 <0>        -0.1164
     15 C13         1.0199    6.0591   -3.7350 C.ar      1 <0>        -0.1169
     16 C14         1.5000    6.8438   -4.7669 C.ar      1 <0>        -0.1651
     17 C15         2.6134    7.6444   -4.5682 C.ar      1 <0>         0.1158
     18 C16         3.2426    7.6602   -3.3272 C.ar      1 <0>         0.1140
     19 C17         2.7530    6.8754   -2.2955 C.ar      1 <0>        -0.1847
     20 O1          4.3359    8.4440   -3.1274 O.3       1 <0>        -0.2978
     21 C18         4.9303    8.4094   -1.8284 C.3       1 <0>         0.0230
     22 O2          3.0898    8.4133   -5.5837 O.3       1 <0>        -0.2997
     23 C19         2.3935    8.3465   -6.8298 C.3       1 <0>         0.0221
     24 O3         -0.9100    1.0251    0.3964 O.3       1 <0>        -0.2958
     25 C20        -0.0684    0.6823   -0.7064 C.3       1 <0>         0.0210
     26 O4         -2.5208    1.8319    2.4846 O.3       1 <0>        -0.2961
     27 C21        -3.3456    2.3241    3.5427 C.3       1 <0>         0.0212
     28 C22         0.5457    7.0328    0.6588 C.3       1 <0>        -0.0595
     29 H2         -0.2518    8.9394   -1.2468 H         1 <0>         0.1192
     30 H3          1.1837    7.9376   -1.5696 H         1 <0>         0.1347
     31 H4         -0.3164    7.6654   -2.4882 H         1 <0>         0.1220
     32 H5         -2.4202    7.0418   -0.8798 H         1 <0>         0.1303
     33 H6         -1.7950    8.3669    0.1366 H         1 <0>         0.1354
     34 H7         -3.1114    6.6006    1.4040 H         1 <0>         0.1206
     35 H8         -1.4587    6.8665    2.0073 H         1 <0>         0.1040
     36 H9         -2.8958    4.4160    2.6259 H         1 <0>         0.1472
     37 H10        -0.0137    2.9747   -1.0960 H         1 <0>         0.1466
     38 H11         1.7247    5.3720   -0.4886 H         1 <0>         0.1001
     39 H12         1.1429    4.1765   -1.6720 H         1 <0>         0.1201
     40 H13         0.1545    5.4324   -3.8924 H         1 <0>         0.1316
     41 H14         1.0098    6.8297   -5.7292 H         1 <0>         0.1443
     42 H15         3.2393    6.8861   -1.3313 H         1 <0>         0.1399
     43 H16         5.7908    9.0780   -1.8046 H         1 <0>         0.1093
     44 H17         4.1999    8.7308   -1.0859 H         1 <0>         0.0537
     45 H18         5.2536    7.3930   -1.6037 H         1 <0>         0.0592
     46 H19         2.4142    7.3226   -7.2032 H         1 <0>         0.0603
     47 H20         1.3596    8.6598   -6.6855 H         1 <0>         0.0587
     48 H21         2.8757    9.0061   -7.5513 H         1 <0>         0.1091
     49 H22         0.0685   -0.3987   -0.7367 H         1 <0>         0.1108
     50 H23         0.9003    1.1680   -0.5890 H         1 <0>         0.0584
     51 H24        -0.5320    1.0159   -1.6348 H         1 <0>         0.0591
     52 H25        -3.6984    1.4885    4.1471 H         1 <0>         0.1108
     53 H26        -2.7676    3.0056    4.1669 H         1 <0>         0.0600
     54 H27        -4.1998    2.8538    3.1210 H         1 <0>         0.0605
     55 H28         0.2153    6.3126    1.4073 H         1 <0>         0.1277
     56 H29         1.5617    6.7917    0.3462 H         1 <0>         0.1213
     57 H30         0.5251    8.0356    1.0855 H         1 <0>         0.1241
@<TRIPOS>BOND
     1    1    2 1
     2    1   29 1
     3    1   30 1
     4    1   31 1
     5    2   11 1
     6    2    3 1
     7    2   28 1
     8    3    4 1
     9    3   32 1
    10    3   33 1
    11    4    5 1
    12    4   34 1
    13    4   35 1
    14    5   10 ar
    15    5    6 ar
    16    6    7 ar
    17    6   36 1
    18    7    8 ar
    19    7   26 1
    20    8    9 ar
    21    8   24 1
    22    9   10 ar
    23    9   37 1
    24   10   11 1
    25   11   12 1
    26   11   13 1
    27   13   14 1
    28   13   38 1
    29   13   39 1
    30   14   19 ar
    31   14   15 ar
    32   15   16 ar
    33   15   40 1
    34   16   17 ar
    35   16   41 1
    36   17   18 ar
    37   17   22 1
    38   18   19 ar
    39   18   20 1
    40   19   42 1
    41   20   21 1
    42   21   43 1
    43   21   44 1
    44   21   45 1
    45   22   23 1
    46   23   46 1
    47   23   47 1
    48   23   48 1
    49   24   25 1
    50   25   49 1
    51   25   50 1
    52   25   51 1
    53   26   27 1
    54   27   52 1
    55   27   53 1
    56   27   54 1
    57   28   55 1
    58   28   56 1
    59   28   57 1
