@<TRIPOS>MOLECULE
ZINC30691792
   49    51     0     0     0
SMALL
USER_CHARGES
6-(2,4-difluorophenoxy)-2-[[3-hydroxy-1-(2-hydroxyethyl)propyl]amino]-8-methyl-pyrido[2,3-d]pyrimidin-7-one
@<TRIPOS>ATOM
      1 C1          4.8540   -2.9986    0.3688 C.3       1 <0>         0.0683
      2 N1          3.5707   -2.2985    0.2736 N.am      1 <0>        -0.4995
      3 C2          2.4049   -3.0209    0.2849 C.ar      1 <0>         0.4522
      4 C3          1.1663   -2.3495    0.1933 C.ar      1 <0>        -0.2637
      5 C4          1.1502   -0.8930    0.0880 C.2       1 <0>        -0.0905
      6 C5          2.3412   -0.2332    0.0821 C.2       1 <0>         0.0088
      7 C6          3.5538   -0.9577    0.1711 C.2       1 <0>         0.5622
      8 O1          4.6102   -0.3501    0.1597 O.2       1 <0>        -0.4932
      9 O2          2.3658    1.1229   -0.0150 O.3       1 <0>        -0.2185
     10 C7          1.1794    1.7863    0.0107 C.ar      1 <0>         0.0320
     11 C8          0.5956    2.2109   -1.1735 C.ar      1 <0>        -0.0597
     12 C9         -0.6071    2.8905   -1.1457 C.ar      1 <0>        -0.1491
     13 C10        -1.2361    3.1387    0.0626 C.ar      1 <0>         0.1407
     14 C11        -0.6563    2.7158    1.2465 C.ar      1 <0>        -0.1818
     15 C12         0.5505    2.0402    1.2232 C.ar      1 <0>         0.1250
     16 F1          1.1168    1.6272    2.3782 F         1 <0>        -0.1160
     17 F2         -2.4144    3.7992    0.0867 F         1 <0>        -0.1226
     18 C13        -0.0117   -3.1039    0.2059 C.ar      1 <0>         0.2539
     19 N2          0.0838   -4.4183    0.3034 N.ar      1 <0>        -0.5757
     20 C14         1.2660   -5.0175    0.3878 C.ar      1 <0>         0.6098
     21 N3          2.4068   -4.3447    0.3802 N.ar      1 <0>        -0.5977
     22 N4          1.3073   -6.3949    0.4880 N.pl3     1 <0>        -0.6963
     23 C15         0.0619   -7.1662    0.4994 C.3       1 <0>         0.1696
     24 C16         0.3365   -8.5858   -0.0008 C.3       1 <0>        -0.1274
     25 C17         0.7677   -8.5351   -1.4679 C.3       1 <0>         0.0867
     26 O3          1.0243   -9.8610   -1.9351 O.3       1 <0>        -0.6043
     27 C18        -0.4881   -7.2256    1.9259 C.3       1 <0>        -0.1310
     28 C19        -0.8795   -5.8181    2.3806 C.3       1 <0>         0.0963
     29 O4         -1.3932   -5.8736    3.7130 O.3       1 <0>        -0.6094
     30 H1          4.6761   -4.0814    0.4453 H         1 <0>         0.1086
     31 H2          5.3954   -2.6520    1.2614 H         1 <0>         0.0815
     32 H3          5.4540   -2.7881   -0.5288 H         1 <0>         0.0815
     33 H4          0.2175   -0.3531    0.0162 H         1 <0>         0.1480
     34 H5          1.0832    2.0143   -2.1169 H         1 <0>         0.1573
     35 H6         -1.0591    3.2249   -2.0678 H         1 <0>         0.1555
     36 H7         -1.1461    2.9137    2.1885 H         1 <0>         0.1592
     37 H8         -0.9764   -2.6234    0.1372 H         1 <0>         0.1809
     38 H9          2.2754   -6.9124    0.5592 H         1 <0>         0.4394
     39 H10        -0.6449   -6.6505   -0.1673 H         1 <0>         0.1005
     40 H11         1.1381   -9.0381    0.6016 H         1 <0>         0.0800
     41 H12        -0.5777   -9.1905    0.0920 H         1 <0>         0.0921
     42 H13        -0.0339   -8.0828   -2.0702 H         1 <0>         0.0420
     43 H14         1.6818   -7.9303   -1.5607 H         1 <0>         0.0426
     44 H15         1.3473  -10.0253   -2.9737 H         1 <0>         0.4126
     45 H16        -1.3731   -7.8783    1.9507 H         1 <0>         0.0829
     46 H17         0.2829   -7.6275    2.5997 H         1 <0>         0.0722
     47 H18         0.0056   -5.1654    2.3557 H         1 <0>         0.0338
     48 H19        -1.6505   -5.4162    1.7068 H         1 <0>         0.0533
     49 H20        -1.7283   -4.9524    4.2121 H         1 <0>         0.4072
@<TRIPOS>BOND
     1    1    2 1
     2    1   30 1
     3    1   31 1
     4    1   32 1
     5    2    7 am
     6    2    3 1
     7    3   21 ar
     8    3    4 ar
     9    4    5 1
    10    4   18 ar
    11    5    6 2
    12    5   33 1
    13    6    7 1
    14    6    9 1
    15    7    8 2
    16    9   10 1
    17   10   15 ar
    18   10   11 ar
    19   11   12 ar
    20   11   34 1
    21   12   13 ar
    22   12   35 1
    23   13   14 ar
    24   13   17 1
    25   14   15 ar
    26   14   36 1
    27   15   16 1
    28   18   19 ar
    29   18   37 1
    30   19   20 ar
    31   20   21 ar
    32   20   22 1
    33   22   23 1
    34   22   38 1
    35   23   24 1
    36   23   27 1
    37   23   39 1
    38   24   25 1
    39   24   40 1
    40   24   41 1
    41   25   26 1
    42   25   42 1
    43   25   43 1
    44   26   44 1
    45   27   28 1
    46   27   45 1
    47   27   46 1
    48   28   29 1
    49   28   47 1
    50   28   48 1
    51   29   49 1
@<TRIPOS>MOLECULE
ZINC58633224
   46    49     0     0     0
SMALL
USER_CHARGES

@<TRIPOS>ATOM
      1 C1          0.0061    1.4638   -0.3326 C.3       1 <0>         0.0692
      2 N1          0.0190    0.0075   -0.1738 N.am      1 <0>        -0.5030
      3 C2         -1.1667   -0.6667   -0.0299 C.ar      1 <0>         0.4666
      4 C3         -1.1578   -2.0702    0.1228 C.ar      1 <0>        -0.2897
      5 C4          0.1185   -2.7800    0.1246 C.2       1 <0>         0.0266
      6 C5          1.2608   -2.0539   -0.0224 C.2       1 <0>        -0.0441
      7 C6          1.1930   -0.6486   -0.1770 C.2       1 <0>         0.5312
      8 O1          2.2258   -0.0160   -0.3120 O.2       1 <0>        -0.5008
      9 O2          2.4679   -2.6800   -0.0252 O.3       1 <0>        -0.2141
     10 C7          3.3138   -2.4399    1.0118 C.ar      1 <0>         0.0835
     11 C8          2.8933   -1.6721    2.0874 C.ar      1 <0>        -0.1285
     12 C9          3.7539   -1.4288    3.1406 C.ar      1 <0>        -0.1228
     13 C10         5.0363   -1.9506    3.1236 C.ar      1 <0>         0.1014
     14 C11         5.4595   -2.7171    2.0511 C.ar      1 <0>        -0.1543
     15 C12         4.5987   -2.9680    0.9978 C.ar      1 <0>         0.1132
     16 F1          5.0091   -3.7209   -0.0463 F         1 <0>        -0.1197
     17 F2          5.8759   -1.7112    4.1546 F         1 <0>        -0.1289
     18 C13        -2.3773   -2.7400    0.2678 C.ar      1 <0>         0.2730
     19 N2         -3.4912   -2.0290    0.2558 N.ar      1 <0>        -0.5773
     20 C14        -3.4630   -0.7093    0.1100 C.ar      1 <0>         0.6155
     21 N3         -2.3328   -0.0330   -0.0304 N.ar      1 <0>        -0.5988
     22 N4         -4.6577   -0.0155    0.1047 N.pl3     1 <0>        -0.6787
     23 C15        -5.9240   -0.7362    0.2579 C.3       1 <0>         0.1569
     24 C16        -6.3937   -1.2433   -1.1090 C.3       1 <0>        -0.1664
     25 C17        -7.7549   -1.9259   -0.9512 C.3       1 <0>         0.0636
     26 O3         -8.6865   -1.0025   -0.3841 O.3       1 <0>        -0.3805
     27 C18        -8.3231   -0.5307    0.9149 C.3       1 <0>         0.0655
     28 C19        -6.9847    0.2080    0.8321 C.3       1 <0>        -0.1666
     29 H1          1.0285    1.8269   -0.4377 H         1 <0>         0.1019
     30 H2         -0.5663    1.7273   -1.2220 H         1 <0>         0.0817
     31 H3         -0.4534    1.9207    0.5438 H         1 <0>         0.0817
     32 H4          0.1553   -3.8532    0.2400 H         1 <0>         0.1638
     33 H5          1.8934   -1.2643    2.1017 H         1 <0>         0.1368
     34 H6          3.4261   -0.8305    3.9779 H         1 <0>         0.1472
     35 H7          6.4602   -3.1232    2.0391 H         1 <0>         0.1595
     36 H8         -2.4078   -3.8130    0.3864 H         1 <0>         0.1883
     37 H9         -4.6582    0.9487   -0.0006 H         1 <0>         0.4173
     38 H10        -5.7836   -1.5805    0.9329 H         1 <0>         0.0996
     39 H11        -6.4852   -0.4031   -1.7974 H         1 <0>         0.0736
     40 H12        -5.6706   -1.9589   -1.5002 H         1 <0>         0.0811
     41 H13        -8.1139   -2.2510   -1.9277 H         1 <0>         0.0988
     42 H14        -7.6542   -2.7901   -0.2946 H         1 <0>         0.0564
     43 H15        -9.0914    0.1493    1.2828 H         1 <0>         0.1015
     44 H16        -8.2298   -1.3766    1.5960 H         1 <0>         0.0563
     45 H17        -6.6842    0.5303    1.8290 H         1 <0>         0.0828
     46 H18        -7.0881    1.0775    0.1829 H         1 <0>         0.0799
@<TRIPOS>BOND
     1    1    2 1
     2    1   29 1
     3    1   30 1
     4    1   31 1
     5    2    7 am
     6    2    3 1
     7    3   21 ar
     8    3    4 ar
     9    4    5 1
    10    4   18 ar
    11    5    6 2
    12    5   32 1
    13    6    7 1
    14    6    9 1
    15    7    8 2
    16    9   10 1
    17   10   15 ar
    18   10   11 ar
    19   11   12 ar
    20   11   33 1
    21   12   13 ar
    22   12   34 1
    23   13   14 ar
    24   13   17 1
    25   14   15 ar
    26   14   35 1
    27   15   16 1
    28   18   19 ar
    29   18   36 1
    30   19   20 ar
    31   20   21 ar
    32   20   22 1
    33   22   23 1
    34   22   37 1
    35   23   28 1
    36   23   24 1
    37   23   38 1
    38   24   25 1
    39   24   39 1
    40   24   40 1
    41   25   26 1
    42   25   41 1
    43   25   42 1
    44   26   27 1
    45   27   28 1
    46   27   43 1
    47   27   44 1
    48   28   45 1
    49   28   46 1
@<TRIPOS>MOLECULE
ZINC58660958
   57    60     0     0     0
SMALL
USER_CHARGES

@<TRIPOS>ATOM
      1 C1          0.3721    1.3777   -0.3055 C.3       1 <0>        -0.1988
      2 C2          0.1634   -0.1084   -0.0071 C.3       1 <0>        -0.0200
      3 N1          0.9255   -0.4786    1.1929 N.4       1 <0>        -0.3758
      4 C3          0.1113   -0.2220    2.3885 C.3       1 <0>         0.0685
      5 C4         -0.1137    1.2609    2.5342 C.2       1 <0>         0.0656
      6 C5         -1.2571    1.8625    2.0543 C.2       1 <0>        -0.2833
      7 C6         -1.3356    3.2123    2.2516 C.2       1 <0>         0.0494
      8 S1          0.0999    3.5603    3.0483 S.3       1 <0>         0.4981
      9 N2          0.7669    2.0280    3.1266 N.2       1 <0>        -0.5011
     10 N3         -2.3559    4.0847    1.8824 N.pl3     1 <0>        -0.5737
     11 C7         -2.2517    5.4363    2.1737 C.2       1 <0>         0.4571
     12 C8         -3.2900    6.3273    1.8053 C.2       1 <0>         0.1343
     13 N4         -4.4479    6.1600    1.1891 N.2       1 <0>        -0.4484
     14 C9         -5.0665    7.3337    1.0833 C.2       1 <0>         0.0363
     15 C10        -4.2758    8.2924    1.6534 C.2       1 <0>         0.0797
     16 N5         -3.1536    7.6597    2.1100 N.pl3     1 <0>        -0.3300
     17 C11        -2.0229    8.0863    2.7582 C.2       1 <0>        -0.0245
     18 C12        -1.0629    7.1998    3.0878 C.2       1 <0>         0.1199
     19 N6         -1.1882    5.8999    2.8001 N.2       1 <0>        -0.5252
     20 C13         0.1747    7.6823    3.7995 C.3       1 <0>        -0.0983
     21 C14        -4.5771    9.7385    1.7559 C.2       1 <0>        -0.1867
     22 C15        -5.7040   10.3628    1.3017 C.2       1 <0>         0.1025
     23 N7         -5.5866   11.6761    1.5904 N.pl3     1 <0>        -0.4612
     24 H1         -6.2389   12.3640    1.3850 H         1 <0>         0.4502
     25 N8         -4.3612   11.8742    2.2379 N.2       1 <0>        -0.2752
     26 C16        -3.7561   10.7211    2.3456 C.2       1 <0>         0.0592
     27 C17         1.2712   -1.9051    1.1328 C.3       1 <0>         0.0542
     28 C18         2.0649   -2.2906    2.3827 C.3       1 <0>        -0.1727
     29 C19        -0.0105   -2.7380    1.0654 C.3       1 <0>        -0.1711
     30 C20         2.1191   -2.1723   -0.1124 C.3       1 <0>         0.0671
     31 O1          2.4554   -3.5599   -0.1709 O.3       1 <0>        -0.5516
     32 H2          1.4092    1.5481   -0.5946 H         1 <0>         0.0782
     33 H3         -0.2865    1.6808   -1.1195 H         1 <0>         0.1048
     34 H4          0.1423    1.9628    0.5849 H         1 <0>         0.0876
     35 H5         -0.8962   -0.2997    0.1620 H         1 <0>         0.1316
     36 H6          0.5090   -0.7011   -0.8542 H         1 <0>         0.1322
     37 H7         -0.8494   -0.7273    2.2891 H         1 <0>         0.1474
     38 H8          0.6307   -0.5990    3.2695 H         1 <0>         0.1497
     39 H9         -2.0370    1.3055    1.5563 H         1 <0>         0.1608
     40 H10        -3.1397    3.7469    1.4214 H         1 <0>         0.4425
     41 H11        -6.0298    7.5005    0.6244 H         1 <0>         0.1933
     42 H12        -1.9019    9.1310    3.0039 H         1 <0>         0.1754
     43 H13         0.0146    7.6388    4.8768 H         1 <0>         0.0884
     44 H14         1.0189    7.0469    3.5317 H         1 <0>         0.0868
     45 H15         0.3858    8.7103    3.5047 H         1 <0>         0.0852
     46 H16        -6.5373    9.8913    0.8020 H         1 <0>         0.1909
     47 H17        -2.7932   10.5508    2.8043 H         1 <0>         0.1818
     48 H18         1.4608   -2.1003    3.2698 H         1 <0>         0.0831
     49 H19         2.3214   -3.3491    2.3381 H         1 <0>         0.1139
     50 H20         2.9779   -1.6972    2.4307 H         1 <0>         0.0806
     51 H21        -0.5759   -2.4633    0.1749 H         1 <0>         0.0798
     52 H22         0.2460   -3.7964    1.0208 H         1 <0>         0.1124
     53 H23        -0.6146   -2.5476    1.9525 H         1 <0>         0.0819
     54 H24         1.5537   -1.8976   -1.0029 H         1 <0>         0.0698
     55 H25         3.0322   -1.5789   -0.0644 H         1 <0>         0.0683
     56 H26         2.9938   -3.8022   -0.9368 H         1 <0>         0.4046
     57 H27         1.7707    0.0707    1.2374 H         1 <0>         0.4245
@<TRIPOS>BOND
     1    1    2 1
     2    1   32 1
     3    1   33 1
     4    1   34 1
     5    2    3 1
     6    2   35 1
     7    2   36 1
     8    3    4 1
     9    3   27 1
    10    3   57 1
    11    4    5 1
    12    4   37 1
    13    4   38 1
    14    5    9 2
    15    5    6 1
    16    6    7 2
    17    6   39 1
    18    7    8 1
    19    7   10 1
    20    8    9 1
    21   10   11 1
    22   10   40 1
    23   11   19 2
    24   11   12 1
    25   12   16 1
    26   12   13 2
    27   13   14 1
    28   14   15 2
    29   14   41 1
    30   15   16 1
    31   15   21 1
    32   16   17 1
    33   17   18 2
    34   17   42 1
    35   18   19 1
    36   18   20 1
    37   20   43 1
    38   20   44 1
    39   20   45 1
    40   21   26 1
    41   21   22 2
    42   22   23 1
    43   22   46 1
    44   23   24 1
    45   23   25 1
    46   25   26 2
    47   26   47 1
    48   27   28 1
    49   27   29 1
    50   27   30 1
    51   28   48 1
    52   28   49 1
    53   28   50 1
    54   29   51 1
    55   29   52 1
    56   29   53 1
    57   30   31 1
    58   30   54 1
    59   30   55 1
    60   31   56 1
@<TRIPOS>MOLECULE
ZINC03814434
   62    69     0     0     0
SMALL
USER_CHARGES

@<TRIPOS>ATOM
      1 C1         -0.1295    1.5952   -0.2973 C.3       1 <0>        -0.1687
      2 C2         -0.0862    0.0696   -0.1900 C.3       1 <0>         0.3342
      3 C3          0.5692   -0.4501   -1.4637 C.3       1 <0>         0.0405
      4 H1          1.4796    0.1159   -1.6612 H         1 <0>         0.1372
      5 C4          0.9167   -1.9328   -1.2889 C.3       1 <0>        -0.0061
      6 H2          1.3963   -2.3075   -2.1932 H         1 <0>         0.1555
      7 C5          1.8785   -2.0596   -0.1021 C.3       1 <0>        -0.1827
      8 C6          1.2061   -1.5198    1.1541 C.3       1 <0>         0.2999
      9 H3          1.9797   -1.4243    1.9161 H         1 <0>         0.1550
     10 O1          0.6555   -0.2442    0.9666 O.3       1 <0>        -0.3234
     11 N1          0.2189   -2.4746    1.6600 N.pl3     1 <0>        -0.5366
     12 C7          0.4705   -3.5508    2.4739 C.ar      1 <0>         0.1469
     13 C8          1.6649   -4.0152    3.0240 C.ar      1 <0>        -0.1522
     14 C9          1.5948   -5.1456    3.8201 C.ar      1 <0>        -0.0582
     15 C10         0.4006   -5.7997    4.0696 C.ar      1 <0>        -0.1457
     16 C11        -0.7984   -5.3597    3.5358 C.ar      1 <0>        -0.0280
     17 C12        -0.7487   -4.2198    2.7307 C.ar      1 <0>        -0.1131
     18 C13        -1.7893   -3.4830    2.0197 C.ar      1 <0>         0.0276
     19 C14        -1.1442   -2.4197    1.3841 C.ar      1 <0>         0.0376
     20 C15        -1.8806   -1.5095    0.6175 C.ar      1 <0>         0.0894
     21 N2         -1.4718   -0.3951   -0.1095 N.pl3     1 <0>        -0.5183
     22 C16        -2.5611    0.1913   -0.7090 C.ar      1 <0>         0.1618
     23 C17        -2.6521    1.3277   -1.5118 C.ar      1 <0>        -0.1305
     24 C18        -3.9109    1.6745   -1.9733 C.ar      1 <0>        -0.0737
     25 C19        -5.0393    0.9368   -1.6616 C.ar      1 <0>        -0.1358
     26 C20        -4.9745   -0.1955   -0.8662 C.ar      1 <0>        -0.0503
     27 C21        -3.7147   -0.5596   -0.3919 C.ar      1 <0>        -0.1042
     28 C22        -3.2693   -1.6660    0.4845 C.ar      1 <0>        -0.0360
     29 C23        -3.9084   -2.7313    1.1102 C.ar      1 <0>        -0.0288
     30 C24        -3.1873   -3.6421    1.8754 C.ar      1 <0>        -0.1255
     31 C25        -4.1221   -4.6480    2.4030 C.2       1 <0>         0.5632
     32 O2         -3.8062   -5.5851    3.1110 O.2       1 <0>        -0.5106
     33 N3         -5.3744   -4.3851    1.9926 N.am      1 <0>        -0.7162
     34 C26        -5.3495   -3.1771    1.1601 C.3       1 <0>         0.1358
     35 N4         -0.3067   -2.7008   -1.0216 N.4       1 <0>        -0.5252
     36 C27         0.0145   -4.1336   -0.9773 C.3       1 <0>        -0.0497
     37 O3         -0.3340   -0.2979   -2.5607 O.3       1 <0>        -0.3614
     38 C28         0.3101   -0.0933   -3.8198 C.3       1 <0>         0.0162
     39 H4          0.8261    2.0094    0.0240 H         1 <0>         0.0984
     40 H5         -0.3202    1.8814   -1.3317 H         1 <0>         0.1036
     41 H6         -0.9255    1.9818    0.3392 H         1 <0>         0.0921
     42 H7          2.1370   -3.1081    0.0458 H         1 <0>         0.1233
     43 H8          2.7835   -1.4869   -0.3048 H         1 <0>         0.1455
     44 H9          2.6036   -3.5149    2.8368 H         1 <0>         0.1365
     45 H10         2.5026   -5.5304    4.2610 H         1 <0>         0.1359
     46 H11         0.4045   -6.6780    4.6980 H         1 <0>         0.1352
     47 H12        -1.7278   -5.8736    3.7323 H         1 <0>         0.1600
     48 H13        -1.7792    1.9122   -1.7624 H         1 <0>         0.1440
     49 H14        -4.0153    2.5500   -2.5970 H         1 <0>         0.1336
     50 H15        -5.9967    1.2527   -2.0488 H         1 <0>         0.1332
     51 H16        -5.8575   -0.7687   -0.6249 H         1 <0>         0.1415
     52 H17        -6.1628   -4.9065    2.2103 H         1 <0>         0.4348
     53 H18        -5.9671   -2.3994    1.6094 H         1 <0>         0.1115
     54 H19        -5.7060   -3.4063    0.1559 H         1 <0>         0.1103
     55 H20        -0.6958   -2.4158   -0.1353 H         1 <0>         0.4186
     56 H21         0.4349   -4.4415   -1.9347 H         1 <0>         0.1256
     57 H22         0.7403   -4.3189   -0.1854 H         1 <0>         0.1191
     58 H23        -0.8932   -4.7035   -0.7789 H         1 <0>         0.1256
     59 H24         0.9168    0.8112   -3.7748 H         1 <0>         0.0633
     60 H25         0.9482   -0.9479   -4.0446 H         1 <0>         0.0514
     61 H26        -0.4433    0.0130   -4.6003 H         1 <0>         0.1100
     62 H27        -0.9785   -2.5293   -1.7546 H         1 <0>         0.4274
@<TRIPOS>BOND
     1    1    2 1
     2    1   39 1
     3    1   40 1
     4    1   41 1
     5    2   10 1
     6    2   21 1
     7    2    3 1
     8    3    4 1
     9    3    5 1
    10    3   37 1
    11    5    6 1
    12    5    7 1
    13    5   35 1
    14    7    8 1
    15    7   42 1
    16    7   43 1
    17    8    9 1
    18    8   10 1
    19    8   11 1
    20   11   19 1
    21   11   12 1
    22   12   17 ar
    23   12   13 ar
    24   13   14 ar
    25   13   44 1
    26   14   15 ar
    27   14   45 1
    28   15   16 ar
    29   15   46 1
    30   16   17 ar
    31   16   47 1
    32   17   18 1
    33   18   30 ar
    34   18   19 ar
    35   19   20 ar
    36   20   28 ar
    37   20   21 1
    38   21   22 1
    39   22   27 ar
    40   22   23 ar
    41   23   24 ar
    42   23   48 1
    43   24   25 ar
    44   24   49 1
    45   25   26 ar
    46   25   50 1
    47   26   27 ar
    48   26   51 1
    49   27   28 1
    50   28   29 ar
    51   29   34 1
    52   29   30 ar
    53   30   31 1
    54   31   32 2
    55   31   33 am
    56   33   34 1
    57   33   52 1
    58   34   53 1
    59   34   54 1
    60   35   36 1
    61   35   55 1
    62   35   62 1
    63   36   56 1
    64   36   57 1
    65   36   58 1
    66   37   38 1
    67   38   59 1
    68   38   60 1
    69   38   61 1
@<TRIPOS>MOLECULE
ZINC00477923
   30    32     0     0     0
SMALL
USER_CHARGES
4-(benzotriazol-1-ylmethylamino)phenol
@<TRIPOS>ATOM
      1 C1          1.1844    1.7806    0.0003 C.ar      1 <0>        -0.1321
      2 C2         -0.0126    1.0758    0.0080 C.ar      1 <0>        -0.0612
      3 C3         -1.2086    1.7369    0.0172 C.ar      1 <0>        -0.1230
      4 C4         -1.2298    3.1275    0.0297 C.ar      1 <0>         0.0921
      5 C5         -0.0221    3.8467    0.0220 C.ar      1 <0>        -0.0189
      6 C6          1.1907    3.1447    0.0071 C.ar      1 <0>        -0.0326
      7 N1         -0.3275    5.1595    0.0315 N.2       1 <0>        -0.2079
      8 N2         -1.6036    5.3212    0.0442 N.2       1 <0>         0.0033
      9 N3         -2.2329    4.0674    0.0438 N.pl3     1 <0>        -0.4121
     10 C7         -3.6751    3.8103    0.0560 C.3       1 <0>         0.3796
     11 N4         -4.1688    3.7321   -1.3210 N.pl3     1 <0>        -0.7632
     12 C8         -5.5257    3.4921   -1.5653 C.ar      1 <0>         0.2087
     13 C9         -6.4034    3.3222   -0.5027 C.ar      1 <0>        -0.1812
     14 C10        -7.7433    3.0911   -0.7446 C.ar      1 <0>        -0.0939
     15 C11        -8.2103    3.0167   -2.0485 C.ar      1 <0>         0.0509
     16 C12        -7.3334    3.1810   -3.1105 C.ar      1 <0>        -0.0942
     17 C13        -5.9941    3.4179   -2.8704 C.ar      1 <0>        -0.1700
     18 O1         -9.5289    2.7830   -2.2859 O.3       1 <0>        -0.4984
     19 H1          2.1207    1.2425   -0.0115 H         1 <0>         0.1400
     20 H2          0.0021   -0.0041    0.0020 H         1 <0>         0.1402
     21 H3         -2.1346    1.1811    0.0190 H         1 <0>         0.1324
     22 H4          2.1275    3.6820    0.0014 H         1 <0>         0.1412
     23 H5         -3.8718    2.8676    0.5666 H         1 <0>         0.0972
     24 H6         -4.1840    4.6199    0.5791 H         1 <0>         0.1027
     25 H7         -3.5553    3.8468   -2.0635 H         1 <0>         0.4039
     26 H8         -6.0390    3.3750    0.5126 H         1 <0>         0.1244
     27 H9         -8.4269    2.9634    0.0817 H         1 <0>         0.1304
     28 H10        -7.6979    3.1233   -4.1255 H         1 <0>         0.1305
     29 H11        -5.3114    3.5458   -3.6974 H         1 <0>         0.1257
     30 H12        -9.7550    1.8458   -2.3608 H         1 <0>         0.3854
@<TRIPOS>BOND
     1    1    6 ar
     2    1    2 ar
     3    1   19 1
     4    2    3 ar
     5    2   20 1
     6    3    4 ar
     7    3   21 1
     8    4    9 1
     9    4    5 ar
    10    5    6 ar
    11    5    7 1
    12    6   22 1
    13    7    8 2
    14    8    9 1
    15    9   10 1
    16   10   11 1
    17   10   23 1
    18   10   24 1
    19   11   12 1
    20   11   25 1
    21   12   17 ar
    22   12   13 ar
    23   13   14 ar
    24   13   26 1
    25   14   15 ar
    26   14   27 1
    27   15   16 ar
    28   15   18 1
    29   16   17 ar
    30   16   28 1
    31   17   29 1
    32   18   30 1
@<TRIPOS>MOLECULE
ZINC00098417
   44    47     0     0     0
SMALL
USER_CHARGES
2-[(4-morpholinophenyl)aminomethyl]isoindoline-1,3-dione
@<TRIPOS>ATOM
      1 C1          3.4127    2.9457   -0.0145 C.ar      1 <0>        -0.0952
      2 C2          2.9262    4.2395   -0.0034 C.ar      1 <0>        -0.0942
      3 C3          1.5606    4.4767    0.0101 C.ar      1 <0>        -0.0445
      4 C4          0.6779    3.4085    0.0134 C.ar      1 <0>        -0.1411
      5 C5          1.1740    2.0893    0.0021 C.ar      1 <0>        -0.1440
      6 C6          2.5417    1.8675   -0.0118 C.ar      1 <0>        -0.0442
      7 C7         -0.0144    1.2103    0.0087 C.2       1 <0>         0.5777
      8 O1          0.0021   -0.0041    0.0020 O.2       1 <0>        -0.4627
      9 N1         -1.1173    1.9805    0.0175 N.am      1 <0>        -0.5904
     10 C8         -0.7951    3.2866    0.0265 C.2       1 <0>         0.5747
     11 O2         -1.5828    4.2109    0.0379 O.2       1 <0>        -0.4518
     12 C9         -2.4885    1.4649    0.0209 C.3       1 <0>         0.3364
     13 N2         -2.9395    1.2860    1.4032 N.pl3     1 <0>        -0.7481
     14 C10        -3.6735    2.2961    2.0364 C.ar      1 <0>         0.1738
     15 C11        -3.9691    3.4700    1.3560 C.ar      1 <0>        -0.1514
     16 C12        -4.6964    4.4648    1.9793 C.ar      1 <0>        -0.1197
     17 C13        -5.1247    4.2948    3.2892 C.ar      1 <0>         0.0602
     18 C14        -4.8245    3.1231    3.9713 C.ar      1 <0>        -0.0950
     19 C15        -4.1009    2.1266    3.3466 C.ar      1 <0>        -0.1581
     20 N3         -5.8587    5.3050    3.9223 N.pl3     1 <0>        -0.4852
     21 C16        -7.1464    4.7923    4.4124 C.3       1 <0>         0.0198
     22 C17        -7.8884    5.9113    5.1481 C.3       1 <0>         0.0616
     23 O3         -8.0493    7.0279    4.2691 O.3       1 <0>        -0.3837
     24 C18        -6.8148    7.5530    3.7734 C.3       1 <0>         0.0621
     25 C19        -6.0620    6.4506    3.0237 C.3       1 <0>         0.0136
     26 H1          4.4789    2.7738   -0.0256 H         1 <0>         0.1437
     27 H2          3.6149    5.0714   -0.0056 H         1 <0>         0.1437
     28 H3          1.1861    5.4896    0.0183 H         1 <0>         0.1427
     29 H4          2.9274    0.8587   -0.0201 H         1 <0>         0.1427
     30 H5         -3.1441    2.1726   -0.4864 H         1 <0>         0.1138
     31 H6         -2.5176    0.5066   -0.4977 H         1 <0>         0.1153
     32 H7         -2.7295    0.4676    1.8798 H         1 <0>         0.4045
     33 H8         -3.6328    3.6037    0.3385 H         1 <0>         0.1323
     34 H9         -4.9296    5.3762    1.4489 H         1 <0>         0.1262
     35 H10        -5.1573    2.9911    4.9902 H         1 <0>         0.1248
     36 H11        -3.8678    1.2151    3.8770 H         1 <0>         0.1229
     37 H12        -7.7468    4.4506    3.5692 H         1 <0>         0.0513
     38 H13        -6.9711    3.9613    5.0956 H         1 <0>         0.0911
     39 H14        -7.3129    6.2161    6.0222 H         1 <0>         0.0616
     40 H15        -8.8680    5.5528    5.4642 H         1 <0>         0.1020
     41 H16        -6.2082    7.9055    4.6075 H         1 <0>         0.0615
     42 H17        -7.0174    8.3816    3.0948 H         1 <0>         0.1023
     43 H18        -5.0951    6.8301    2.6933 H         1 <0>         0.0928
     44 H19        -6.6444    6.1353    2.1580 H         1 <0>         0.0541
@<TRIPOS>BOND
     1    1    6 ar
     2    1    2 ar
     3    1   26 1
     4    2    3 ar
     5    2   27 1
     6    3    4 ar
     7    3   28 1
     8    4   10 1
     9    4    5 ar
    10    5    6 ar
    11    5    7 1
    12    6   29 1
    13    7    8 2
    14    7    9 am
    15    9   10 am
    16    9   12 1
    17   10   11 2
    18   12   13 1
    19   12   30 1
    20   12   31 1
    21   13   14 1
    22   13   32 1
    23   14   19 ar
    24   14   15 ar
    25   15   16 ar
    26   15   33 1
    27   16   17 ar
    28   16   34 1
    29   17   18 ar
    30   17   20 1
    31   18   19 ar
    32   18   35 1
    33   19   36 1
    34   20   25 1
    35   20   21 1
    36   21   22 1
    37   21   37 1
    38   21   38 1
    39   22   23 1
    40   22   39 1
    41   22   40 1
    42   23   24 1
    43   24   25 1
    44   24   41 1
    45   24   42 1
    46   25   43 1
    47   25   44 1
@<TRIPOS>MOLECULE
ZINC00361081
   30    32     0     0     0
SMALL
USER_CHARGES
7-methyl-2-phenyl-3H-benzoimidazol-5-amine
@<TRIPOS>ATOM
      1 C1         -4.9112    0.7943    0.0301 C.3       1 <0>        -0.1137
      2 C2         -3.6267    1.5824    0.0283 C.ar      1 <0>         0.0207
      3 C3         -2.4265    0.9318    0.0186 C.ar      1 <0>        -0.1947
      4 C4         -1.2310    1.6482    0.0168 C.ar      1 <0>         0.2453
      5 C5         -1.2461    3.0336    0.0302 C.ar      1 <0>        -0.2203
      6 C6         -2.4589    3.7067    0.0338 C.ar      1 <0>         0.1116
      7 C7         -3.6639    2.9807    0.0361 C.ar      1 <0>        -0.0028
      8 N1         -4.6751    3.8840    0.0454 N.2       1 <0>        -0.4623
      9 C8         -4.1820    5.0975    0.0490 C.2       1 <0>         0.3019
     10 N2         -2.8130    5.0417    0.0421 N.pl3     1 <0>        -0.6021
     11 H1         -2.1872    5.8217    0.0429 H         1 <0>         0.4263
     12 C9         -4.9826    6.3410    0.0595 C.ar      1 <0>        -0.0231
     13 C10        -4.3472    7.5833    0.0689 C.ar      1 <0>        -0.1069
     14 C11        -5.0998    8.7396    0.0733 C.ar      1 <0>        -0.1175
     15 C12        -6.4815    8.6692    0.0800 C.ar      1 <0>        -0.1072
     16 C13        -7.1176    7.4406    0.0761 C.ar      1 <0>        -0.1181
     17 C14        -6.3765    6.2768    0.0659 C.ar      1 <0>        -0.0741
     18 N3         -0.0111    0.9658    0.0074 N.pl3     1 <0>        -0.8731
     19 H2         -5.2158    0.5984    1.0582 H         1 <0>         0.0744
     20 H3         -5.6888    1.3658   -0.4766 H         1 <0>         0.0748
     21 H4         -4.7580   -0.1513   -0.4899 H         1 <0>         0.0675
     22 H5         -2.4033   -0.1479    0.0126 H         1 <0>         0.1296
     23 H6         -0.3184    3.5865    0.0332 H         1 <0>         0.1202
     24 H7         -3.2687    7.6396    0.0682 H         1 <0>         0.1189
     25 H8         -4.6093    9.7018    0.0757 H         1 <0>         0.1284
     26 H9         -7.0662    9.5772    0.0880 H         1 <0>         0.1270
     27 H10        -8.1965    7.3923    0.0814 H         1 <0>         0.1306
     28 H11        -6.8742    5.3183    0.0624 H         1 <0>         0.1385
     29 H12         0.0021   -0.0041    0.0020 H         1 <0>         0.4011
     30 H13         0.8223    1.4622    0.0021 H         1 <0>         0.3990
@<TRIPOS>BOND
     1    1    2 1
     2    1   19 1
     3    1   20 1
     4    1   21 1
     5    2    7 ar
     6    2    3 ar
     7    3    4 ar
     8    3   22 1
     9    4    5 ar
    10    4   18 1
    11    5    6 ar
    12    5   23 1
    13    6   10 1
    14    6    7 ar
    15    7    8 1
    16    8    9 2
    17    9   10 1
    18    9   12 1
    19   10   11 1
    20   12   17 ar
    21   12   13 ar
    22   13   14 ar
    23   13   24 1
    24   14   15 ar
    25   14   25 1
    26   15   16 ar
    27   15   26 1
    28   16   17 ar
    29   16   27 1
    30   17   28 1
    31   18   29 1
    32   18   30 1
@<TRIPOS>MOLECULE
ZINC04412667
   33    35     0     0     0
SMALL
USER_CHARGES
4-amino-2-methyl-6-(6-methylbenzooxazol-2-yl)-phenol
@<TRIPOS>ATOM
      1 C1          8.0519   -4.7328   -0.0991 C.3       1 <0>        -0.1145
      2 C2          7.2653   -3.4475   -0.0848 C.ar      1 <0>        -0.0575
      3 C3          7.9332   -2.2317   -0.0836 C.ar      1 <0>        -0.1195
      4 C4          7.2284   -1.0490   -0.0707 C.ar      1 <0>        -0.0542
      5 C5          5.8316   -1.0752   -0.0585 C.ar      1 <0>         0.0163
      6 C6          5.1598   -2.3083   -0.0594 C.ar      1 <0>         0.0147
      7 C7          5.8863   -3.4887   -0.0726 C.ar      1 <0>        -0.0979
      8 O1          3.8385   -2.0234   -0.0396 O.3       1 <0>        -0.2107
      9 C8          3.6988   -0.6840   -0.0364 C.2       1 <0>         0.2894
     10 N1          4.8760   -0.1104   -0.0441 N.2       1 <0>        -0.4432
     11 C9          2.4080    0.0325   -0.0203 C.ar      1 <0>        -0.0086
     12 C10         1.2091   -0.6828   -0.0127 C.ar      1 <0>        -0.1566
     13 C11         0.0021   -0.0041    0.0020 C.ar      1 <0>         0.2112
     14 C12        -0.0168    1.3864    0.0097 C.ar      1 <0>        -0.1580
     15 C13         1.1660    2.0992    0.0022 C.ar      1 <0>        -0.0647
     16 C14         2.3808    1.4325   -0.0129 C.ar      1 <0>         0.1032
     17 O2          3.5430    2.1358   -0.0207 O.3       1 <0>        -0.4694
     18 C15         1.1355    3.6059    0.0101 C.3       1 <0>        -0.1096
     19 N2         -1.2011   -0.7189    0.0096 N.pl3     1 <0>        -0.8757
     20 H1          8.2322   -5.0370   -1.1302 H         1 <0>         0.0772
     21 H2          9.0053   -4.5810    0.4070 H         1 <0>         0.0740
     22 H3          7.4871   -5.5102    0.4155 H         1 <0>         0.0709
     23 H4          9.0130   -2.2126   -0.0929 H         1 <0>         0.1388
     24 H5          7.7531   -0.1051   -0.0701 H         1 <0>         0.1385
     25 H6          5.3737   -4.4393   -0.0736 H         1 <0>         0.1351
     26 H7          1.2230   -1.7627   -0.0179 H         1 <0>         0.1333
     27 H8         -0.9607    1.9111    0.0170 H         1 <0>         0.1319
     28 H9          3.8710    2.3439   -0.9063 H         1 <0>         0.3858
     29 H10         1.1377    3.9640    1.0396 H         1 <0>         0.0766
     30 H11         2.0131    3.9897   -0.5101 H         1 <0>         0.0723
     31 H12         0.2336    3.9537   -0.4936 H         1 <0>         0.0686
     32 H13        -2.0471   -0.2445    0.0203 H         1 <0>         0.4016
     33 H14        -1.1890   -1.6888    0.0043 H         1 <0>         0.4008
@<TRIPOS>BOND
     1    1    2 1
     2    1   20 1
     3    1   21 1
     4    1   22 1
     5    2    7 ar
     6    2    3 ar
     7    3    4 ar
     8    3   23 1
     9    4    5 ar
    10    4   24 1
    11    5   10 1
    12    5    6 ar
    13    6    7 ar
    14    6    8 1
    15    7   25 1
    16    8    9 1
    17    9   10 2
    18    9   11 1
    19   11   16 ar
    20   11   12 ar
    21   12   13 ar
    22   12   26 1
    23   13   14 ar
    24   13   19 1
    25   14   15 ar
    26   14   27 1
    27   15   16 ar
    28   15   18 1
    29   16   17 1
    30   17   28 1
    31   18   29 1
    32   18   30 1
    33   18   31 1
    34   19   32 1
    35   19   33 1
@<TRIPOS>MOLECULE
ZINC06863164
   26    27     0     0     0
SMALL
USER_CHARGES
5-[(4-hydroxyphenyl)hydrazono]hexahydropyrimidine-2,4,6-trione
@<TRIPOS>ATOM
      1 C1          2.3799    1.3521   -0.0429 C.ar      1 <0>        -0.1037
      2 C2          3.5565    2.0724   -0.0813 C.ar      1 <0>        -0.1191
      3 C3          3.5261    3.4404   -0.3134 C.ar      1 <0>         0.1039
      4 C4          2.3133    4.0847   -0.5133 C.ar      1 <0>        -0.1175
      5 C5          1.1357    3.3657   -0.4806 C.ar      1 <0>        -0.1148
      6 C6          1.1648    1.9955   -0.2478 C.ar      1 <0>         0.1230
      7 N1         -0.0255    1.2674   -0.2141 N.pl3     1 <0>        -0.4349
      8 N2          0.0021   -0.0041    0.0020 N.2       1 <0>        -0.0341
      9 C7         -1.1267   -0.6800    0.1088 C.2       1 <0>        -0.1564
     10 C8         -2.4349    0.0032    0.1347 C.2       1 <0>         0.5641
     11 O1         -2.5088    1.2150    0.0575 O.2       1 <0>        -0.5083
     12 N3         -3.5466   -0.7536    0.2410 N.am      1 <0>        -0.6539
     13 C9         -3.4795   -2.0890    0.3319 C.2       1 <0>         0.7169
     14 O2         -4.5188   -2.7114    0.4302 O.2       1 <0>        -0.5186
     15 N4         -2.3283   -2.7753    0.3206 N.am      1 <0>        -0.6557
     16 C10        -1.1365   -2.1524    0.2138 C.2       1 <0>         0.5996
     17 O3         -0.0985   -2.7866    0.2048 O.2       1 <0>        -0.4634
     18 O4          4.6852    4.1496   -0.3453 O.3       1 <0>        -0.4958
     19 H1          2.4034    0.2884    0.1422 H         1 <0>         0.1480
     20 H2          4.5010    1.5720    0.0735 H         1 <0>         0.1416
     21 H3          2.2909    5.1492   -0.6942 H         1 <0>         0.1421
     22 H4          0.1920    3.8673   -0.6363 H         1 <0>         0.1387
     23 H5         -0.8732    1.7167   -0.3571 H         1 <0>         0.4189
     24 H6         -4.4146   -0.3208    0.2558 H         1 <0>         0.4403
     25 H7         -2.3527   -3.7425    0.3905 H         1 <0>         0.4441
     26 H8          4.9551    4.5011    0.5142 H         1 <0>         0.3950
@<TRIPOS>BOND
     1    1    6 ar
     2    1    2 ar
     3    1   19 1
     4    2    3 ar
     5    2   20 1
     6    3    4 ar
     7    3   18 1
     8    4    5 ar
     9    4   21 1
    10    5    6 ar
    11    5   22 1
    12    6    7 1
    13    7    8 1
    14    7   23 1
    15    8    9 2
    16    9   16 1
    17    9   10 1
    18   10   11 2
    19   10   12 am
    20   12   13 am
    21   12   24 1
    22   13   14 2
    23   13   15 am
    24   15   16 am
    25   15   25 1
    26   16   17 2
    27   18   26 1
@<TRIPOS>MOLECULE
ZINC00482059
   26    28     0     0     0
SMALL
USER_CHARGES
4-chloro-9-phenyl-7-thia-8,10-diazabicyclo[4.4.0]deca-2,4,9,11-tetraene
@<TRIPOS>ATOM
      1 C1          4.5784    0.0510    1.9060 C.ar      1 <0>        -0.0917
      2 C2          4.6583    1.2915    1.2984 C.ar      1 <0>        -0.1264
      3 C3          3.5509    1.8315    0.6778 C.ar      1 <0>        -0.0553
      4 C4          2.3481    1.1233    0.6633 C.ar      1 <0>        -0.0700
      5 C5          2.2730   -0.1254    1.2828 C.ar      1 <0>        -0.0866
      6 C6          3.3894   -0.6564    1.8949 C.ar      1 <0>        -0.1244
      7 C7          1.1576    1.6958    0.0001 C.2       1 <0>         0.4783
      8 N1          1.2640    2.8622   -0.5605 N.2       1 <0>        -0.5420
      9 C8          0.2701    3.5245   -1.2207 C.ar      1 <0>         0.1369
     10 C9          0.5782    4.5855   -2.0707 C.ar      1 <0>        -0.0787
     11 C10        -0.4325    5.2525   -2.7395 C.ar      1 <0>        -0.0894
     12 C11        -1.7533    4.8776   -2.5743 C.ar      1 <0>        -0.0363
     13 C12        -2.0768    3.8232   -1.7303 C.ar      1 <0>        -0.0632
     14 C13        -1.0759    3.1535   -1.0594 C.ar      1 <0>        -0.1870
     15 S1         -1.4480    1.8099    0.0186 S.3       1 <0>         0.2485
     16 N2         -0.0111    0.9658    0.0074 N.pl3     1 <0>        -0.7679
     17 Cl1        -3.0081    5.7254   -3.4231 Cl        1 <0>        -0.0592
     18 H1          5.4482   -0.3671    2.3909 H         1 <0>         0.1293
     19 H2          5.5895    1.8383    1.3104 H         1 <0>         0.1322
     20 H3          3.6146    2.7999    0.2038 H         1 <0>         0.1418
     21 H4          1.3440   -0.6763    1.2793 H         1 <0>         0.1243
     22 H5          3.3338   -1.6244    2.3707 H         1 <0>         0.1310
     23 H6          1.6063    4.8871   -2.2070 H         1 <0>         0.1445
     24 H7         -0.1877    6.0735   -3.3970 H         1 <0>         0.1428
     25 H8         -3.1078    3.5290   -1.6004 H         1 <0>         0.1421
     26 H9          0.0021   -0.0041    0.0020 H         1 <0>         0.4263
@<TRIPOS>BOND
     1    1    6 ar
     2    1    2 ar
     3    1   18 1
     4    2    3 ar
     5    2   19 1
     6    3    4 ar
     7    3   20 1
     8    4    5 ar
     9    4    7 1
    10    5    6 ar
    11    5   21 1
    12    6   22 1
    13    7   16 1
    14    7    8 2
    15    8    9 1
    16    9   14 ar
    17    9   10 ar
    18   10   11 ar
    19   10   23 1
    20   11   12 ar
    21   11   24 1
    22   12   13 ar
    23   12   17 1
    24   13   14 ar
    25   13   25 1
    26   14   15 1
    27   15   16 1
    28   16   26 1
@<TRIPOS>MOLECULE
ZINC47816706
   22    23     0     0     0
SMALL
USER_CHARGES

@<TRIPOS>ATOM
      1 C1         -0.0328    1.3719   -0.0118 C.ar      1 <0>        -0.1080
      2 C2          1.1497    2.0885   -0.0254 C.ar      1 <0>        -0.1111
      3 C3          2.3634    1.4266   -0.0375 C.ar      1 <0>        -0.1259
      4 C4          2.3976    0.0416   -0.0360 C.ar      1 <0>         0.0848
      5 C5          1.2065   -0.6811   -0.0223 C.ar      1 <0>         0.1139
      6 C6         -0.0076   -0.0098   -0.0102 C.ar      1 <0>        -0.1047
      7 N1          1.2348   -2.0812   -0.0208 N.am      1 <0>        -0.6567
      8 C7          0.2956   -2.7734    0.6540 C.2       1 <0>         0.6089
      9 O1         -0.6226   -2.1857    1.1937 O.2       1 <0>        -0.4909
     10 C8          0.3809   -4.2399    0.7377 C.2       1 <0>        -0.2457
     11 C9         -0.4635   -5.1491    1.3647 C.2       1 <0>         0.0776
     12 N2         -0.0951   -6.4009    1.2467 N.2       1 <0>        -0.2672
     13 N3          0.9614   -6.7485    0.6024 N.2       1 <0>        -0.1803
     14 S1          1.5937   -5.3587    0.0565 S.3       1 <0>         0.3311
     15 O2          3.5905   -0.6108   -0.0484 O.3       1 <0>        -0.4950
     16 H1         -0.9785    1.8934    0.0022 H         1 <0>         0.1326
     17 H2          1.1252    3.1682   -0.0269 H         1 <0>         0.1316
     18 H3          3.2852    1.9893   -0.0485 H         1 <0>         0.1358
     19 H4         -0.9328   -0.5669    0.0007 H         1 <0>         0.1456
     20 H5          1.9302   -2.5528   -0.5053 H         1 <0>         0.4164
     21 H6         -1.3493   -4.8485    1.9045 H         1 <0>         0.2159
     22 H7          3.9454   -0.7984    0.8314 H         1 <0>         0.3913
@<TRIPOS>BOND
     1    1    6 ar
     2    1    2 ar
     3    1   16 1
     4    2    3 ar
     5    2   17 1
     6    3    4 ar
     7    3   18 1
     8    4    5 ar
     9    4   15 1
    10    5    6 ar
    11    5    7 1
    12    6   19 1
    13    7    8 am
    14    7   20 1
    15    8    9 2
    16    8   10 1
    17   10   14 1
    18   10   11 2
    19   11   12 1
    20   11   21 1
    21   12   13 2
    22   13   14 1
    23   15   22 1
@<TRIPOS>MOLECULE
ZINC04993968
   32    34     0     0     0
SMALL
USER_CHARGES
4-[(8-hydroxy-5-quinolyl)azo]benzoic acid
@<TRIPOS>ATOM
      1 C1         -1.3522    5.8792    0.0436 C.ar      1 <0>        -0.1717
      2 C2         -0.1225    5.2789    0.0296 C.ar      1 <0>        -0.0417
      3 C3         -0.0713    3.8782    0.0226 C.ar      1 <0>        -0.0539
      4 C4          1.2026    3.1597    0.0071 C.ar      1 <0>         0.0816
      5 C5          1.1875    1.7665    0.0002 C.ar      1 <0>        -0.0874
      6 C6         -0.0126    1.0758    0.0080 C.ar      1 <0>        -0.1301
      7 C7         -1.2251    1.7304    0.0173 C.ar      1 <0>         0.1448
      8 C8         -1.2789    3.1424    0.0302 C.ar      1 <0>         0.1056
      9 N1         -2.4481    3.7873    0.0439 N.ar      1 <0>        -0.4622
     10 C9         -2.5040    5.0976    0.0505 C.ar      1 <0>         0.1253
     11 O1         -2.3765    1.0135    0.0190 O.3       1 <0>        -0.4802
     12 N2          2.3791    3.8385   -0.0000 N.2       1 <0>        -0.2489
     13 N3          3.4960    3.1932   -0.0133 N.2       1 <0>        -0.1844
     14 C10         4.6785    3.8754   -0.0205 C.ar      1 <0>         0.0183
     15 C11         4.6793    5.2746   -0.0192 C.ar      1 <0>        -0.0960
     16 C12         5.8628    5.9567   -0.0196 C.ar      1 <0>        -0.0925
     17 C13         7.0732    5.2570   -0.0344 C.ar      1 <0>        -0.0622
     18 C14         7.0730    3.8588   -0.0419 C.ar      1 <0>        -0.1010
     19 C15         5.8901    3.1757   -0.0348 C.ar      1 <0>        -0.0561
     20 C16         8.3516    5.9945   -0.0416 C.2       1 <0>         0.4832
     21 O2          9.4035    5.3868   -0.0541 O.co2     1 <0>        -0.6224
     22 H1         -1.4288    6.9565    0.0490 H         1 <0>         0.1418
     23 H2          0.7829    5.8677    0.0245 H         1 <0>         0.1499
     24 H3          2.1195    1.2209   -0.0116 H         1 <0>         0.1478
     25 H4          0.0021   -0.0041    0.0020 H         1 <0>         0.1402
     26 H5         -3.4689    5.5828    0.0619 H         1 <0>         0.1614
     27 H6         -2.7061    0.8008    0.9029 H         1 <0>         0.3923
     28 H7          3.7443    5.8153   -0.0126 H         1 <0>         0.1323
     29 H8          5.8636    7.0367   -0.0134 H         1 <0>         0.1389
     30 H9          8.0083    3.3189   -0.0530 H         1 <0>         0.1405
     31 H10         5.8901    2.0957   -0.0399 H         1 <0>         0.1320
     32 O3          8.3521    7.3419   -0.0343 O.co2     1 <0>        -0.7448
@<TRIPOS>BOND
     1    1   10 ar
     2    1    2 ar
     3    1   22 1
     4    2    3 ar
     5    2   23 1
     6    3    8 ar
     7    3    4 ar
     8    4    5 ar
     9    4   12 1
    10    5    6 ar
    11    5   24 1
    12    6    7 ar
    13    6   25 1
    14    7    8 ar
    15    7   11 1
    16    8    9 ar
    17    9   10 ar
    18   10   26 1
    19   11   27 1
    20   12   13 2
    21   13   14 1
    22   14   19 ar
    23   14   15 ar
    24   15   16 ar
    25   15   28 1
    26   16   17 ar
    27   16   29 1
    28   17   18 ar
    29   17   20 1
    30   18   19 ar
    31   18   30 1
    32   19   31 1
    33   20   21 2
    34   20   32 1
@<TRIPOS>MOLECULE
ZINC04657707
   30    31     0     0     0
SMALL
USER_CHARGES

@<TRIPOS>ATOM
      1 C1         -0.0169    1.3927    0.0097 C.ar      1 <0>        -0.1189
      2 C2          1.1701    2.0952    0.0021 C.ar      1 <0>        -0.0085
      3 C3          2.3776    1.4197   -0.0135 C.ar      1 <0>        -0.6881
      4 C4          2.4039    0.0362   -0.0212 C.ar      1 <0>        -0.0082
      5 C5          1.2248   -0.6794   -0.0137 C.ar      1 <0>        -0.1633
      6 C6          0.0021   -0.0041    0.0020 C.ar      1 <0>         0.1595
      7 N1         -1.1716   -0.7075    0.0099 N.2       1 <0>        -0.3407
      8 N2         -1.1507   -1.9973    0.0028 N.2       1 <0>        -0.1189
      9 C7         -2.3153   -2.6953    0.0106 C.2       1 <0>        -0.1823
     10 C8         -2.4603   -4.0826    0.0102 C.2       1 <0>         0.4843
     11 N3         -3.7812   -4.3509    0.0201 N.pl3     1 <0>        -0.4786
     12 H1         -4.1714   -5.2390    0.0227 H         1 <0>         0.4480
     13 N4         -4.5026   -3.1542    0.0270 N.2       1 <0>        -0.3552
     14 C9         -3.6714   -2.1428    0.0275 C.2       1 <0>         0.3985
     15 N5         -4.0142   -0.7893    0.0384 N.pl3     1 <0>        -0.8133
     16 N6         -1.4372   -5.0117    0.0014 N.pl3     1 <0>        -0.8145
     17 S1          3.8890    2.3254   -0.0242 S.o2      1 <0>         2.7024
     18 O1          4.8718    1.4688   -0.5893 O.2       1 <0>        -0.9658
     19 O2          3.5916    3.6052   -0.5656 O.2       1 <0>        -0.9647
     20 N7          4.3249    2.5692    1.5547 N.pl3     1 <0>        -1.2508
     21 H2         -0.9586    1.9212    0.0260 H         1 <0>         0.1407
     22 H3          1.1570    3.1751    0.0081 H         1 <0>         0.1473
     23 H4          3.3500   -0.4846   -0.0334 H         1 <0>         0.1416
     24 H5          1.2468   -1.7591   -0.0205 H         1 <0>         0.1385
     25 H6         -3.3189   -0.1129    0.0348 H         1 <0>         0.4247
     26 H7         -4.9475   -0.5254    0.0494 H         1 <0>         0.4063
     27 H8         -0.5135   -4.7159   -0.0054 H         1 <0>         0.4301
     28 H9         -1.6430   -5.9597    0.0020 H         1 <0>         0.4127
     29 H10         3.7668    2.2268    2.2703 H         1 <0>         0.4166
     30 H11         5.1384    3.0543    1.7638 H         1 <0>         0.4205
@<TRIPOS>BOND
     1    1    6 ar
     2    1    2 ar
     3    1   21 1
     4    2    3 ar
     5    2   22 1
     6    3    4 ar
     7    3   17 1
     8    4    5 ar
     9    4   23 1
    10    5    6 ar
    11    5   24 1
    12    6    7 1
    13    7    8 2
    14    8    9 1
    15    9   14 1
    16    9   10 2
    17   10   11 1
    18   10   16 1
    19   11   12 1
    20   11   13 1
    21   13   14 2
    22   14   15 1
    23   15   25 1
    24   15   26 1
    25   16   27 1
    26   16   28 1
    27   17   18 2
    28   17   19 2
    29   17   20 1
    30   20   29 1
    31   20   30 1
@<TRIPOS>MOLECULE
ZINC04657707
   31    32     0     0     0
SMALL
USER_CHARGES

@<TRIPOS>ATOM
      1 C1         -0.0169    1.3926    0.0097 C.ar      1 <0>        -0.0876
      2 C2          1.1701    2.0951    0.0021 C.ar      1 <0>        -0.0144
      3 C3          2.3776    1.4196   -0.0130 C.ar      1 <0>        -0.6556
      4 C4          2.4039    0.0361   -0.0212 C.ar      1 <0>        -0.0149
      5 C5          1.2247   -0.6793   -0.0137 C.ar      1 <0>        -0.1291
      6 C6          0.0021   -0.0041    0.0020 C.ar      1 <0>         0.1093
      7 N1         -1.1718   -0.7076    0.0099 N.2       1 <0>        -0.2670
      8 N2         -1.1508   -1.9974    0.0028 N.2       1 <0>        -0.1344
      9 C7         -2.3159   -2.6956    0.0106 C.2       1 <0>        -0.1653
     10 C8         -3.6152   -2.1571    0.0202 C.2       1 <0>         0.5196
     11 N3         -4.4701   -3.1713    0.0256 N.pl3     1 <0>        -0.4412
     12 H1         -5.4370   -3.0935    0.0323 H         1 <0>         0.4740
     13 N4         -3.7511   -4.3711    0.0197 N.pl3     1 <0>        -0.4347
     14 C9         -2.4537   -4.0954    0.0045 C.cat     1 <0>         0.5595
     15 N5         -1.4202   -5.0199   -0.0112 N.pl3     1 <0>        -0.7714
     16 N6         -3.9432   -0.8097    0.0239 N.pl3     1 <0>        -0.7679
     17 S1          3.8890    2.3254   -0.0226 S.o2      1 <0>         2.6993
     18 O1          4.8722    1.4689   -0.5874 O.2       1 <0>        -0.9556
     19 O2          3.5920    3.6053   -0.5637 O.2       1 <0>        -0.9545
     20 N7          4.3241    2.5685    1.5566 N.pl3     1 <0>        -1.2480
     21 H2         -0.9586    1.9211    0.0260 H         1 <0>         0.1472
     22 H3          1.1570    3.1751    0.0077 H         1 <0>         0.1575
     23 H4          3.3500   -0.4847   -0.0337 H         1 <0>         0.1522
     24 H5          1.2466   -1.7591   -0.0205 H         1 <0>         0.1455
     25 H6         -0.4987   -4.7171   -0.0191 H         1 <0>         0.4505
     26 H7         -1.6188   -5.9693   -0.0143 H         1 <0>         0.4302
     27 H8         -3.2417   -0.1398    0.0197 H         1 <0>         0.4517
     28 H9         -4.8741   -0.5371    0.0307 H         1 <0>         0.4258
     29 H10         3.7655    2.2259    2.2718 H         1 <0>         0.4166
     30 H11         5.1374    3.0536    1.7664 H         1 <0>         0.4252
     31 H12        -4.1384   -5.2604    0.0218 H         1 <0>         0.4777
@<TRIPOS>BOND
     1    1    6 ar
     2    1    2 ar
     3    1   21 1
     4    2    3 ar
     5    2   22 1
     6    3    4 ar
     7    3   17 1
     8    4    5 ar
     9    4   23 1
    10    5    6 ar
    11    5   24 1
    12    6    7 1
    13    7    8 2
    14    8    9 1
    15    9   14 1
    16    9   10 2
    17   10   11 1
    18   10   16 1
    19   11   12 1
    20   11   13 1
    21   13   14 2
    22   13   31 1
    23   14   15 1
    24   15   25 1
    25   15   26 1
    26   16   27 1
    27   16   28 1
    28   17   18 2
    29   17   19 2
    30   17   20 1
    31   20   29 1
    32   20   30 1
@<TRIPOS>MOLECULE
ZINC04657707
   31    32     0     0     0
SMALL
USER_CHARGES

@<TRIPOS>ATOM
      1 C1         -0.0877    0.1510   -2.4641 C.ar      1 <0>        -0.1225
      2 C2          1.0370    0.7555   -2.9858 C.ar      1 <0>         0.0000
      3 C3          2.1296    1.0084   -2.1752 C.ar      1 <0>        -0.6646
      4 C4          2.1026    0.6571   -0.8371 C.ar      1 <0>        -0.0035
      5 C5          0.9846    0.0520   -0.3019 C.ar      1 <0>        -0.1329
      6 C6         -0.1221   -0.2059   -1.1141 C.ar      1 <0>         0.0338
      7 N1         -1.2349   -0.8055   -0.5897 N.2       1 <0>        -0.1278
      8 N2         -1.1545   -1.9941   -0.0947 N.2       1 <0>        -0.0616
      9 C7          0.0307   -2.6574   -0.1102 C.2       1 <0>        -0.2584
     10 C8          0.6742   -3.2487    0.9920 C.2       1 <0>         0.5492
     11 N3          1.8023   -3.7920    0.5542 N.pl3     1 <0>        -0.4322
     12 H1          2.4473   -4.2687    1.0998 H         1 <0>         0.4774
     13 N4          1.9107   -3.5663   -0.8220 N.pl3     1 <0>        -0.4317
     14 C9          0.8463   -2.8894   -1.2324 C.cat     1 <0>         0.5161
     15 N5          0.5863   -2.4815   -2.5320 N.pl3     1 <0>        -0.7899
     16 N6          0.2128   -3.2612    2.2997 N.pl3     1 <0>        -0.7780
     17 S1          3.5621    1.7809   -2.8503 S.o2      1 <0>         2.6998
     18 O1          4.6526    1.4136   -2.0166 O.2       1 <0>        -0.9571
     19 O2          3.5471    1.5152   -4.2462 O.2       1 <0>        -0.9527
     20 N7          3.3640    3.4159   -2.6775 N.pl3     1 <0>        -1.2460
     21 H2         -0.9415   -0.0418   -3.0969 H         1 <0>         0.1560
     22 H3          1.0651    1.0316   -4.0295 H         1 <0>         0.1619
     23 H4          2.9592    0.8568   -0.2103 H         1 <0>         0.1549
     24 H5          0.9651   -0.2220    0.7426 H         1 <0>         0.1365
     25 H6         -0.2233   -1.9862   -2.7321 H         1 <0>         0.4394
     26 H7          1.2142   -2.6914   -3.2410 H         1 <0>         0.4311
     27 H8         -0.5910   -2.7720    2.5350 H         1 <0>         0.4494
     28 H9          0.6940   -3.7591    2.9790 H         1 <0>         0.4308
     29 H10         2.5600    3.7659   -2.2629 H         1 <0>         0.4190
     30 H11         4.0520    4.0236   -2.9910 H         1 <0>         0.4275
     31 H12         2.6432   -3.8608   -1.3856 H         1 <0>         0.4762
@<TRIPOS>BOND
     1    1    6 ar
     2    1    2 ar
     3    1   21 1
     4    2    3 ar
     5    2   22 1
     6    3    4 ar
     7    3   17 1
     8    4    5 ar
     9    4   23 1
    10    5    6 ar
    11    5   24 1
    12    6    7 1
    13    7    8 2
    14    8    9 1
    15    9   14 1
    16    9   10 2
    17   10   11 1
    18   10   16 1
    19   11   12 1
    20   11   13 1
    21   13   14 2
    22   13   31 1
    23   14   15 1
    24   15   25 1
    25   15   26 1
    26   16   27 1
    27   16   28 1
    28   17   18 2
    29   17   19 2
    30   17   20 1
    31   20   29 1
    32   20   30 1
@<TRIPOS>MOLECULE
ZINC05614811
   22    23     0     0     0
SMALL
USER_CHARGES

@<TRIPOS>ATOM
      1 C1         -0.0167    1.3799    0.0096 C.ar      1 <0>        -0.1250
      2 C2          1.1681    2.0953    0.0022 C.ar      1 <0>        -0.1192
      3 C3          2.3774    1.4330   -0.0134 C.ar      1 <0>        -0.0814
      4 C4          2.4047    0.0349   -0.0211 C.ar      1 <0>         0.0839
      5 C5          1.2034   -0.6807   -0.0130 C.ar      1 <0>        -0.1282
      6 C6          0.0021   -0.0041    0.0020 C.ar      1 <0>        -0.1194
      7 N1          3.5981   -0.6279   -0.0369 N.2       1 <0>        -0.2541
      8 N2          3.6194   -1.9177   -0.0440 N.2       1 <0>        -0.1581
      9 C7          4.8058   -2.5767   -0.0597 C.2       1 <0>         0.2508
     10 N3          5.9924   -2.0116   -0.0632 N.2       1 <0>        -0.3590
     11 C8          6.9390   -2.9664   -0.0800 C.2       1 <0>        -0.0911
     12 C9          6.2958   -4.1999   -0.0874 C.2       1 <0>         0.4491
     13 N4          4.9598   -3.9422   -0.0685 N.pl3     1 <0>        -0.5952
     14 O1          6.8837   -5.4177   -0.1045 O.3       1 <0>        -0.6615
     15 C10         8.3548   -2.7521   -0.0892 C.1       1 <0>         0.3439
     16 N5          9.4780   -2.5820   -0.0965 N.1       1 <0>        -0.4768
     17 H1         -0.9607    1.9042    0.0260 H         1 <0>         0.1188
     18 H2          1.1454    3.1750    0.0081 H         1 <0>         0.1248
     19 H3          3.3011    1.9926   -0.0199 H         1 <0>         0.1318
     20 H4          1.2164   -1.7607   -0.0192 H         1 <0>         0.1313
     21 H5         -0.9266   -0.5554    0.0082 H         1 <0>         0.1193
     22 H6          4.2476   -4.6007   -0.0644 H         1 <0>         0.4153
@<TRIPOS>BOND
     1    1    6 ar
     2    1    2 ar
     3    1   17 1
     4    2    3 ar
     5    2   18 1
     6    3    4 ar
     7    3   19 1
     8    4    5 ar
     9    4    7 1
    10    5    6 ar
    11    5   20 1
    12    6   21 1
    13    7    8 2
    14    8    9 1
    15    9   13 1
    16    9   10 2
    17   10   11 1
    18   11   12 2
    19   11   15 1
    20   12   13 1
    21   12   14 1
    22   13   22 1
    23   15   16 3
@<TRIPOS>MOLECULE
ZINC05614811
   24    25     0     0     0
SMALL
USER_CHARGES
5-hydroxy-2-phenylazo-1H-imidazole-4-carbonitrile
@<TRIPOS>ATOM
      1 C1          1.1776    1.7823    0.0004 C.ar      1 <0>        -0.0139
      2 C2         -0.0126    1.0758    0.0080 C.ar      1 <0>        -0.1375
      3 C3         -1.2169    1.7472    0.0173 C.ar      1 <0>        -0.0388
      4 C4         -1.2337    3.1454    0.0298 C.ar      1 <0>        -0.0023
      5 C5         -0.0270    3.8520    0.0216 C.ar      1 <0>         0.0040
      6 C6          1.1692    3.1664    0.0070 C.ar      1 <0>        -0.1359
      7 N1         -2.4221    3.8171    0.0448 N.2       1 <0>        -0.0905
      8 N2         -3.5333    3.1620    0.0523 N.2       1 <0>        -0.2754
      9 C7         -4.7147    3.8298    0.0672 C.cat     1 <0>         0.5240
     10 N3         -5.9597    3.2483    0.0764 N.pl3     1 <0>        -0.4996
     11 H1         -6.1554    2.2676    0.0734 H         1 <0>         0.4819
     12 C8         -6.8771    4.2532    0.0904 C.2       1 <0>         0.3431
     13 C9         -6.1608    5.4457    0.0894 C.2       1 <0>         0.1003
     14 C10        -6.7171    6.7652    0.1008 C.1       1 <0>         0.2426
     15 N4         -7.1584    7.8119    0.1098 N.1       1 <0>        -0.2988
     16 O1         -8.2228    4.1188    0.1021 O.3       1 <0>        -0.4139
     17 H2          2.1177    1.2509   -0.0111 H         1 <0>         0.1494
     18 H3          0.0021   -0.0041    0.0020 H         1 <0>         0.1481
     19 H4         -2.1448    1.1945    0.0187 H         1 <0>         0.1498
     20 H5         -0.0320    4.9320    0.0264 H         1 <0>         0.1525
     21 H6          2.1019    3.7107    0.0003 H         1 <0>         0.1537
     22 H7         -8.6059    4.0749    0.9889 H         1 <0>         0.4358
     23 N5         -4.8531    5.1360    0.0808 N.pl3     1 <0>        -0.4676
     24 H8         -4.0824    5.8145    0.0843 H         1 <0>         0.4890
@<TRIPOS>BOND
     1    1    6 ar
     2    1    2 ar
     3    1   17 1
     4    2    3 ar
     5    2   18 1
     6    3    4 ar
     7    3   19 1
     8    4    5 ar
     9    4    7 1
    10    5    6 ar
    11    5   20 1
    12    6   21 1
    13    7    8 2
    14    8    9 1
    15    9   10 1
    16    9   23 2
    17   10   11 1
    18   10   12 1
    19   12   13 2
    20   12   16 1
    21   13   14 1
    22   13   23 1
    23   14   15 3
    24   16   22 1
    25   23   24 1
@<TRIPOS>MOLECULE
ZINC01515385
   15    16     0     0     0
SMALL
USER_CHARGES
2-aminothiazolo[5,4-e]pyrimidine-5,7-diol
@<TRIPOS>ATOM
      1 C1          1.8477    1.8324   -1.1869 C.2       1 <0>        -0.4252
      2 C2          3.1312    2.4251   -1.2152 C.2       1 <0>         0.4486
      3 N1          3.6353    2.6697   -2.4294 N.2       1 <0>        -0.6020
      4 C3          2.9849    2.3804   -3.5391 C.2       1 <0>         0.4352
      5 S1          1.4665    1.6734   -2.9125 S.3       1 <0>         0.0149
      6 N2          3.3749    2.5736   -4.8464 N.pl3     1 <0>        -0.8136
      7 N3          3.6840    2.6684   -0.0028 N.2       1 <0>        -0.5834
      8 C4          3.0534    2.3664    1.1097 C.2       1 <0>         0.6145
      9 N4          1.8484    1.8161    1.1400 N.am      1 <0>        -0.6160
     10 C5          1.2197    1.5310   -0.0014 C.2       1 <0>         0.5413
     11 O1         -0.0110    0.9628    0.0073 O.2       1 <0>        -0.6638
     12 O2          3.6653    2.6373    2.2883 O.3       1 <0>        -0.6693
     13 H1          2.7088    2.2742   -5.6690 H         1 <0>         0.4440
     14 H2          4.3523    3.0272   -5.0675 H         1 <0>         0.4377
     15 H3          1.3687    1.5954    2.1050 H         1 <0>         0.4370
@<TRIPOS>BOND
     1    1    5 1
     2    1   10 1
     3    1    2 2
     4    2    3 1
     5    2    7 1
     6    3    4 2
     7    4    5 1
     8    4    6 1
     9    6   13 1
    10    6   14 1
    11    7    8 2
    12    8    9 1
    13    8   12 1
    14    9   10 am
    15    9   15 1
    16   10   11 2
@<TRIPOS>MOLECULE
ZINC13647791
   43    46     0     0     0
SMALL
USER_CHARGES

@<TRIPOS>ATOM
      1 C1         -0.0166    1.3699    0.0096 C.ar      1 <0>        -0.0800
      2 C2          1.1572    2.1045    0.0023 C.ar      1 <0>        -0.1190
      3 C3          2.3694    1.4373   -0.0129 C.ar      1 <0>        -0.0394
      4 C4          2.3887    0.0627   -0.0205 C.ar      1 <0>        -0.1883
      5 C5          1.2179   -0.7095   -0.0134 C.ar      1 <0>         0.1191
      6 C6          0.0021   -0.0041    0.0020 C.ar      1 <0>        -0.1207
      7 N1          1.3955   -2.0811   -0.0225 N.pl3     1 <0>        -0.6290
      8 C7          2.6545   -2.6113   -0.0374 C.2       1 <0>         0.2414
      9 C8          3.0385   -3.9533   -0.0487 C.2       1 <0>        -0.1370
     10 C9          2.0433   -4.9829   -0.0452 C.1       1 <0>         0.2720
     11 N2          1.2537   -5.7996   -0.0424 N.1       1 <0>        -0.4249
     12 C10         4.4680   -4.3104   -0.0642 C.ar      1 <0>         0.3088
     13 C11         4.8666   -5.6555   -0.0815 C.ar      1 <0>        -0.2844
     14 C12         6.2058   -5.9409   -0.0954 C.ar      1 <0>         0.2007
     15 N3          7.0848   -4.9482   -0.0923 N.ar      1 <0>        -0.5794
     16 C13         6.6886   -3.6836   -0.0759 C.ar      1 <0>         0.5826
     17 N4          5.4049   -3.3593   -0.0676 N.ar      1 <0>        -0.5825
     18 N5          7.6395   -2.6778   -0.0728 N.pl3     1 <0>        -0.7005
     19 C14         9.0646   -3.0170   -0.0875 C.3       1 <0>         0.1450
     20 C15         9.8948   -1.7318   -0.0805 C.3       1 <0>        -0.0888
     21 C16        11.3608   -2.0808   -0.0957 C.ar      1 <0>        -0.1340
     22 C17        12.0518   -2.2615    1.0929 C.ar      1 <0>        -0.0689
     23 C18        13.3992   -2.5815    1.0307 C.ar      1 <0>        -0.1701
     24 C19        14.0048   -2.7089   -0.2053 C.ar      1 <0>         0.0971
     25 N6         13.3163   -2.5294   -1.3154 N.ar      1 <0>        -0.4833
     26 C20        12.0320   -2.2302   -1.2943 C.ar      1 <0>         0.1060
     27 S1          3.6842   -1.1528   -0.0394 S.3       1 <0>         0.1837
     28 H1         -0.9648    1.8866    0.0260 H         1 <0>         0.1374
     29 H2          1.1270    3.1841    0.0081 H         1 <0>         0.1413
     30 H3          3.2952    1.9934   -0.0191 H         1 <0>         0.1400
     31 H4         -0.9301   -0.5494    0.0080 H         1 <0>         0.1308
     32 H5          0.6237   -2.6686   -0.0180 H         1 <0>         0.4164
     33 H6          4.1333   -6.4484   -0.0833 H         1 <0>         0.1381
     34 H7          6.5434   -6.9667   -0.1085 H         1 <0>         0.1667
     35 H8          7.3622   -1.7483   -0.0608 H         1 <0>         0.4130
     36 H9          9.3060   -3.6103    0.7944 H         1 <0>         0.0692
     37 H10         9.2920   -3.5916   -0.9854 H         1 <0>         0.0705
     38 H11         9.6534   -1.1385   -0.9624 H         1 <0>         0.0847
     39 H12         9.6674   -1.1572    0.8174 H         1 <0>         0.0829
     40 H13        11.5523   -2.1551    2.0445 H         1 <0>         0.1348
     41 H14        13.9686   -2.7291    1.9364 H         1 <0>         0.1364
     42 H15        15.0542   -2.9580   -0.2624 H         1 <0>         0.1564
     43 H16        11.4998   -2.0959   -2.2244 H         1 <0>         0.1551
@<TRIPOS>BOND
     1    1    6 ar
     2    1    2 ar
     3    1   28 1
     4    2    3 ar
     5    2   29 1
     6    3    4 ar
     7    3   30 1
     8    4   27 1
     9    4    5 ar
    10    5    6 ar
    11    5    7 1
    12    6   31 1
    13    7    8 1
    14    7   32 1
    15    8    9 2
    16    8   27 1
    17    9   10 1
    18    9   12 1
    19   10   11 3
    20   12   17 ar
    21   12   13 ar
    22   13   14 ar
    23   13   33 1
    24   14   15 ar
    25   14   34 1
    26   15   16 ar
    27   16   17 ar
    28   16   18 1
    29   18   19 1
    30   18   35 1
    31   19   20 1
    32   19   36 1
    33   19   37 1
    34   20   21 1
    35   20   38 1
    36   20   39 1
    37   21   26 ar
    38   21   22 ar
    39   22   23 ar
    40   22   40 1
    41   23   24 ar
    42   23   41 1
    43   24   25 ar
    44   24   42 1
    45   25   26 ar
    46   26   43 1
@<TRIPOS>MOLECULE
ZINC16052569
   50    53     0     0     0
SMALL
USER_CHARGES

@<TRIPOS>ATOM
      1 C1         -0.0184    1.5028    0.0103 C.3       1 <0>        -0.0807
      2 C2          0.0021   -0.0041    0.0020 C.2       1 <0>         0.1088
      3 C3          0.0083   -0.8581   -1.1820 C.ar      1 <0>        -0.1763
      4 C4         -0.0019   -0.6082   -2.5573 C.ar      1 <0>        -0.0083
      5 C5          0.0079   -1.6738   -3.4431 C.ar      1 <0>        -0.1061
      6 C6          0.0279   -2.9891   -2.9631 C.ar      1 <0>        -0.0534
      7 C7          0.0380   -3.2410   -1.6234 C.ar      1 <0>        -0.1371
      8 C8          0.0285   -2.1860   -0.7124 C.ar      1 <0>         0.1440
      9 N1          0.0337   -2.1193    0.6566 N.pl3     1 <0>        -0.5045
     10 H1          0.0468   -2.8812    1.2569 H         1 <0>         0.4444
     11 N2          0.0230   -0.7772    1.0497 N.2       1 <0>        -0.2435
     12 C9         -0.0034   -1.4202   -4.9053 C.ar      1 <0>        -0.0271
     13 C10         0.0004   -2.4846   -5.8096 C.ar      1 <0>        -0.1014
     14 C11        -0.0110   -2.1940   -7.1677 C.ar      1 <0>         0.0698
     15 C12        -0.0257   -0.8671   -7.5756 C.ar      1 <0>         0.0161
     16 N3         -0.0289    0.1132   -6.6940 N.ar      1 <0>        -0.4368
     17 C13        -0.0238   -0.1167   -5.3969 C.ar      1 <0>         0.0812
     18 O1         -0.0074   -3.1961   -8.0859 O.3       1 <0>        -0.3231
     19 C14        -0.0198   -2.8144   -9.4629 C.3       1 <0>         0.0274
     20 C15        -0.0136   -4.0682  -10.3397 C.3       1 <0>         0.0437
     21 H2          0.8359   -4.6958  -10.0703 H         1 <0>         0.1553
     22 C16         0.0989   -3.6615  -11.8104 C.3       1 <0>        -0.0972
     23 C17         0.2286   -4.8962  -12.6646 C.ar      1 <0>        -0.1303
     24 C18         1.4792   -5.4136  -12.9461 C.ar      1 <0>        -0.1030
     25 C19         1.5982   -6.5462  -13.7296 C.ar      1 <0>        -0.1053
     26 C20         0.4666   -7.1617  -14.2312 C.ar      1 <0>        -0.1014
     27 C21        -0.7840   -6.6448  -13.9490 C.ar      1 <0>        -0.1075
     28 C22        -0.9032   -5.5147  -13.1619 C.ar      1 <0>        -0.1401
     29 N4         -1.2605   -4.8167  -10.1327 N.4       1 <0>        -0.6365
     30 H3          1.0042    1.8801    0.0026 H         1 <0>         0.0878
     31 H4         -0.5455    1.8639   -0.8728 H         1 <0>         0.0842
     32 H5         -0.5286    1.8543    0.9071 H         1 <0>         0.0843
     33 H6         -0.0177    0.4067   -2.9264 H         1 <0>         0.1366
     34 H7          0.0350   -3.8127   -3.6617 H         1 <0>         0.1316
     35 H8          0.0531   -4.2604   -1.2670 H         1 <0>         0.1332
     36 H9          0.0123   -3.5071   -5.4619 H         1 <0>         0.1476
     37 H10        -0.0343   -0.6345   -8.6302 H         1 <0>         0.1565
     38 H11        -0.0314    0.7142   -4.7071 H         1 <0>         0.1670
     39 H12        -0.9167   -2.2306   -9.6700 H         1 <0>         0.0927
     40 H13         0.8631   -2.2138   -9.6814 H         1 <0>         0.1143
     41 H14        -0.7936   -3.1088  -12.1038 H         1 <0>         0.1038
     42 H15         0.9777   -3.0313  -11.9469 H         1 <0>         0.1255
     43 H16         2.3632   -4.9328  -12.5542 H         1 <0>         0.1308
     44 H17         2.5752   -6.9501  -13.9502 H         1 <0>         0.1335
     45 H18         0.5596   -8.0462  -14.8440 H         1 <0>         0.1330
     46 H19        -1.6681   -7.1255  -14.3411 H         1 <0>         0.1326
     47 H20        -1.8805   -5.1130  -12.9382 H         1 <0>         0.1228
     48 H21        -1.2564   -5.6436  -10.7110 H         1 <0>         0.4365
     49 H22        -1.3347   -5.0850   -9.1628 H         1 <0>         0.4422
     50 H23        -2.0469   -4.2358  -10.3821 H         1 <0>         0.4324
@<TRIPOS>BOND
     1    1    2 1
     2    1   30 1
     3    1   31 1
     4    1   32 1
     5    2   11 2
     6    2    3 1
     7    3    8 ar
     8    3    4 ar
     9    4    5 ar
    10    4   33 1
    11    5    6 ar
    12    5   12 1
    13    6    7 ar
    14    6   34 1
    15    7    8 ar
    16    7   35 1
    17    8    9 1
    18    9   10 1
    19    9   11 1
    20   12   17 ar
    21   12   13 ar
    22   13   14 ar
    23   13   36 1
    24   14   15 ar
    25   14   18 1
    26   15   16 ar
    27   15   37 1
    28   16   17 ar
    29   17   38 1
    30   18   19 1
    31   19   20 1
    32   19   39 1
    33   19   40 1
    34   20   21 1
    35   20   22 1
    36   20   29 1
    37   22   23 1
    38   22   41 1
    39   22   42 1
    40   23   28 ar
    41   23   24 ar
    42   24   25 ar
    43   24   43 1
    44   25   26 ar
    45   25   44 1
    46   26   27 ar
    47   26   45 1
    48   27   28 ar
    49   27   46 1
    50   28   47 1
    51   29   48 1
    52   29   49 1
    53   29   50 1
@<TRIPOS>MOLECULE
ZINC38995988
   51    55     0     0     0
SMALL
USER_CHARGES

@<TRIPOS>ATOM
      1 C1         -0.0167    1.3832    0.0096 C.ar      1 <0>        -0.0900
      2 C2          1.1624    2.0986    0.0022 C.ar      1 <0>        -0.1093
      3 C3          2.3769    1.4282   -0.0129 C.ar      1 <0>         0.0585
      4 C4          2.4020    0.0222   -0.0207 C.ar      1 <0>         0.0556
      5 C5          1.1969   -0.6870   -0.0127 C.ar      1 <0>        -0.0377
      6 C6          0.0021   -0.0041    0.0020 C.ar      1 <0>        -0.0874
      7 C7         -1.2962   -0.7693    0.0108 C.3       1 <0>         0.0982
      8 N1         -1.7317   -1.0105   -1.3713 N.3       1 <0>        -0.5319
      9 C8         -2.0812    0.2506   -2.0413 C.3       1 <0>         0.0140
     10 C9         -2.4711   -0.0400   -3.4930 C.3       1 <0>         0.0628
     11 O1         -3.5484   -0.9803   -3.5128 O.3       1 <0>        -0.3858
     12 C10        -3.2423   -2.2203   -2.8694 C.3       1 <0>         0.0630
     13 C11        -2.8603   -1.9518   -1.4114 C.3       1 <0>         0.0170
     14 N2          3.7040   -0.3552   -0.0358 N.2       1 <0>        -0.4791
     15 C12         4.4709    0.7083   -0.0379 C.2       1 <0>         0.3677
     16 N3          3.6969    1.8375   -0.0241 N.pl3     1 <0>        -0.5827
     17 C13         5.9482    0.6906   -0.0529 C.2       1 <0>         0.1128
     18 C14         6.7655   -0.4629   -0.0734 C.2       1 <0>         0.0625
     19 C15         8.0574   -0.0542   -0.0820 C.2       1 <0>         0.0467
     20 N4          8.0646    1.3049   -0.0675 N.pl3     1 <0>        -0.4518
     21 H1          8.8531    1.8699   -0.0696 H         1 <0>         0.4522
     22 N5          6.7361    1.7481   -0.0552 N.2       1 <0>        -0.2610
     23 N6          6.3179   -1.7953   -0.0825 N.am      1 <0>        -0.6484
     24 C16         7.2097   -2.8056   -0.1024 C.2       1 <0>         0.7112
     25 O2          8.4015   -2.5644   -0.1124 O.2       1 <0>        -0.5835
     26 N7          6.7806   -4.0832   -0.1111 N.am      1 <0>        -0.7107
     27 C17         7.7500   -5.1814   -0.1326 C.3       1 <0>         0.0984
     28 C18         7.4710   -6.3514   -1.0782 C.3       1 <0>        -0.1941
     29 C19         7.3013   -6.5309    0.4317 C.3       1 <0>        -0.1895
     30 H2         -0.9613    1.9065    0.0260 H         1 <0>         0.1292
     31 H3          1.1404    3.1784    0.0078 H         1 <0>         0.1265
     32 H4          1.2037   -1.7669   -0.0185 H         1 <0>         0.1329
     33 H5         -1.1522   -1.7232    0.5181 H         1 <0>         0.0877
     34 H6         -2.0559   -0.1898    0.5352 H         1 <0>         0.0479
     35 H7         -2.9207    0.7164   -1.5252 H         1 <0>         0.0435
     36 H8         -1.2233    0.9227   -2.0224 H         1 <0>         0.0909
     37 H9         -2.7857    0.8844   -3.9773 H         1 <0>         0.0978
     38 H10        -1.6147   -0.4564   -4.0234 H         1 <0>         0.0598
     39 H11        -4.1148   -2.8728   -2.9028 H         1 <0>         0.0988
     40 H12        -2.4084   -2.7001   -3.3817 H         1 <0>         0.0605
     41 H13        -2.5711   -2.8874   -0.9327 H         1 <0>         0.0882
     42 H14        -3.7122   -1.5212   -0.8852 H         1 <0>         0.0444
     43 H15         8.9269   -0.6946   -0.0972 H         1 <0>         0.2141
     44 H16         5.3672   -1.9876   -0.0745 H         1 <0>         0.4224
     45 H17         5.8299   -4.2755   -0.1031 H         1 <0>         0.4015
     46 H18         8.7902   -4.8932    0.0188 H         1 <0>         0.1414
     47 H19         6.5663   -6.3041   -1.6842 H         1 <0>         0.0976
     48 H20         8.3279   -6.8332   -1.5492 H         1 <0>         0.1039
     49 H21         8.0465   -7.1307    0.9541 H         1 <0>         0.1053
     50 H22         6.2849   -6.6016    0.8191 H         1 <0>         0.0980
     51 H23         4.0155    2.7537   -0.0227 H         1 <0>         0.4299
@<TRIPOS>BOND
     1    1    6 ar
     2    1    2 ar
     3    1   30 1
     4    2    3 ar
     5    2   31 1
     6    3   16 1
     7    3    4 ar
     8    4    5 ar
     9    4   14 1
    10    5    6 ar
    11    5   32 1
    12    6    7 1
    13    7    8 1
    14    7   33 1
    15    7   34 1
    16    8   13 1
    17    8    9 1
    18    9   10 1
    19    9   35 1
    20    9   36 1
    21   10   11 1
    22   10   37 1
    23   10   38 1
    24   11   12 1
    25   12   13 1
    26   12   39 1
    27   12   40 1
    28   13   41 1
    29   13   42 1
    30   14   15 2
    31   15   16 1
    32   15   17 1
    33   16   51 1
    34   17   22 2
    35   17   18 1
    36   18   19 2
    37   18   23 1
    38   19   20 1
    39   19   43 1
    40   20   21 1
    41   20   22 1
    42   23   24 am
    43   23   44 1
    44   24   25 2
    45   24   26 am
    46   26   27 1
    47   26   45 1
    48   27   29 1
    49   27   28 1
    50   27   46 1
    51   28   29 1
    52   28   47 1
    53   28   48 1
    54   29   49 1
    55   29   50 1
@<TRIPOS>MOLECULE
ZINC06718642
   44    46     0     0     0
SMALL
USER_CHARGES
1-[2-amino-7-(3-hydroxypropyl)-9-(p-tolyl)-3,5,7-triazabicyclo[4.3.0]nona-2,4,8,10-tetraen-8-yl]-2-fluoro-ethanone
@<TRIPOS>ATOM
      1 C1         -0.3086   -6.7342   -4.2199 C.3       1 <0>        -0.1202
      2 C2         -0.2380   -5.5323   -3.3135 C.ar      1 <0>        -0.0734
      3 C3         -1.2449   -5.3043   -2.3922 C.ar      1 <0>        -0.1189
      4 C4         -1.1861   -4.2063   -1.5593 C.ar      1 <0>        -0.1029
      5 C5         -0.1080   -3.3240   -1.6476 C.ar      1 <0>        -0.0516
      6 C6          0.9016   -3.5568   -2.5831 C.ar      1 <0>        -0.0906
      7 C7          0.8333   -4.6615   -3.4065 C.ar      1 <0>        -0.1155
      8 C8         -0.0387   -2.1445   -0.7581 C.2       1 <0>        -0.0252
      9 C9          0.1543   -2.1487    0.6904 C.ar      1 <0>        -0.2585
     10 C10         0.3258   -3.1516    1.6613 C.ar      1 <0>         0.5060
     11 N1          0.4796   -2.7822    2.9297 N.ar      1 <0>        -0.6024
     12 C11         0.4721   -1.5071    3.2724 C.ar      1 <0>         0.3757
     13 N2          0.3151   -0.5355    2.3995 N.ar      1 <0>        -0.5717
     14 C12         0.1531   -0.8016    1.1032 C.ar      1 <0>         0.3655
     15 N3         -0.0266   -0.0195   -0.0022 N.pl3     1 <0>        -0.4316
     16 C13        -0.1493   -0.8097   -1.1320 C.2       1 <0>        -0.0111
     17 C14        -0.3505   -0.3386   -2.4464 C.2       1 <0>         0.3990
     18 O1          0.6036   -0.1211   -3.1664 O.2       1 <0>        -0.3919
     19 C15        -1.7488   -0.1052   -2.9575 C.3       1 <0>         0.0406
     20 F1         -1.6987    0.2390   -4.3126 F         1 <0>        -0.1899
     21 C16        -0.0871    1.4443    0.0075 C.3       1 <0>         0.1088
     22 C17         1.3204    2.0141   -0.1794 C.3       1 <0>        -0.1409
     23 C18         1.2572    3.5428   -0.1693 C.3       1 <0>         0.0822
     24 O2          2.5718    4.0751   -0.3438 O.3       1 <0>        -0.5712
     25 N4          0.3346   -4.4851    1.3068 N.pl3     1 <0>        -0.8214
     26 H1         -0.8373   -6.4684   -5.1352 H         1 <0>         0.0744
     27 H2          0.7009   -7.0635   -4.4660 H         1 <0>         0.0691
     28 H3         -0.8404   -7.5400   -3.7140 H         1 <0>         0.0692
     29 H4         -2.0785   -5.9877   -2.3250 H         1 <0>         0.1287
     30 H5         -1.9727   -4.0294   -0.8406 H         1 <0>         0.1269
     31 H6          1.7362   -2.8756   -2.6595 H         1 <0>         0.1261
     32 H7          1.6158   -4.8450   -4.1279 H         1 <0>         0.1280
     33 H8          0.6008   -1.2508    4.3136 H         1 <0>         0.2032
     34 H9         -2.2883   -0.9397   -2.8453 H         1 <0>         0.1014
     35 H10        -2.2112    0.7050   -2.3937 H         1 <0>         0.1136
     36 H11        -0.7286    1.7868   -0.8045 H         1 <0>         0.0897
     37 H12        -0.4935    1.7848    0.9599 H         1 <0>         0.1094
     38 H13         1.9619    1.6716    0.6326 H         1 <0>         0.0832
     39 H14         1.7268    1.6736   -1.1318 H         1 <0>         0.0783
     40 H15         0.6158    3.8853   -0.9813 H         1 <0>         0.0485
     41 H16         0.8509    3.8833    0.7831 H         1 <0>         0.0525
     42 H17         2.6077    5.0414   -0.3475 H         1 <0>         0.3847
     43 H18         0.4541   -5.1668    1.9865 H         1 <0>         0.4109
     44 H19         0.2213   -4.7409    0.3780 H         1 <0>         0.4132
@<TRIPOS>BOND
     1    1    2 1
     2    1   26 1
     3    1   27 1
     4    1   28 1
     5    2    7 ar
     6    2    3 ar
     7    3    4 ar
     8    3   29 1
     9    4    5 ar
    10    4   30 1
    11    5    6 ar
    12    5    8 1
    13    6    7 ar
    14    6   31 1
    15    7   32 1
    16    8   16 2
    17    8    9 1
    18    9   14 ar
    19    9   10 ar
    20   10   11 ar
    21   10   25 1
    22   11   12 ar
    23   12   13 ar
    24   12   33 1
    25   13   14 ar
    26   14   15 1
    27   15   16 1
    28   15   21 1
    29   16   17 1
    30   17   18 2
    31   17   19 1
    32   19   20 1
    33   19   34 1
    34   19   35 1
    35   21   22 1
    36   21   36 1
    37   21   37 1
    38   22   23 1
    39   22   38 1
    40   22   39 1
    41   23   24 1
    42   23   40 1
    43   23   41 1
    44   24   42 1
    45   25   43 1
    46   25   44 1
@<TRIPOS>MOLECULE
ZINC03816310
   51    55     0     0     0
SMALL
USER_CHARGES
4-amino-5-fluoro-3-[5-(4-methylpiperazin-1-yl)-3H-benzoimidazol-2-yl]-1H-quinolin-2-one
@<TRIPOS>ATOM
      1 C1         -4.4670    0.8494    3.0633 C.3       1 <0>        -0.0407
      2 C2         -3.3790    0.9463    0.9019 C.3       1 <0>         0.0019
      3 C3         -3.5151    1.4789   -0.5264 C.3       1 <0>         0.0203
      4 N1         -3.5799    2.9467   -0.4951 N.pl3     1 <0>        -0.4822
      5 C4         -4.7239    3.4034    0.3063 C.3       1 <0>         0.0231
      6 C5         -4.5878    2.8708    1.7347 C.3       1 <0>         0.0021
      7 C6         -3.6324    3.4738   -1.7895 C.ar      1 <0>         0.0898
      8 C7         -3.6187    2.6172   -2.8884 C.ar      1 <0>        -0.1658
      9 C8         -3.6694    3.1157   -4.1588 C.ar      1 <0>        -0.0428
     10 C9         -3.7362    4.4973   -4.3655 C.ar      1 <0>         0.0571
     11 C10        -3.7506    5.3641   -3.2589 C.ar      1 <0>         0.0655
     12 C11        -3.7036    4.8454   -1.9734 C.ar      1 <0>        -0.1134
     13 N2         -3.8198    6.6467   -3.7722 N.pl3     1 <0>        -0.5851
     14 H1         -3.8464    7.4962   -3.2453 H         1 <0>         0.4436
     15 C12        -3.8451    6.5353   -5.1390 C.2       1 <0>         0.4046
     16 N3         -3.7957    5.2687   -5.4809 N.2       1 <0>        -0.5294
     17 C13        -3.9164    7.6652   -6.0804 C.2       1 <0>        -0.3025
     18 C14        -4.0559    7.4305   -7.4504 C.2       1 <0>         0.3760
     19 C15        -4.1228    8.5898   -8.3476 C.ar      1 <0>        -0.1878
     20 C16        -4.0447    9.8830   -7.7997 C.ar      1 <0>         0.2450
     21 C17        -4.1078   10.9864   -8.6429 C.ar      1 <0>        -0.1734
     22 C18        -4.2458   10.8081  -10.0035 C.ar      1 <0>        -0.0185
     23 C19        -4.3231    9.5350  -10.5468 C.ar      1 <0>        -0.1801
     24 C20        -4.2628    8.4239   -9.7304 C.ar      1 <0>         0.1680
     25 F1         -4.3388    7.1843  -10.2623 F         1 <0>        -0.1206
     26 N4         -3.9076   10.0470   -6.4354 N.am      1 <0>        -0.6368
     27 H2         -3.8498   10.9715   -6.0585 H         1 <0>         0.4300
     28 C21        -3.8500    8.9949   -5.6023 C.2       1 <0>         0.5826
     29 O1         -3.7334    9.1908   -4.4050 O.2       1 <0>        -0.5600
     30 N5         -4.1288    6.1500   -7.9440 N.pl3     1 <0>        -0.8025
     31 H3         -3.5472    1.1734    3.5502 H         1 <0>         0.1241
     32 H4         -5.3249    1.2032    3.6351 H         1 <0>         0.1225
     33 H5         -4.4877   -0.2393    3.0134 H         1 <0>         0.1228
     34 H6         -3.3598   -0.1434    0.8835 H         1 <0>         0.1376
     35 H7         -2.4541    1.3189    1.3424 H         1 <0>         0.1399
     36 H8         -2.6529    1.1655   -1.1151 H         1 <0>         0.1307
     37 H9         -4.4260    1.0841   -0.9765 H         1 <0>         0.0717
     38 H10        -4.7431    4.4931    0.3248 H         1 <0>         0.1261
     39 H11        -5.6486    3.0309   -0.1345 H         1 <0>         0.0691
     40 H12        -3.6769    3.2656    2.1847 H         1 <0>         0.1400
     41 H13        -5.4498    3.1846    2.3235 H         1 <0>         0.1367
     42 H14        -3.5672    1.5496   -2.7341 H         1 <0>         0.1314
     43 H15        -3.6582    2.4431   -5.0037 H         1 <0>         0.1346
     44 H16        -3.7183    5.5073   -1.1202 H         1 <0>         0.1268
     45 H17        -4.0491   11.9836   -8.2323 H         1 <0>         0.1496
     46 H18        -4.2944   11.6697  -10.6529 H         1 <0>         0.1516
     47 H19        -4.4307    9.4121  -11.6144 H         1 <0>         0.1515
     48 H20        -4.3218    5.4103   -7.3468 H         1 <0>         0.4285
     49 H21        -3.9874    5.9859   -8.8895 H         1 <0>         0.4092
     50 N6         -4.5458    1.3938    1.6909 N.4       1 <0>        -0.3998
     51 H22        -5.4033    1.0486    1.2438 H         1 <0>         0.4274
@<TRIPOS>BOND
     1    1   31 1
     2    1   32 1
     3    1   33 1
     4    1   50 1
     5    2    3 1
     6    2   34 1
     7    2   35 1
     8    2   50 1
     9    3    4 1
    10    3   36 1
    11    3   37 1
    12    4    5 1
    13    4    7 1
    14    5    6 1
    15    5   38 1
    16    5   39 1
    17    6   40 1
    18    6   41 1
    19    6   50 1
    20    7   12 ar
    21    7    8 ar
    22    8    9 ar
    23    8   42 1
    24    9   10 ar
    25    9   43 1
    26   10   16 1
    27   10   11 ar
    28   11   12 ar
    29   11   13 1
    30   12   44 1
    31   13   14 1
    32   13   15 1
    33   15   16 2
    34   15   17 1
    35   17   28 1
    36   17   18 2
    37   18   19 1
    38   18   30 1
    39   19   24 ar
    40   19   20 ar
    41   20   21 ar
    42   20   26 1
    43   21   22 ar
    44   21   45 1
    45   22   23 ar
    46   22   46 1
    47   23   24 ar
    48   23   47 1
    49   24   25 1
    50   26   27 1
    51   26   28 am
    52   28   29 2
    53   30   48 1
    54   30   49 1
    55   50   51 1
@<TRIPOS>MOLECULE
ZINC00911797
   32    34     0     0     0
SMALL
USER_CHARGES
2-(4-aminophenyl)-4-methyl-1H-benzoimidazol-5-amine
@<TRIPOS>ATOM
      1 C1          3.8626   -3.0700   -0.0547 C.3       1 <0>        -0.0954
      2 C2          4.6219   -1.7683   -0.0537 C.ar      1 <0>        -0.1289
      3 C3          6.0042   -1.7710   -0.0668 C.ar      1 <0>         0.2064
      4 C4          6.7111   -0.5702   -0.0664 C.ar      1 <0>        -0.1621
      5 C5          6.0403    0.6340   -0.0533 C.ar      1 <0>        -0.0719
      6 C6          4.6531    0.6541   -0.0400 C.ar      1 <0>         0.0041
      7 C7          3.9313   -0.5526   -0.0399 C.ar      1 <0>         0.1021
      8 N1          2.6143   -0.2320   -0.0195 N.2       1 <0>        -0.4956
      9 C8          2.4776    1.0722   -0.0164 C.2       1 <0>         0.3448
     10 N2          3.7101    1.6672   -0.0250 N.pl3     1 <0>        -0.6025
     11 H1          3.8948    2.6500   -0.0212 H         1 <0>         0.4245
     12 C9          1.1869    1.7912    0.0003 C.ar      1 <0>        -0.0963
     13 C10        -0.0126    1.0758    0.0080 C.ar      1 <0>        -0.0160
     14 C11        -1.2142    1.7489    0.0173 C.ar      1 <0>        -0.2010
     15 C12        -1.2338    3.1398    0.0308 C.ar      1 <0>         0.2348
     16 C13        -0.0407    3.8551    0.0232 C.ar      1 <0>        -0.1997
     17 C14         1.1640    3.1876    0.0081 C.ar      1 <0>        -0.0487
     18 N3         -2.4511    3.8180    0.0456 N.pl3     1 <0>        -0.8713
     19 N4          6.6974   -2.9863   -0.0801 N.pl3     1 <0>        -0.8784
     20 H2          3.6893   -3.3904    0.9727 H         1 <0>         0.0630
     21 H3          2.9060   -2.9322   -0.5586 H         1 <0>         0.0709
     22 H4          4.4434   -3.8290   -0.5788 H         1 <0>         0.0555
     23 H5          7.7909   -0.5831   -0.0767 H         1 <0>         0.1286
     24 H6          6.5942    1.5611   -0.0538 H         1 <0>         0.1227
     25 H7          0.0021   -0.0041    0.0020 H         1 <0>         0.1388
     26 H8         -2.1421    1.1962    0.0183 H         1 <0>         0.1282
     27 H9         -0.0591    4.9350    0.0296 H         1 <0>         0.1264
     28 H10         2.0899    3.7435    0.0019 H         1 <0>         0.1193
     29 H11        -2.4659    4.7879    0.0507 H         1 <0>         0.4005
     30 H12        -3.2836    3.3202    0.0509 H         1 <0>         0.4014
     31 H13         7.6674   -2.9914   -0.0890 H         1 <0>         0.3974
     32 H14         6.2080   -3.8238   -0.0804 H         1 <0>         0.3981
@<TRIPOS>BOND
     1    1    2 1
     2    1   20 1
     3    1   21 1
     4    1   22 1
     5    2    7 ar
     6    2    3 ar
     7    3    4 ar
     8    3   19 1
     9    4    5 ar
    10    4   23 1
    11    5    6 ar
    12    5   24 1
    13    6   10 1
    14    6    7 ar
    15    7    8 1
    16    8    9 2
    17    9   10 1
    18    9   12 1
    19   10   11 1
    20   12   17 ar
    21   12   13 ar
    22   13   14 ar
    23   13   25 1
    24   14   15 ar
    25   14   26 1
    26   15   16 ar
    27   15   18 1
    28   16   17 ar
    29   16   27 1
    30   17   28 1
    31   18   29 1
    32   18   30 1
    33   19   31 1
    34   19   32 1
@<TRIPOS>MOLECULE
ZINC03964325
   57    59     0     0     0
SMALL
USER_CHARGES

@<TRIPOS>ATOM
      1 C1          0.1489    2.0884    0.1150 C.3       1 <0>        -0.1876
      2 C2          0.1348    0.5603    0.1888 C.3       1 <0>        -0.0191
      3 N1         -1.2520    0.0881    0.2979 N.4       1 <0>        -0.3822
      4 C3         -1.9779    0.4111   -0.9377 C.3       1 <0>        -0.0142
      5 C4         -3.4549    0.0484   -0.7712 C.3       1 <0>        -0.1895
      6 C5         -1.2593   -1.3663    0.5041 C.3       1 <0>        -0.0265
      7 C6         -0.6131   -1.6936    1.8518 C.3       1 <0>         0.0952
      8 N2         -0.6203   -3.1440    2.0575 N.am      1 <0>        -0.7289
      9 C7         -0.0988   -3.6675    3.1846 C.2       1 <0>         0.6111
     10 O1          0.3779   -2.9358    4.0309 O.2       1 <0>        -0.5184
     11 C8         -0.1061   -5.1270    3.3915 C.2       1 <0>        -0.2420
     12 C9          0.9071   -6.0320    3.0089 C.2       1 <0>        -0.0577
     13 C10         0.4868   -7.2892    3.3960 C.2       1 <0>        -0.0075
     14 N3         -0.7476   -7.1595    3.9982 N.pl3     1 <0>        -0.4910
     15 H1         -1.2731   -7.8879    4.3645 H         1 <0>         0.4270
     16 C11        -1.1044   -5.8642    4.0022 C.2       1 <0>         0.1158
     17 C12        -2.3825   -5.3072    4.5743 C.3       1 <0>        -0.0999
     18 C13         1.1957   -8.4957    3.2079 C.2       1 <0>         0.0729
     19 C14         0.5100   -9.6674    2.9570 C.2       1 <0>        -0.1889
     20 C15         1.0648  -11.0377    2.8871 C.ar      1 <0>        -0.0736
     21 C16         2.3472  -11.5557    3.0375 C.ar      1 <0>        -0.1000
     22 C17         2.5553  -12.9162    2.9116 C.ar      1 <0>         0.0861
     23 C18         1.4888  -13.7593    2.6366 C.ar      1 <0>        -0.1139
     24 C19         0.2139  -13.2531    2.4856 C.ar      1 <0>        -0.1021
     25 C20        -0.0144  -11.8871    2.6092 C.ar      1 <0>         0.1282
     26 N4         -1.1765  -11.1301    2.5069 N.am      1 <0>        -0.6466
     27 C21        -0.9294   -9.8245    2.7079 C.2       1 <0>         0.5595
     28 O2         -1.7538   -8.9280    2.6842 O.2       1 <0>        -0.5156
     29 F1          3.7984  -13.4252    3.0561 F         1 <0>        -0.1318
     30 C22         2.1990   -5.6919    2.3116 C.3       1 <0>        -0.0931
     31 H2          1.1793    2.4435    0.1331 H         1 <0>         0.1076
     32 H3         -0.3308    2.4121   -0.8087 H         1 <0>         0.0811
     33 H4         -0.3916    2.4984    0.9682 H         1 <0>         0.0809
     34 H5          0.5888    0.1488   -0.7126 H         1 <0>         0.1317
     35 H6          0.6996    0.2334    1.0619 H         1 <0>         0.1337
     36 H7         -1.8867    1.4775   -1.1444 H         1 <0>         0.1351
     37 H8         -1.5554   -0.1571   -1.7664 H         1 <0>         0.1307
     38 H9         -3.5537   -1.0316   -0.6617 H         1 <0>         0.0802
     39 H10        -3.8523    0.5414    0.1160 H         1 <0>         0.0808
     40 H11        -4.0109    0.3769   -1.6492 H         1 <0>         0.1074
     41 H12        -2.2871   -1.7292    0.4963 H         1 <0>         0.1397
     42 H13        -0.6973   -1.8494   -0.2952 H         1 <0>         0.1376
     43 H14         0.4147   -1.3306    1.8596 H         1 <0>         0.0893
     44 H15        -1.1751   -1.2105    2.6511 H         1 <0>         0.0890
     45 H16        -1.0005   -3.7277    1.3824 H         1 <0>         0.4099
     46 H17        -3.1529   -5.3000    3.8032 H         1 <0>         0.0840
     47 H18        -2.7087   -5.9289    5.4080 H         1 <0>         0.0782
     48 H19        -2.2103   -4.2898    4.9254 H         1 <0>         0.0840
     49 H20         2.2744   -8.5020    3.2604 H         1 <0>         0.1589
     50 H21         3.1765  -10.8977    3.2512 H         1 <0>         0.1436
     51 H22         1.6578  -14.8215    2.5394 H         1 <0>         0.1485
     52 H23        -0.6084  -13.9196    2.2712 H         1 <0>         0.1415
     53 H24        -2.0541  -11.4980    2.3189 H         1 <0>         0.4217
     54 H25         2.9686   -5.4822    3.0545 H         1 <0>         0.0785
     55 H26         2.5107   -6.5337    1.6932 H         1 <0>         0.0726
     56 H27         2.0522   -4.8138    1.6827 H         1 <0>         0.0634
     57 H28        -1.7009    0.5410    1.0799 H         1 <0>         0.4247
@<TRIPOS>BOND
     1    1    2 1
     2    1   31 1
     3    1   32 1
     4    1   33 1
     5    2    3 1
     6    2   34 1
     7    2   35 1
     8    3    4 1
     9    3    6 1
    10    3   57 1
    11    4    5 1
    12    4   36 1
    13    4   37 1
    14    5   38 1
    15    5   39 1
    16    5   40 1
    17    6    7 1
    18    6   41 1
    19    6   42 1
    20    7    8 1
    21    7   43 1
    22    7   44 1
    23    8    9 am
    24    8   45 1
    25    9   10 2
    26    9   11 1
    27   11   16 2
    28   11   12 1
    29   12   13 2
    30   12   30 1
    31   13   14 1
    32   13   18 1
    33   14   15 1
    34   14   16 1
    35   16   17 1
    36   17   46 1
    37   17   47 1
    38   17   48 1
    39   18   19 2
    40   18   49 1
    41   19   27 1
    42   19   20 1
    43   20   25 ar
    44   20   21 ar
    45   21   22 ar
    46   21   50 1
    47   22   23 ar
    48   22   29 1
    49   23   24 ar
    50   23   51 1
    51   24   25 ar
    52   24   52 1
    53   25   26 1
    54   26   27 am
    55   26   53 1
    56   27   28 2
    57   30   54 1
    58   30   55 1
    59   30   56 1
@<TRIPOS>MOLECULE
ZINC03820040
   62    66     0     0     0
SMALL
USER_CHARGES
N-[4-[4-(4-methylpiperazin-1-yl)-6-[(5-methyl-2H-pyrazol-3-yl)amino]pyrimidin-2-yl]sulfanylphenyl]cyclopropanecarboxamide
@<TRIPOS>ATOM
      1 C1          1.8035   -7.6837    0.5070 C.3       1 <0>        -0.0779
      2 C2          2.3685   -6.3674    0.0389 C.2       1 <0>         0.0949
      3 C3          1.9325   -5.1020    0.4407 C.2       1 <0>        -0.2905
      4 C4          2.6904   -4.1743   -0.2066 C.2       1 <0>         0.3252
      5 N1          3.5799   -4.8447   -0.9836 N.pl3     1 <0>        -0.4853
      6 H1          4.2729   -4.4328   -1.5753 H         1 <0>         0.4473
      7 N2          3.3537   -6.2159   -0.8085 N.2       1 <0>        -0.2711
      8 N3          2.5778   -2.7905   -0.0888 N.pl3     1 <0>        -0.6296
      9 C5          1.3376   -2.2123    0.1391 C.ar      1 <0>         0.4706
     10 C6          0.1755   -2.9717    0.0343 C.ar      1 <0>        -0.2983
     11 C7         -1.0466   -2.3490    0.2714 C.ar      1 <0>         0.3791
     12 N4         -1.0643   -1.0564    0.5886 N.ar      1 <0>        -0.5664
     13 C8          0.0620   -0.3646    0.6795 C.ar      1 <0>         0.3511
     14 N5          1.2425   -0.9231    0.4557 N.ar      1 <0>        -0.5606
     15 S1         -0.0125    1.3444    1.1018 S.3       1 <0>         0.1303
     16 C9          1.7078    1.7032    1.2298 C.ar      1 <0>        -0.1638
     17 C10         2.3806    1.4637    2.4214 C.ar      1 <0>        -0.0284
     18 C11         3.7293    1.7409    2.5200 C.ar      1 <0>        -0.1315
     19 C12         4.4114    2.2681    1.4313 C.ar      1 <0>         0.1902
     20 C13         3.7379    2.5125    0.2417 C.ar      1 <0>        -0.1573
     21 C14         2.3903    2.2311    0.1410 C.ar      1 <0>        -0.0288
     22 N6          5.7793    2.5539    1.5333 N.am      1 <0>        -0.6744
     23 C15         6.5739    1.7808    2.2997 C.2       1 <0>         0.5466
     24 O1          6.1269    0.7811    2.8213 O.2       1 <0>        -0.5140
     25 C16         8.0178    2.1584    2.5086 C.3       1 <0>        -0.2022
     26 C17         9.0818    1.2604    1.8742 C.3       1 <0>        -0.1494
     27 C18         8.8679    1.2402    3.3890 C.3       1 <0>        -0.1425
     28 N7         -2.2296   -3.0657    0.1789 N.pl3     1 <0>        -0.4710
     29 C19        -2.3617   -3.6957   -1.1422 C.3       1 <0>         0.0277
     30 C20        -3.6379   -4.5399   -1.1765 C.3       1 <0>         0.0040
     31 C21        -4.6643   -3.0537    0.4349 C.3       1 <0>        -0.0004
     32 C22        -3.3881   -2.2095    0.4692 C.3       1 <0>         0.0347
     33 C23        -6.0501   -4.4431   -0.9842 C.3       1 <0>        -0.0407
     34 H2          2.3381   -8.0122    1.3982 H         1 <0>         0.0831
     35 H3          0.7460   -7.5623    0.7417 H         1 <0>         0.0784
     36 H4          1.9177   -8.4287   -0.2805 H         1 <0>         0.0774
     37 H5          1.1347   -4.8964    1.1389 H         1 <0>         0.1550
     38 H6          3.3667   -2.2314   -0.1662 H         1 <0>         0.4241
     39 H7          0.2211   -4.0192   -0.2246 H         1 <0>         0.1631
     40 H8          1.8494    1.0573    3.2693 H         1 <0>         0.1319
     41 H9          4.2533    1.5509    3.4451 H         1 <0>         0.1405
     42 H10         4.2686    2.9225   -0.6049 H         1 <0>         0.1339
     43 H11         1.8666    2.4209   -0.7843 H         1 <0>         0.1341
     44 H12         6.1543    3.3081    1.0523 H         1 <0>         0.4168
     45 H13         8.2224    3.2282    2.5520 H         1 <0>         0.1306
     46 H14         8.7374    0.3965    1.3057 H         1 <0>         0.0995
     47 H15         9.9866    1.7393    1.5000 H         1 <0>         0.1100
     48 H16         9.6320    1.7059    4.0114 H         1 <0>         0.1092
     49 H17         8.3827    0.3633    3.8175 H         1 <0>         0.1093
     50 H18        -2.4158   -2.9234   -1.9095 H         1 <0>         0.0737
     51 H19        -1.4982   -4.3342   -1.3286 H         1 <0>         0.1318
     52 H20        -3.5722   -5.3290   -0.4274 H         1 <0>         0.1439
     53 H21        -3.7533   -4.9852   -2.1646 H         1 <0>         0.1412
     54 H22        -4.6102   -3.8259    1.2022 H         1 <0>         0.1407
     55 H23        -5.5278   -2.4152    0.6217 H         1 <0>         0.1407
     56 H24        -3.2729   -1.7645    1.4575 H         1 <0>         0.1357
     57 H25        -3.4537   -1.4201   -0.2796 H         1 <0>         0.0793
     58 H26        -6.8948   -3.7714   -0.8313 H         1 <0>         0.1238
     59 H27        -6.1225   -4.8989   -1.9717 H         1 <0>         0.1230
     60 H28        -6.0632   -5.2226   -0.2224 H         1 <0>         0.1251
     61 N8         -4.7966   -3.6630   -0.9051 N.4       1 <0>        -0.4014
     62 H29        -4.8229   -2.9169   -1.6099 H         1 <0>         0.4281
@<TRIPOS>BOND
     1    1    2 1
     2    1   34 1
     3    1   35 1
     4    1   36 1
     5    2    7 2
     6    2    3 1
     7    3    4 2
     8    3   37 1
     9    4    5 1
    10    4    8 1
    11    5    6 1
    12    5    7 1
    13    8    9 1
    14    8   38 1
    15    9   14 ar
    16    9   10 ar
    17   10   11 ar
    18   10   39 1
    19   11   12 ar
    20   11   28 1
    21   12   13 ar
    22   13   14 ar
    23   13   15 1
    24   15   16 1
    25   16   21 ar
    26   16   17 ar
    27   17   18 ar
    28   17   40 1
    29   18   19 ar
    30   18   41 1
    31   19   20 ar
    32   19   22 1
    33   20   21 ar
    34   20   42 1
    35   21   43 1
    36   22   23 am
    37   22   44 1
    38   23   24 2
    39   23   25 1
    40   25   27 1
    41   25   26 1
    42   25   45 1
    43   26   27 1
    44   26   46 1
    45   26   47 1
    46   27   48 1
    47   27   49 1
    48   28   32 1
    49   28   29 1
    50   29   30 1
    51   29   50 1
    52   29   51 1
    53   30   52 1
    54   30   53 1
    55   30   61 1
    56   31   32 1
    57   31   54 1
    58   31   55 1
    59   31   61 1
    60   32   56 1
    61   32   57 1
    62   33   58 1
    63   33   59 1
    64   33   60 1
    65   33   61 1
    66   61   62 1
@<TRIPOS>MOLECULE
ZINC18825339
   59    62     0     0     0
SMALL
USER_CHARGES
5-[(Z)-(5-fluoro-2-oxo-indolin-3-ylidene)methyl]-N-[(2R)-2-hydroxy-3-morpholino-propyl]-2,4-dimethyl-1H-pyrrole-3-carboxamide
@<TRIPOS>ATOM
      1 C1          3.5607    0.7280    0.3667 C.3       1 <0>        -0.0956
      2 C2          2.0758    0.7165    0.1102 C.2       1 <0>        -0.0564
      3 C3          1.2591    1.8188   -0.0477 C.2       1 <0>        -0.0308
      4 N1         -0.0271    1.3691   -0.2640 N.pl3     1 <0>        -0.5068
      5 H1         -0.8436    2.0903   -0.4163 H         1 <0>         0.4494
      6 C4         -0.0354    0.0257   -0.2455 C.2       1 <0>         0.1277
      7 C5          1.2525   -0.4230   -0.0155 C.2       1 <0>        -0.2308
      8 C6          1.6847   -1.8291    0.0810 C.2       1 <0>         0.5980
      9 O1          2.0430   -2.4250   -0.9167 O.2       1 <0>        -0.5421
     10 N2          1.6827   -2.4542    1.2750 N.am      1 <0>        -0.7266
     11 C7          2.1121   -3.8516    1.3710 C.3       1 <0>         0.1299
     12 C8          2.0150   -4.3162    2.8255 C.3       1 <0>         0.1144
     13 H2          2.5334   -3.6206    3.5018 H         1 <0>         0.0568
     14 C9          2.5799   -5.7329    2.9471 C.3       1 <0>         0.0228
     15 N3          2.4867   -6.1790    4.3436 N.3       1 <0>        -0.5349
     16 C10         3.3671   -5.3829    5.2109 C.3       1 <0>         0.0083
     17 C11         3.1945   -5.8402    6.6618 C.3       1 <0>         0.0618
     18 O2          3.4694   -7.2408    6.7508 O.3       1 <0>        -0.3843
     19 C12         2.6296   -8.0463    5.9193 C.3       1 <0>         0.0614
     20 C13         2.7965   -7.6114    4.4609 C.3       1 <0>         0.0172
     21 O3          0.6463   -4.3123    3.2364 O.3       1 <0>        -0.5882
     22 C14        -1.2476   -0.8477   -0.4426 C.3       1 <0>        -0.0994
     23 C15         1.6686    3.1691    0.0027 C.2       1 <0>         0.0908
     24 C16         0.8216    4.1284    0.5209 C.2       1 <0>        -0.2125
     25 C17         1.0162    5.5955    0.5210 C.ar      1 <0>        -0.0684
     26 C18         2.0202    6.4240    0.0297 C.ar      1 <0>        -0.1043
     27 C19         1.9118    7.7937    0.1786 C.ar      1 <0>         0.0808
     28 C20         0.8031    8.3379    0.8097 C.ar      1 <0>        -0.1198
     29 C21        -0.2000    7.5233    1.2941 C.ar      1 <0>        -0.1061
     30 C22        -0.1080    6.1430    1.1533 C.ar      1 <0>         0.1250
     31 N4         -0.9593    5.1144    1.5420 N.am      1 <0>        -0.6604
     32 C23        -0.4649    3.9133    1.1971 C.2       1 <0>         0.5647
     33 O4         -0.9909    2.8351    1.4086 O.2       1 <0>        -0.5132
     34 F1          2.8866    8.6030   -0.2904 F         1 <0>        -0.1355
     35 H3          3.9167    1.7678    0.4131 H         1 <0>         0.0672
     36 H4          4.0776    0.1994   -0.4478 H         1 <0>         0.0746
     37 H5          3.7717    0.2252    1.3221 H         1 <0>         0.0710
     38 H6          1.3586   -1.9152    2.1775 H         1 <0>         0.4262
     39 H7          1.4633   -4.4786    0.7417 H         1 <0>         0.0750
     40 H8          3.1531   -3.9398    1.0266 H         1 <0>         0.0785
     41 H9          2.0023   -6.4143    2.3052 H         1 <0>         0.0900
     42 H10         3.6334   -5.7360    2.6307 H         1 <0>         0.0465
     43 H11         4.4130   -5.5254    4.9015 H         1 <0>         0.0459
     44 H12         3.1012   -4.3189    5.1257 H         1 <0>         0.0881
     45 H13         3.8925   -5.2859    7.3064 H         1 <0>         0.1001
     46 H14         2.1618   -5.6458    6.9871 H         1 <0>         0.0615
     47 H15         2.9156   -9.1033    6.0238 H         1 <0>         0.1009
     48 H16         1.5805   -7.9185    6.2243 H         1 <0>         0.0621
     49 H17         2.1104   -8.1883    3.8234 H         1 <0>         0.0898
     50 H18         3.8332   -7.7899    4.1393 H         1 <0>         0.0455
     51 H19         0.3780   -4.6185    4.2583 H         1 <0>         0.4136
     52 H20        -0.9523   -1.9052   -0.3757 H         1 <0>         0.0845
     53 H21        -1.6843   -0.6508   -1.4328 H         1 <0>         0.0777
     54 H22        -1.9909   -0.6245    0.3369 H         1 <0>         0.0809
     55 H23         2.6624    3.4568   -0.3709 H         1 <0>         0.1579
     56 H24         2.8828    5.9984   -0.4614 H         1 <0>         0.1409
     57 H25         0.7239    9.4091    0.9228 H         1 <0>         0.1443
     58 H26        -1.0583    7.9589    1.7840 H         1 <0>         0.1386
     59 H27        -1.9003    5.3463    2.0623 H         1 <0>         0.4455
@<TRIPOS>BOND
     1    1    2 1
     2    1   35 1
     3    1   36 1
     4    1   37 1
     5    2    7 1
     6    2    3 2
     7    3    4 1
     8    3   23 1
     9    4    5 1
    10    4    6 1
    11    6    7 2
    12    6   22 1
    13    7    8 1
    14    8    9 2
    15    8   10 am
    16   10   11 1
    17   10   38 1
    18   11   12 1
    19   11   39 1
    20   11   40 1
    21   12   13 1
    22   12   14 1
    23   12   21 1
    24   14   15 1
    25   14   41 1
    26   14   42 1
    27   15   20 1
    28   15   16 1
    29   16   17 1
    30   16   43 1
    31   16   44 1
    32   17   18 1
    33   17   45 1
    34   17   46 1
    35   18   19 1
    36   19   20 1
    37   19   47 1
    38   19   48 1
    39   20   49 1
    40   20   50 1
    41   21   51 1
    42   22   52 1
    43   22   53 1
    44   22   54 1
    45   23   24 2
    46   23   55 1
    47   24   32 1
    48   24   25 1
    49   25   30 ar
    50   25   26 ar
    51   26   27 ar
    52   26   56 1
    53   27   28 ar
    54   27   34 1
    55   28   29 ar
    56   28   57 1
    57   29   30 ar
    58   29   58 1
    59   30   31 1
    60   31   32 am
    61   31   59 1
    62   32   33 2
@<TRIPOS>MOLECULE
ZINC18825344
   59    62     0     0     0
SMALL
USER_CHARGES
5-[(Z)-(5-fluoro-2-oxo-indolin-3-ylidene)methyl]-N-[(2S)-2-hydroxy-3-morpholino-propyl]-2,4-dimethyl-1H-pyrrole-3-carboxamide
@<TRIPOS>ATOM
      1 C1          4.7056    0.6287    1.0117 C.3       1 <0>        -0.0968
      2 C2          3.2464    0.8378    0.6983 C.2       1 <0>        -0.0523
      3 C3          2.5980    2.0501    0.5678 C.2       1 <0>        -0.0327
      4 N1          1.2732    1.7961    0.2789 N.pl3     1 <0>        -0.5060
      5 H1          0.5720    2.6311    0.1339 H         1 <0>         0.4496
      6 C4          1.0783    0.4679    0.2258 C.2       1 <0>         0.1246
      7 C5          2.2801   -0.1676    0.4808 C.2       1 <0>        -0.2308
      8 C6          2.5088   -1.6234    0.5191 C.2       1 <0>         0.5976
      9 O1          2.8262   -2.2159   -0.4944 O.2       1 <0>        -0.5428
     10 N2          2.3662   -2.2977    1.6773 N.am      1 <0>        -0.7254
     11 C7          2.5935   -3.7444    1.7154 C.3       1 <0>         0.1298
     12 C8          2.3672   -4.2590    3.1384 C.3       1 <0>         0.1172
     13 H2          1.3599   -4.0040    3.4994 H         1 <0>         0.0560
     14 C9          2.6045   -5.7699    3.1781 C.3       1 <0>         0.0219
     15 N3          2.3382   -6.2720    4.5327 N.3       1 <0>        -0.5356
     16 C10         2.9762   -7.5793    4.7450 C.3       1 <0>         0.0168
     17 C11         2.7241   -8.0365    6.1842 C.3       1 <0>         0.0612
     18 O2          1.3152   -8.0759    6.4267 O.3       1 <0>        -0.3844
     19 C12         0.6618   -6.8191    6.2299 C.3       1 <0>         0.0617
     20 C13         0.8930   -6.3496    4.7911 C.3       1 <0>         0.0111
     21 O3          3.2765   -3.6103    4.0297 O.3       1 <0>        -0.5892
     22 C14        -0.2328   -0.2165   -0.0637 C.3       1 <0>        -0.0987
     23 C15         3.1876    3.3256    0.7056 C.2       1 <0>         0.0935
     24 C16         2.4515    4.3746    1.2192 C.2       1 <0>        -0.2157
     25 C17         2.8515    5.7966    1.3077 C.ar      1 <0>        -0.0669
     26 C18         3.9943    6.4912    0.9234 C.ar      1 <0>        -0.1048
     27 C19         4.0710    7.8545    1.1363 C.ar      1 <0>         0.0814
     28 C20         3.0098    8.5263    1.7247 C.ar      1 <0>        -0.1204
     29 C21         1.8704    7.8457    2.1029 C.ar      1 <0>        -0.1055
     30 C22         1.7753    6.4739    1.8965 C.ar      1 <0>         0.1237
     31 N4          0.7622    5.5637    2.1775 N.am      1 <0>        -0.6596
     32 C23         1.1039    4.3195    1.8021 C.2       1 <0>         0.5657
     33 O4          0.4171    3.3209    1.9242 O.2       1 <0>        -0.5153
     34 F1          5.1807    8.5334    0.7715 F         1 <0>        -0.1355
     35 H3          5.1994    1.6049    1.1269 H         1 <0>         0.0668
     36 H4          5.1808    0.0720    0.1906 H         1 <0>         0.0744
     37 H5          4.8016    0.0567    1.9464 H         1 <0>         0.0741
     38 H6          2.0791   -1.7617    2.5940 H         1 <0>         0.4273
     39 H7          1.8935   -4.2437    1.0293 H         1 <0>         0.0777
     40 H8          3.6268   -3.9615    1.4070 H         1 <0>         0.0736
     41 H9          1.9304   -6.2658    2.4641 H         1 <0>         0.0486
     42 H10         3.6486   -5.9844    2.9062 H         1 <0>         0.0884
     43 H11         2.5501   -8.3132    4.0451 H         1 <0>         0.0451
     44 H12         4.0587   -7.4917    4.5704 H         1 <0>         0.0900
     45 H13         3.1515   -9.0395    6.3305 H         1 <0>         0.1008
     46 H14         3.1986   -7.3305    6.8817 H         1 <0>         0.0620
     47 H15        -0.4170   -6.9344    6.4112 H         1 <0>         0.1000
     48 H16         1.0741   -6.0778    6.9303 H         1 <0>         0.0613
     49 H17         0.4415   -5.3564    4.6504 H         1 <0>         0.0873
     50 H18         0.4333   -7.0637    4.0920 H         1 <0>         0.0461
     51 H19         3.2627   -3.8533    5.1024 H         1 <0>         0.4141
     52 H20        -0.0899   -1.3070   -0.0417 H         1 <0>         0.0829
     53 H21        -0.5927    0.0862   -1.0581 H         1 <0>         0.0781
     54 H22        -0.9728    0.0718    0.6974 H         1 <0>         0.0803
     55 H23         4.2335    3.4835    0.4037 H         1 <0>         0.1584
     56 H24         4.8196    5.9664    0.4654 H         1 <0>         0.1411
     57 H25         3.0756    9.5918    1.8882 H         1 <0>         0.1443
     58 H26         1.0507    8.3797    2.5605 H         1 <0>         0.1385
     59 H27        -0.1701    5.9069    2.6497 H         1 <0>         0.4455
@<TRIPOS>BOND
     1    1    2 1
     2    1   35 1
     3    1   36 1
     4    1   37 1
     5    2    7 1
     6    2    3 2
     7    3    4 1
     8    3   23 1
     9    4    5 1
    10    4    6 1
    11    6    7 2
    12    6   22 1
    13    7    8 1
    14    8    9 2
    15    8   10 am
    16   10   11 1
    17   10   38 1
    18   11   12 1
    19   11   39 1
    20   11   40 1
    21   12   13 1
    22   12   14 1
    23   12   21 1
    24   14   15 1
    25   14   41 1
    26   14   42 1
    27   15   20 1
    28   15   16 1
    29   16   17 1
    30   16   43 1
    31   16   44 1
    32   17   18 1
    33   17   45 1
    34   17   46 1
    35   18   19 1
    36   19   20 1
    37   19   47 1
    38   19   48 1
    39   20   49 1
    40   20   50 1
    41   21   51 1
    42   22   52 1
    43   22   53 1
    44   22   54 1
    45   23   24 2
    46   23   55 1
    47   24   32 1
    48   24   25 1
    49   25   30 ar
    50   25   26 ar
    51   26   27 ar
    52   26   56 1
    53   27   28 ar
    54   27   34 1
    55   28   29 ar
    56   28   57 1
    57   29   30 ar
    58   29   58 1
    59   30   31 1
    60   31   32 am
    61   31   59 1
    62   32   33 2
@<TRIPOS>MOLECULE
ZINC03797930
   57    61     0     0     0
SMALL
USER_CHARGES

@<TRIPOS>ATOM
      1 C1         -0.0178    1.4608    0.0101 C.3       1 <0>         0.0756
      2 N1          0.0021   -0.0041    0.0020 N.pl3     1 <0>        -0.4779
      3 C2          0.0079   -0.7756   -1.1193 C.2       1 <0>         0.1034
      4 C3          0.0281   -2.0937   -0.7697 C.2       1 <0>        -0.1402
      5 C4          0.0354   -2.1368    0.7032 C.ar      1 <0>        -0.0754
      6 C5          0.0236   -0.7983    1.1297 C.ar      1 <0>         0.0946
      7 C6          0.0313   -0.5163    2.4916 C.ar      1 <0>        -0.1255
      8 C7          0.0535   -1.5463    3.4071 C.ar      1 <0>        -0.0992
      9 C8          0.0683   -2.8675    2.9845 C.ar      1 <0>        -0.1386
     10 C9          0.0542   -3.1677    1.6397 C.ar      1 <0>        -0.0735
     11 C10         0.0398   -3.2475   -1.6846 C.2       1 <0>        -0.0198
     12 C11         1.1172   -3.7122   -2.4298 C.2       1 <0>        -0.0395
     13 C12         0.6208   -4.8840   -3.1806 C.2       1 <0>         0.5564
     14 O1          1.2746   -5.5640   -3.9461 O.2       1 <0>        -0.4464
     15 N2         -0.6740   -5.0726   -2.8749 N.am      1 <0>        -0.6902
     16 C13        -1.0897   -4.1493   -1.9915 C.2       1 <0>         0.5532
     17 O2         -2.2087   -4.0674   -1.5257 O.2       1 <0>        -0.4418
     18 C14         2.4779   -3.1502   -2.4643 C.2       1 <0>        -0.1185
     19 C15         3.4364   -3.2746   -1.5022 C.2       1 <0>         0.0933
     20 N3          4.5640   -2.6188   -1.8910 N.pl3     1 <0>        -0.4798
     21 C16         4.3781   -2.0398   -3.1293 C.ar      1 <0>         0.0962
     22 C17         3.0730   -2.3483   -3.5479 C.ar      1 <0>        -0.0752
     23 C18         2.6089   -1.8925   -4.7796 C.ar      1 <0>        -0.0686
     24 C19         3.4370   -1.1416   -5.5852 C.ar      1 <0>        -0.1351
     25 C20         4.7273   -0.8397   -5.1749 C.ar      1 <0>        -0.0935
     26 C21         5.1968   -1.2769   -3.9550 C.ar      1 <0>        -0.1304
     27 C22         5.7987   -2.5392   -1.1066 C.3       1 <0>         0.1213
     28 C23         5.8024   -1.2444   -0.2914 C.3       1 <0>        -0.1304
     29 C24         7.0919   -1.1612    0.5278 C.3       1 <0>        -0.1323
     30 S1          7.0963    0.3739    1.4943 S.3       1 <0>         0.0637
     31 C25         8.6242    0.3216    2.3704 C.cat     1 <0>         0.4855
     32 N4          9.2482    1.4553    2.6902 N.pl3     1 <0>        -0.7357
     33 N5          9.1561   -0.8516    2.7133 N.pl3     1 <0>        -0.7643
     34 H1          1.0048    1.8381    0.0023 H         1 <0>         0.0705
     35 H2         -0.5450    1.8219   -0.8730 H         1 <0>         0.0878
     36 H3         -0.5280    1.8123    0.9069 H         1 <0>         0.0849
     37 H4         -0.0026   -0.4009   -2.1322 H         1 <0>         0.1741
     38 H5          0.0202    0.5088    2.8315 H         1 <0>         0.1196
     39 H6          0.0598   -1.3227    4.4637 H         1 <0>         0.1265
     40 H7          0.0861   -3.6646    3.7130 H         1 <0>         0.1250
     41 H8          0.0669   -4.1972    1.3134 H         1 <0>         0.1196
     42 H9         -1.2301   -5.7795   -3.2382 H         1 <0>         0.4308
     43 H10         3.3186   -3.8118   -0.5727 H         1 <0>         0.1746
     44 H11         1.6050   -2.1267   -5.1017 H         1 <0>         0.1223
     45 H12         3.0800   -0.7868   -6.5407 H         1 <0>         0.1277
     46 H13         5.3679   -0.2507   -5.8146 H         1 <0>         0.1281
     47 H14         6.2036   -1.0375   -3.6461 H         1 <0>         0.1168
     48 H15         5.8563   -3.3934   -0.4320 H         1 <0>         0.1002
     49 H16         6.6571   -2.5481   -1.7783 H         1 <0>         0.0963
     50 H17         5.7448   -0.3902   -0.9660 H         1 <0>         0.0946
     51 H18         4.9440   -1.2354    0.3802 H         1 <0>         0.0946
     52 H19         7.1495   -2.0155    1.2024 H         1 <0>         0.1123
     53 H20         7.9503   -1.1702   -0.1438 H         1 <0>         0.1212
     54 H21         8.8612    2.3090    2.4406 H         1 <0>         0.4515
     55 H22         8.7020   -1.6765    2.4806 H         1 <0>         0.4429
     56 H23         9.9972   -0.8803    3.1956 H         1 <0>         0.4324
     57 H24        10.0893    1.4265    3.1725 H         1 <0>         0.4339
@<TRIPOS>BOND
     1    1    2 1
     2    1   34 1
     3    1   35 1
     4    1   36 1
     5    2    6 1
     6    2    3 1
     7    3    4 2
     8    3   37 1
     9    4    5 1
    10    4   11 1
    11    5   10 ar
    12    5    6 ar
    13    6    7 ar
    14    7    8 ar
    15    7   38 1
    16    8    9 ar
    17    8   39 1
    18    9   10 ar
    19    9   40 1
    20   10   41 1
    21   11   16 1
    22   11   12 2
    23   12   13 1
    24   12   18 1
    25   13   14 2
    26   13   15 am
    27   15   16 am
    28   15   42 1
    29   16   17 2
    30   18   22 1
    31   18   19 2
    32   19   20 1
    33   19   43 1
    34   20   21 1
    35   20   27 1
    36   21   26 ar
    37   21   22 ar
    38   22   23 ar
    39   23   24 ar
    40   23   44 1
    41   24   25 ar
    42   24   45 1
    43   25   26 ar
    44   25   46 1
    45   26   47 1
    46   27   28 1
    47   27   48 1
    48   27   49 1
    49   28   29 1
    50   28   50 1
    51   28   51 1
    52   29   30 1
    53   29   52 1
    54   29   53 1
    55   30   31 1
    56   31   32 2
    57   31   33 1
    58   32   54 1
    59   32   57 1
    60   33   55 1
    61   33   56 1
@<TRIPOS>MOLECULE
ZINC03812168
   64    69     0     0     0
SMALL
USER_CHARGES
dimethylaminomethylBLAHdione
@<TRIPOS>ATOM
      1 C1         -3.6591   -3.4932   -0.5238 C.3       1 <0>        -0.0551
      2 C2         -2.4926   -2.9550   -2.5762 C.3       1 <0>        -0.0445
      3 C3         -2.6578   -1.3072   -0.8098 C.3       1 <0>        -0.0358
      4 C4         -2.4673   -1.1012    0.6860 C.3       1 <0>         0.0654
      5 H1         -3.1645   -1.7751    1.2185 H         1 <0>         0.0947
      6 C5         -2.7230    0.3270    1.1457 C.3       1 <0>        -0.1345
      7 C6         -2.5225    1.3892    0.0793 C.3       1 <0>         0.1021
      8 N1         -1.1339    1.8402    0.0096 N.pl3     1 <0>        -0.4782
      9 C7         -0.0126    1.0747    0.0080 C.2       1 <0>         0.0759
     10 C8          1.1009    1.8532    0.0015 C.2       1 <0>        -0.1124
     11 C9          0.6150    3.2557   -0.0375 C.ar      1 <0>        -0.0829
     12 C10        -0.7846    3.1777   -0.0610 C.ar      1 <0>         0.0902
     13 C11        -1.5354    4.3459   -0.1576 C.ar      1 <0>        -0.1369
     14 C12        -0.9089    5.5725   -0.1941 C.ar      1 <0>        -0.0870
     15 C13         0.4756    5.6497   -0.1263 C.ar      1 <0>        -0.1387
     16 C14         1.2312    4.5008   -0.0317 C.ar      1 <0>        -0.0542
     17 C15         2.5293    1.4989    0.0288 C.2       1 <0>        -0.0575
     18 C16         3.2121    0.4058    0.5546 C.2       1 <0>        -0.0318
     19 C17         2.7061   -0.7744    1.2787 C.2       1 <0>        -0.1258
     20 C18         1.4206   -1.0272    1.6582 C.2       1 <0>         0.1002
     21 N2          1.3169   -2.2819    2.1682 N.pl3     1 <0>        -0.4767
     22 C19         2.5720   -2.8515    2.2654 C.ar      1 <0>         0.0850
     23 C20         3.5031   -1.9214    1.7684 C.ar      1 <0>        -0.0774
     24 C21         4.8560   -2.2219    1.8708 C.ar      1 <0>        -0.0704
     25 C22         5.2705   -3.4529    2.3343 C.ar      1 <0>        -0.1401
     26 C23         4.3436   -4.3996    2.7389 C.ar      1 <0>        -0.0882
     27 C24         3.0009   -4.0952    2.7142 C.ar      1 <0>        -0.1389
     28 C25         0.0751   -2.9597    2.5494 C.3       1 <0>         0.1083
     29 C26        -0.9464   -2.8428    1.4151 C.3       1 <0>         0.0261
     30 O1         -1.1329   -1.4683    1.0718 O.3       1 <0>        -0.3787
     31 C27         4.6407    0.6399    0.2297 C.2       1 <0>         0.5576
     32 O2          5.5801   -0.0982    0.4313 O.2       1 <0>        -0.4501
     33 N3          4.7726    1.8285   -0.3761 N.am      1 <0>        -0.6884
     34 C28         3.5684    2.3701   -0.5773 C.2       1 <0>         0.5496
     35 O3          3.3676    3.4021   -1.1909 O.2       1 <0>        -0.4507
     36 H2         -4.6064   -3.1194   -0.9125 H         1 <0>         0.1320
     37 H3         -3.5558   -4.5494   -0.7723 H         1 <0>         0.1292
     38 H4         -3.6371   -3.3709    0.5591 H         1 <0>         0.1176
     39 H5         -1.6226   -2.4415   -2.9853 H         1 <0>         0.1242
     40 H6         -2.4140   -4.0227   -2.7812 H         1 <0>         0.1266
     41 H7         -3.3976   -2.5618   -3.0392 H         1 <0>         0.1281
     42 H8         -3.6420   -0.9427   -1.1043 H         1 <0>         0.1512
     43 H9         -1.8892   -0.7576   -1.3530 H         1 <0>         0.1401
     44 H10        -3.7581    0.3948    1.5248 H         1 <0>         0.1133
     45 H11        -2.0693    0.5478    1.9998 H         1 <0>         0.1111
     46 H12        -2.8851    1.1097   -0.8943 H         1 <0>         0.0847
     47 H13        -3.1227    2.2722    0.3811 H         1 <0>         0.1001
     48 H14         0.0021   -0.0041    0.0020 H         1 <0>         0.1790
     49 H15        -2.6150    4.2937   -0.2077 H         1 <0>         0.1188
     50 H16        -1.4958    6.4773   -0.2780 H         1 <0>         0.1308
     51 H17         0.9608    6.6157   -0.1385 H         1 <0>         0.1284
     52 H18         2.3072    4.5814    0.0562 H         1 <0>         0.1320
     53 H19         0.6104   -0.3170    1.5917 H         1 <0>         0.1871
     54 H20         5.6126   -1.4944    1.6337 H         1 <0>         0.1514
     55 H21         6.3257   -3.6782    2.3787 H         1 <0>         0.1280
     56 H22         4.6724   -5.3687    3.0799 H         1 <0>         0.1300
     57 H23         2.2783   -4.8297    3.0422 H         1 <0>         0.1175
     58 H24         0.2774   -4.0129    2.7458 H         1 <0>         0.1169
     59 H25        -0.3264   -2.4933    3.4522 H         1 <0>         0.0971
     60 H26        -0.5876   -3.3893    0.5423 H         1 <0>         0.0664
     61 H27        -1.8985   -3.2659    1.7424 H         1 <0>         0.0864
     62 H28         5.6204    2.2247   -0.6318 H         1 <0>         0.4332
     63 N4         -2.5268   -2.7479   -1.1131 N.4       1 <0>        -0.4048
     64 H29        -1.6507   -3.0961   -0.7064 H         1 <0>         0.4232
@<TRIPOS>BOND
     1    1   36 1
     2    1   37 1
     3    1   38 1
     4    1   63 1
     5    2   39 1
     6    2   40 1
     7    2   41 1
     8    2   63 1
     9    3    4 1
    10    3   42 1
    11    3   43 1
    12    3   63 1
    13    4    5 1
    14    4   30 1
    15    4    6 1
    16    6    7 1
    17    6   44 1
    18    6   45 1
    19    7    8 1
    20    7   46 1
    21    7   47 1
    22    8   12 1
    23    8    9 1
    24    9   10 2
    25    9   48 1
    26   10   11 1
    27   10   17 1
    28   11   16 ar
    29   11   12 ar
    30   12   13 ar
    31   13   14 ar
    32   13   49 1
    33   14   15 ar
    34   14   50 1
    35   15   16 ar
    36   15   51 1
    37   16   52 1
    38   17   34 1
    39   17   18 2
    40   18   19 1
    41   18   31 1
    42   19   23 1
    43   19   20 2
    44   20   21 1
    45   20   53 1
    46   21   22 1
    47   21   28 1
    48   22   27 ar
    49   22   23 ar
    50   23   24 ar
    51   24   25 ar
    52   24   54 1
    53   25   26 ar
    54   25   55 1
    55   26   27 ar
    56   26   56 1
    57   27   57 1
    58   28   29 1
    59   28   58 1
    60   28   59 1
    61   29   30 1
    62   29   60 1
    63   29   61 1
    64   31   32 2
    65   31   33 am
    66   33   34 am
    67   33   62 1
    68   34   35 2
    69   63   64 1
