@<TRIPOS>MOLECULE
ZINC12503817
   35    36     0     0     0
SMALL
USER_CHARGES
[(2S,3S,5R)-3-azido-5-(5-methyl-2,4-dioxo-pyrimidin-1-yl)tetrahydrofuran-2-yl]methyl dihydrogen phosphate
@<TRIPOS>ATOM
      1 C1          3.0254    6.4397   -0.6385 C.3       1 <0>        -0.0734
      2 C2          2.2995    5.4054    0.1828 C.2       1 <0>        -0.2765
      3 C3          2.1715    4.1396   -0.2692 C.2       1 <0>         0.1826
      4 N1          1.5098    3.2128    0.4894 N.am      1 <0>        -0.5250
      5 C4          0.9811    3.5524    1.6791 C.2       1 <0>         0.6900
      6 O1          0.3931    2.7142    2.3348 O.2       1 <0>        -0.4999
      7 N2          1.0985    4.8056    2.1560 N.am      1 <0>        -0.6627
      8 H1          0.7060    5.0387    3.0457 H         1 <0>         0.4367
      9 C5          1.7432    5.7480    1.4388 C.2       1 <0>         0.5592
     10 O2          1.8455    6.8833    1.8672 O.2       1 <0>        -0.5259
     11 C6          1.3704    1.8394   -0.0011 C.3       1 <0>         0.2963
     12 H2          1.7827    1.7510   -1.0063 H         1 <0>         0.1210
     13 C7          2.0729    0.8522    0.9571 C.3       1 <0>        -0.1734
     14 C8          1.1520   -0.3885    0.9592 C.3       1 <0>         0.0730
     15 H3          0.7676   -0.5771    1.9616 H         1 <0>         0.1086
     16 C9          0.0021   -0.0041    0.0020 C.3       1 <0>         0.1079
     17 H4          0.2026   -0.3753   -1.0030 H         1 <0>         0.1021
     18 O3         -0.0175    1.4400    0.0100 O.3       1 <0>        -0.3273
     19 C10        -1.3278   -0.5576    0.5178 C.3       1 <0>         0.1386
     20 O4         -2.3700   -0.2279   -0.4027 O.3       1 <0>        -0.7499
     21 P1         -3.9061   -0.6539   -0.1772 P.3       1 <0>         2.1318
     22 O5         -4.3650   -0.1654    1.1423 O.2       1 <0>        -1.1635
     23 N3          1.8699   -1.5614    0.4542 N.2       1 <0>        -0.3549
     24 N4          2.6855   -2.0293    1.0700 N.1       1 <0>         0.2832
     25 N5          3.5011   -2.4972    1.6858 N.1       1 <0>        -0.2002
     26 H5          2.3175    6.9429   -1.2971 H         1 <0>         0.0683
     27 H6          3.4878    7.1710    0.0245 H         1 <0>         0.0725
     28 H7          3.7959    5.9534   -1.2367 H         1 <0>         0.0667
     29 H8          2.5897    3.8598   -1.2249 H         1 <0>         0.1781
     30 H9          2.1438    1.2770    1.9584 H         1 <0>         0.1008
     31 H10         3.0622    0.5929    0.5803 H         1 <0>         0.0886
     32 H11        -1.2574   -1.6411    0.6141 H         1 <0>         0.0560
     33 H12        -1.5506   -0.1200    1.4909 H         1 <0>         0.0482
     34 O6         -4.8180   -0.0070   -1.3357 O.3       1 <0>        -1.1782
     35 O7         -4.0313   -2.2582   -0.2287 O.3       1 <0>        -1.1995
@<TRIPOS>BOND
     1    1    2 1
     2    1   26 1
     3    1   27 1
     4    1   28 1
     5    2    9 1
     6    2    3 2
     7    3    4 1
     8    3   29 1
     9    4    5 am
    10    4   11 1
    11    5    6 2
    12    5    7 am
    13    7    8 1
    14    7    9 am
    15    9   10 2
    16   11   12 1
    17   11   18 1
    18   11   13 1
    19   13   14 1
    20   13   30 1
    21   13   31 1
    22   14   15 1
    23   14   16 1
    24   14   23 1
    25   16   17 1
    26   16   18 1
    27   16   19 1
    28   19   20 1
    29   19   32 1
    30   19   33 1
    31   20   21 1
    32   21   22 2
    33   21   34 1
    34   21   35 1
    35   23   24 2
    36   24   25 2
