@<TRIPOS>MOLECULE
ZINC01608243
   27    28     0     0     0
SMALL
USER_CHARGES
(2R)-2-aminotetralin-2-carboxylic acid
@<TRIPOS>ATOM
      1 C1          1.1581    3.1585    0.0067 C.ar      1 <0>        -0.1138
      2 C2          1.1758    1.7760    0.0004 C.ar      1 <0>        -0.1111
      3 C3         -0.0126    1.0758    0.0080 C.ar      1 <0>        -0.1105
      4 C4         -1.2281    1.7482    0.0174 C.ar      1 <0>        -0.0967
      5 C5         -1.2457    3.1247    0.0245 C.ar      1 <0>        -0.1007
      6 C6         -0.0479    3.8280    0.0176 C.ar      1 <0>        -0.1111
      7 C7         -2.5255    3.9190    0.0289 C.3       1 <0>        -0.0996
      8 C8         -3.6984    3.0457    0.4699 C.3       1 <0>        -0.1164
      9 C9         -3.6905    1.7640   -0.3716 C.3       1 <0>         0.0215
     10 C10        -2.4869    0.9212    0.0454 C.3       1 <0>        -0.0818
     11 C11        -4.9610    0.9904   -0.1299 C.2       1 <0>         0.4605
     12 O1         -5.5662    1.1311    0.9063 O.co2     1 <0>        -0.5744
     13 H1          2.0853    3.7123    0.0027 H         1 <0>         0.1271
     14 H2          2.1168    1.2462   -0.0101 H         1 <0>         0.1278
     15 H3          0.0021   -0.0041    0.0020 H         1 <0>         0.1279
     16 H4         -0.0609    4.9079    0.0212 H         1 <0>         0.1262
     17 H5         -2.4247    4.7591    0.7161 H         1 <0>         0.0995
     18 H6         -2.7170    4.2977   -0.9751 H         1 <0>         0.0713
     19 H7         -3.5915    2.7929    1.5248 H         1 <0>         0.1101
     20 H8         -4.6344    3.5820    0.3140 H         1 <0>         0.0929
     21 H9         -2.6479    0.5387    1.0533 H         1 <0>         0.1173
     22 H10        -2.3788    0.0834   -0.6433 H         1 <0>         0.0979
     23 H11        -3.5771    1.2774   -2.3688 H         1 <0>         0.4387
     24 H12        -4.3262    2.7326   -2.0734 H         1 <0>         0.4301
     25 O2         -5.4203    0.1450   -1.0659 O.co2     1 <0>        -0.7298
     26 N1         -3.5615    2.1195   -1.7958 N.4       1 <0>        -0.6207
     27 H13        -2.6704    2.6080   -1.9424 H         1 <0>         0.4178
@<TRIPOS>BOND
     1    1    6 ar
     2    1    2 ar
     3    1   13 1
     4    2    3 ar
     5    2   14 1
     6    3    4 ar
     7    3   15 1
     8    4   10 1
     9    4    5 ar
    10    5    6 ar
    11    5    7 1
    12    6   16 1
    13    7    8 1
    14    7   17 1
    15    7   18 1
    16    8    9 1
    17    8   19 1
    18    8   20 1
    19    9   10 1
    20    9   11 1
    21    9   26 1
    22   10   21 1
    23   10   22 1
    24   11   12 2
    25   11   25 1
    26   23   26 1
    27   24   26 1
    28   26   27 1
@<TRIPOS>MOLECULE
ZINC04262273
   27    28     0     0     0
SMALL
USER_CHARGES
(2S)-2-aminotetralin-2-carboxylic acid
@<TRIPOS>ATOM
      1 C1          1.1740    2.0780    0.0020 C.ar      1 <0>        -0.1145
      2 C2         -0.0166    1.3751    0.0096 C.ar      1 <0>        -0.1113
      3 C3          0.0021   -0.0041    0.0020 C.ar      1 <0>        -0.1115
      4 C4          1.2079   -0.6936   -0.0133 C.ar      1 <0>        -0.0944
      5 C5          2.3932    0.0063   -0.0268 C.ar      1 <0>        -0.0998
      6 C6          2.3723    1.3951   -0.0160 C.ar      1 <0>        -0.1115
      7 C7          3.7364   -0.6748   -0.0606 C.3       1 <0>        -0.0987
      8 C8          3.6086   -2.1353    0.3678 C.3       1 <0>        -0.1163
      9 C9          2.4915   -2.7854   -0.4570 C.3       1 <0>         0.0206
     10 C10         1.1553   -2.1990   -0.0061 C.3       1 <0>        -0.0785
     11 C11         2.4949   -4.2753   -0.2305 C.2       1 <0>         0.4576
     12 O1          2.9512   -4.7299    0.7918 O.co2     1 <0>        -0.5744
     13 H1          1.1658    3.1579    0.0098 H         1 <0>         0.1268
     14 H2         -0.9581    1.9042    0.0169 H         1 <0>         0.1275
     15 H3         -0.9284   -0.5523    0.0077 H         1 <0>         0.1276
     16 H4          3.3020    1.9448   -0.0221 H         1 <0>         0.1259
     17 H5          4.1362   -0.6310   -1.0736 H         1 <0>         0.0710
     18 H6          4.4177   -0.1598    0.6167 H         1 <0>         0.0992
     19 H7          4.5493   -2.6549    0.1856 H         1 <0>         0.0924
     20 H8          3.3603   -2.1865    1.4279 H         1 <0>         0.1102
     21 H9          0.9327   -2.5460    1.0029 H         1 <0>         0.1171
     22 H10         0.3691   -2.5344   -0.6825 H         1 <0>         0.0978
     23 H11         1.9749   -2.9209   -2.4452 H         1 <0>         0.4385
     24 H12         2.7577   -1.5079   -2.0493 H         1 <0>         0.4156
     25 O2          1.9911   -5.0972   -1.1644 O.co2     1 <0>        -0.7300
     26 N1          2.7226   -2.5129   -1.8865 N.4       1 <0>        -0.6202
     27 H13         3.6175   -2.9295   -2.1692 H         1 <0>         0.4333
@<TRIPOS>BOND
     1    1    6 ar
     2    1    2 ar
     3    1   13 1
     4    2    3 ar
     5    2   14 1
     6    3    4 ar
     7    3   15 1
     8    4   10 1
     9    4    5 ar
    10    5    6 ar
    11    5    7 1
    12    6   16 1
    13    7    8 1
    14    7   17 1
    15    7   18 1
    16    8    9 1
    17    8   19 1
    18    8   20 1
    19    9   10 1
    20    9   11 1
    21    9   26 1
    22   10   21 1
    23   10   22 1
    24   11   12 2
    25   11   25 1
    26   23   26 1
    27   24   26 1
    28   26   27 1
